MODEL 1
REMARK VINA RESULT:      -8.4      0.000      0.000
REMARK  6 active torsions:
REMARK  status: ('A' for Active; 'I' for Inactive)
REMARK    1  A    between atoms: C_2  and  N_3 
REMARK    2  A    between atoms: C_10  and  N_11 
REMARK       I    between atoms: N_11  and  C_12 
REMARK       I    between atoms: C_12  and  N_13 
REMARK    3  A    between atoms: N_13  and  C_14 
REMARK    4  A    between atoms: C_14  and  C_15 
REMARK    5  A    between atoms: C_15  and  C_16 
REMARK    6  A    between atoms: C_19  and  O_20 
ROOT
HETATM    1  N   UNL     1      42.642 -17.384   1.809  1.00  0.00    -0.307 N 
HETATM    2  C   UNL     1      41.356 -16.930   1.863  1.00  0.00     0.320 C 
HETATM    3  N   UNL     1      40.925 -16.244   0.763  1.00  0.00    -0.343 N 
HETATM    4  O   UNL     1      40.541 -17.114   2.760  1.00  0.00    -0.247 OA
HETATM    5  H   UNL     1      43.109 -17.310   0.924  1.00  0.00     0.170 HD
HETATM    6  H   UNL     1      39.941 -16.015   0.832  1.00  0.00     0.164 HD
ENDROOT
BRANCH   1   7
HETATM    7  C   UNL     1      43.278 -18.199   2.732  1.00  0.00     0.064 A 
HETATM    8  C   UNL     1      43.662 -19.579   2.721  1.00  0.00     0.019 A 
HETATM    9  C   UNL     1      44.333 -19.831   3.929  1.00  0.00     0.046 A 
HETATM   10  C   UNL     1      43.494 -20.665   1.832  1.00  0.00     0.016 A 
HETATM   11  N   UNL     1      44.342 -18.649   4.639  1.00  0.00    -0.354 N 
HETATM   12  C   UNL     1      44.856 -21.096   4.251  1.00  0.00     0.030 A 
HETATM   13  C   UNL     1      43.659 -17.682   3.953  1.00  0.00     0.121 A 
HETATM   14  C   UNL     1      44.685 -22.138   3.339  1.00  0.00     0.002 A 
HETATM   15  C   UNL     1      44.008 -21.928   2.146  1.00  0.00     0.001 A 
BRANCH  11  16
HETATM   16  C   UNL     1      45.003 -18.427   5.914  1.00  0.00     0.124 C 
HETATM   17  C   UNL     1      44.109 -18.755   7.095  1.00  0.00     0.027 C 
ENDBRANCH  11  16
ENDBRANCH   1   7
BRANCH   3  18
HETATM   18  C   UNL     1      41.597 -15.931  -0.487  1.00  0.00     0.129 C 
BRANCH  18  19
HETATM   19  C   UNL     1      41.125 -14.636  -1.162  1.00  0.00     0.058 C 
BRANCH  19  20
HETATM   20  C   UNL     1      39.985 -14.811  -2.133  1.00  0.00    -0.057 A 
HETATM   21  C   UNL     1      38.808 -14.068  -1.998  1.00  0.00     0.010 A 
HETATM   22  C   UNL     1      37.778 -14.206  -2.931  1.00  0.00     0.037 A 
HETATM   23  C   UNL     1      37.904 -15.084  -4.011  1.00  0.00     0.068 A 
HETATM   24  C   UNL     1      39.064 -15.847  -4.134  1.00  0.00     0.037 A 
HETATM   25  C   UNL     1      40.097 -15.709  -3.203  1.00  0.00     0.010 A 
BRANCH  23  26
HETATM   26  O   UNL     1      36.834 -15.107  -4.863  1.00  0.00    -0.356 OA
HETATM   27  C   UNL     1      35.928 -14.014  -4.772  1.00  0.00     0.210 C 
ENDBRANCH  23  26
ENDBRANCH  19  20
ENDBRANCH  18  19
ENDBRANCH   3  18
TORSDOF 6
ENDMDL
MODEL 2
REMARK VINA RESULT:      -8.3      3.535      5.865
REMARK  6 active torsions:
REMARK  status: ('A' for Active; 'I' for Inactive)
REMARK    1  A    between atoms: C_2  and  N_3 
REMARK    2  A    between atoms: C_10  and  N_11 
REMARK       I    between atoms: N_11  and  C_12 
REMARK       I    between atoms: C_12  and  N_13 
REMARK    3  A    between atoms: N_13  and  C_14 
REMARK    4  A    between atoms: C_14  and  C_15 
REMARK    5  A    between atoms: C_15  and  C_16 
REMARK    6  A    between atoms: C_19  and  O_20 
ROOT
HETATM    1  N   UNL     1      41.543 -17.329   2.640  1.00  0.00    -0.307 N 
HETATM    2  C   UNL     1      41.541 -16.812   1.377  1.00  0.00     0.320 C 
HETATM    3  N   UNL     1      40.490 -15.992   1.077  1.00  0.00    -0.343 N 
HETATM    4  O   UNL     1      42.396 -16.961   0.512  1.00  0.00    -0.247 OA
HETATM    5  H   UNL     1      40.868 -16.955   3.282  1.00  0.00     0.170 HD
HETATM    6  H   UNL     1      40.597 -15.574   0.160  1.00  0.00     0.164 HD
ENDROOT
BRANCH   1   7
HETATM    7  C   UNL     1      42.544 -18.085   3.229  1.00  0.00     0.064 A 
HETATM    8  C   UNL     1      43.180 -19.318   2.870  1.00  0.00     0.019 A 
HETATM    9  C   UNL     1      44.175 -19.564   3.831  1.00  0.00     0.046 A 
HETATM   10  C   UNL     1      43.010 -20.279   1.849  1.00  0.00     0.016 A 
HETATM   11  N   UNL     1      44.129 -18.525   4.734  1.00  0.00    -0.354 N 
HETATM   12  C   UNL     1      45.004 -20.699   3.783  1.00  0.00     0.030 A 
HETATM   13  C   UNL     1      43.114 -17.665   4.413  1.00  0.00     0.121 A 
HETATM   14  C   UNL     1      44.817 -21.616   2.748  1.00  0.00     0.002 A 
HETATM   15  C   UNL     1      43.829 -21.413   1.794  1.00  0.00     0.001 A 
BRANCH  11  16
HETATM   16  C   UNL     1      45.036 -18.328   5.853  1.00  0.00     0.124 C 
HETATM   17  C   UNL     1      44.347 -18.494   7.194  1.00  0.00     0.027 C 
ENDBRANCH  11  16
ENDBRANCH   1   7
BRANCH   3  18
HETATM   18  C   UNL     1      39.370 -15.543   1.887  1.00  0.00     0.129 C 
BRANCH  18  19
HETATM   19  C   UNL     1      39.544 -14.150   2.507  1.00  0.00     0.058 C 
BRANCH  19  20
HETATM   20  C   UNL     1      40.619 -14.059   3.561  1.00  0.00    -0.057 A 
HETATM   21  C   UNL     1      41.804 -13.358   3.317  1.00  0.00     0.010 A 
HETATM   22  C   UNL     1      42.772 -13.243   4.318  1.00  0.00     0.037 A 
HETATM   23  C   UNL     1      42.575 -13.824   5.574  1.00  0.00     0.068 A 
HETATM   24  C   UNL     1      41.408 -14.548   5.811  1.00  0.00     0.037 A 
HETATM   25  C   UNL     1      40.437 -14.663   4.812  1.00  0.00     0.010 A 
BRANCH  23  26
HETATM   26  O   UNL     1      43.588 -13.617   6.469  1.00  0.00    -0.356 OA
HETATM   27  C   UNL     1      44.407 -14.741   6.770  1.00  0.00     0.210 C 
ENDBRANCH  23  26
ENDBRANCH  19  20
ENDBRANCH  18  19
ENDBRANCH   3  18
TORSDOF 6
ENDMDL
MODEL 3
REMARK VINA RESULT:      -8.1      3.517      6.294
REMARK  6 active torsions:
REMARK  status: ('A' for Active; 'I' for Inactive)
REMARK    1  A    between atoms: C_2  and  N_3 
REMARK    2  A    between atoms: C_10  and  N_11 
REMARK       I    between atoms: N_11  and  C_12 
REMARK       I    between atoms: C_12  and  N_13 
REMARK    3  A    between atoms: N_13  and  C_14 
REMARK    4  A    between atoms: C_14  and  C_15 
REMARK    5  A    between atoms: C_15  and  C_16 
REMARK    6  A    between atoms: C_19  and  O_20 
ROOT
HETATM    1  N   UNL     1      41.451 -17.257   2.473  1.00  0.00    -0.307 N 
HETATM    2  C   UNL     1      41.366 -16.744   1.211  1.00  0.00     0.320 C 
HETATM    3  N   UNL     1      40.304 -15.916   0.982  1.00  0.00    -0.343 N 
HETATM    4  O   UNL     1      42.156 -16.905   0.288  1.00  0.00    -0.247 OA
HETATM    5  H   UNL     1      40.827 -16.875   3.159  1.00  0.00     0.170 HD
HETATM    6  H   UNL     1      40.349 -15.502   0.059  1.00  0.00     0.164 HD
ENDROOT
BRANCH   1   7
HETATM    7  C   UNL     1      42.484 -18.022   2.993  1.00  0.00     0.064 A 
HETATM    8  C   UNL     1      43.198 -17.990   4.235  1.00  0.00     0.019 A 
HETATM    9  C   UNL     1      44.107 -19.061   4.216  1.00  0.00     0.046 A 
HETATM   10  C   UNL     1      43.202 -17.153   5.373  1.00  0.00     0.016 A 
HETATM   11  N   UNL     1      43.948 -19.703   3.008  1.00  0.00    -0.354 N 
HETATM   12  C   UNL     1      44.973 -19.332   5.290  1.00  0.00     0.030 A 
HETATM   13  C   UNL     1      43.019 -19.050   2.244  1.00  0.00     0.121 A 
HETATM   14  C   UNL     1      44.934 -18.493   6.404  1.00  0.00     0.002 A 
HETATM   15  C   UNL     1      44.063 -17.413   6.445  1.00  0.00     0.001 A 
BRANCH  11  16
HETATM   16  C   UNL     1      44.630 -20.918   2.593  1.00  0.00     0.124 C 
HETATM   17  C   UNL     1      43.760 -21.802   1.719  1.00  0.00     0.027 C 
ENDBRANCH  11  16
ENDBRANCH   1   7
BRANCH   3  18
HETATM   18  C   UNL     1      39.248 -15.454   1.868  1.00  0.00     0.129 C 
BRANCH  18  19
HETATM   19  C   UNL     1      39.424 -14.019   2.383  1.00  0.00     0.058 C 
BRANCH  19  20
HETATM   20  C   UNL     1      40.453 -13.865   3.474  1.00  0.00    -0.057 A 
HETATM   21  C   UNL     1      40.170 -14.254   4.787  1.00  0.00     0.010 A 
HETATM   22  C   UNL     1      41.148 -14.148   5.780  1.00  0.00     0.037 A 
HETATM   23  C   UNL     1      42.420 -13.654   5.479  1.00  0.00     0.068 A 
HETATM   24  C   UNL     1      42.698 -13.238   4.179  1.00  0.00     0.037 A 
HETATM   25  C   UNL     1      41.722 -13.345   3.184  1.00  0.00     0.010 A 
BRANCH  23  26
HETATM   26  O   UNL     1      43.290 -13.624   6.534  1.00  0.00    -0.356 OA
HETATM   27  C   UNL     1      44.663 -13.839   6.231  1.00  0.00     0.210 C 
ENDBRANCH  23  26
ENDBRANCH  19  20
ENDBRANCH  18  19
ENDBRANCH   3  18
TORSDOF 6
ENDMDL
MODEL 4
REMARK VINA RESULT:      -8.0      5.569      9.909
REMARK  6 active torsions:
REMARK  status: ('A' for Active; 'I' for Inactive)
REMARK    1  A    between atoms: C_2  and  N_3 
REMARK    2  A    between atoms: C_10  and  N_11 
REMARK       I    between atoms: N_11  and  C_12 
REMARK       I    between atoms: C_12  and  N_13 
REMARK    3  A    between atoms: N_13  and  C_14 
REMARK    4  A    between atoms: C_14  and  C_15 
REMARK    5  A    between atoms: C_15  and  C_16 
REMARK    6  A    between atoms: C_19  and  O_20 
ROOT
HETATM    1  N   UNL     1      43.813 -15.781   5.581  1.00  0.00    -0.307 N 
HETATM    2  C   UNL     1      43.536 -15.905   6.911  1.00  0.00     0.320 C 
HETATM    3  N   UNL     1      43.898 -14.843   7.691  1.00  0.00    -0.343 N 
HETATM    4  O   UNL     1      42.958 -16.832   7.466  1.00  0.00    -0.247 OA
HETATM    5  H   UNL     1      44.116 -14.878   5.265  1.00  0.00     0.170 HD
HETATM    6  H   UNL     1      43.585 -14.962   8.647  1.00  0.00     0.164 HD
ENDROOT
BRANCH   1   7
HETATM    7  C   UNL     1      43.447 -16.654   4.568  1.00  0.00     0.064 A 
HETATM    8  C   UNL     1      43.834 -17.994   4.242  1.00  0.00     0.019 A 
HETATM    9  C   UNL     1      43.075 -18.384   3.126  1.00  0.00     0.046 A 
HETATM   10  C   UNL     1      44.770 -18.924   4.749  1.00  0.00     0.016 A 
HETATM   11  N   UNL     1      42.271 -17.315   2.793  1.00  0.00    -0.354 N 
HETATM   12  C   UNL     1      43.198 -19.655   2.539  1.00  0.00     0.030 A 
HETATM   13  C   UNL     1      42.532 -16.254   3.616  1.00  0.00     0.121 A 
HETATM   14  C   UNL     1      44.121 -20.552   3.079  1.00  0.00     0.002 A 
HETATM   15  C   UNL     1      44.902 -20.191   4.169  1.00  0.00     0.001 A 
BRANCH  11  16
HETATM   16  C   UNL     1      41.262 -17.303   1.747  1.00  0.00     0.124 C 
HETATM   17  C   UNL     1      40.171 -16.281   2.006  1.00  0.00     0.027 C 
ENDBRANCH  11  16
ENDBRANCH   1   7
BRANCH   3  18
HETATM   18  C   UNL     1      44.510 -13.571   7.344  1.00  0.00     0.129 C 
BRANCH  18  19
HETATM   19  C   UNL     1      45.242 -12.875   8.499  1.00  0.00     0.058 C 
BRANCH  19  20
HETATM   20  C   UNL     1      44.341 -12.176   9.485  1.00  0.00    -0.057 A 
HETATM   21  C   UNL     1      43.364 -11.275   9.049  1.00  0.00     0.010 A 
HETATM   22  C   UNL     1      42.505 -10.669   9.970  1.00  0.00     0.037 A 
HETATM   23  C   UNL     1      42.606 -10.951  11.335  1.00  0.00     0.068 A 
HETATM   24  C   UNL     1      43.596 -11.826  11.776  1.00  0.00     0.037 A 
HETATM   25  C   UNL     1      44.455 -12.436  10.857  1.00  0.00     0.010 A 
BRANCH  23  26
HETATM   26  O   UNL     1      41.691 -10.310  12.124  1.00  0.00    -0.356 OA
HETATM   27  C   UNL     1      40.947 -11.125  13.023  1.00  0.00     0.210 C 
ENDBRANCH  23  26
ENDBRANCH  19  20
ENDBRANCH  18  19
ENDBRANCH   3  18
TORSDOF 6
ENDMDL
MODEL 5
REMARK VINA RESULT:      -7.8      0.834      2.761
REMARK  6 active torsions:
REMARK  status: ('A' for Active; 'I' for Inactive)
REMARK    1  A    between atoms: C_2  and  N_3 
REMARK    2  A    between atoms: C_10  and  N_11 
REMARK       I    between atoms: N_11  and  C_12 
REMARK       I    between atoms: C_12  and  N_13 
REMARK    3  A    between atoms: N_13  and  C_14 
REMARK    4  A    between atoms: C_14  and  C_15 
REMARK    5  A    between atoms: C_15  and  C_16 
REMARK    6  A    between atoms: C_19  and  O_20 
ROOT
HETATM    1  N   UNL     1      42.486 -17.029   1.611  1.00  0.00    -0.307 N 
HETATM    2  C   UNL     1      41.138 -16.839   1.518  1.00  0.00     0.320 C 
HETATM    3  N   UNL     1      40.730 -15.981   0.536  1.00  0.00    -0.343 N 
HETATM    4  O   UNL     1      40.262 -17.386   2.178  1.00  0.00    -0.247 OA
HETATM    5  H   UNL     1      43.048 -16.650   0.872  1.00  0.00     0.170 HD
HETATM    6  H   UNL     1      39.720 -15.954   0.464  1.00  0.00     0.164 HD
ENDROOT
BRANCH   1   7
HETATM    7  C   UNL     1      43.145 -17.928   2.435  1.00  0.00     0.064 A 
HETATM    8  C   UNL     1      43.610 -17.858   3.789  1.00  0.00     0.019 A 
HETATM    9  C   UNL     1      44.157 -19.113   4.104  1.00  0.00     0.046 A 
HETATM   10  C   UNL     1      43.659 -16.858   4.786  1.00  0.00     0.016 A 
HETATM   11  N   UNL     1      44.031 -19.901   2.980  1.00  0.00    -0.354 N 
HETATM   12  C   UNL     1      44.706 -19.400   5.366  1.00  0.00     0.030 A 
HETATM   13  C   UNL     1      43.479 -19.178   1.957  1.00  0.00     0.121 A 
HETATM   14  C   UNL     1      44.720 -18.391   6.330  1.00  0.00     0.002 A 
HETATM   15  C   UNL     1      44.208 -17.133   6.044  1.00  0.00     0.001 A 
BRANCH  11  16
HETATM   16  C   UNL     1      44.391 -21.305   2.880  1.00  0.00     0.124 C 
HETATM   17  C   UNL     1      44.169 -21.863   1.487  1.00  0.00     0.027 C 
ENDBRANCH  11  16
ENDBRANCH   1   7
BRANCH   3  18
HETATM   18  C   UNL     1      41.489 -15.245  -0.462  1.00  0.00     0.129 C 
BRANCH  18  19
HETATM   19  C   UNL     1      40.809 -13.968  -0.972  1.00  0.00     0.058 C 
BRANCH  19  20
HETATM   20  C   UNL     1      39.738 -14.196  -2.008  1.00  0.00    -0.057 A 
HETATM   21  C   UNL     1      39.882 -15.191  -2.981  1.00  0.00     0.010 A 
HETATM   22  C   UNL     1      38.861 -15.422  -3.907  1.00  0.00     0.037 A 
HETATM   23  C   UNL     1      37.685 -14.668  -3.878  1.00  0.00     0.068 A 
HETATM   24  C   UNL     1      37.549 -13.657  -2.929  1.00  0.00     0.037 A 
HETATM   25  C   UNL     1      38.568 -13.425  -2.000  1.00  0.00     0.010 A 
BRANCH  23  26
HETATM   26  O   UNL     1      36.758 -15.011  -4.824  1.00  0.00    -0.356 OA
HETATM   27  C   UNL     1      35.567 -14.232  -4.857  1.00  0.00     0.210 C 
ENDBRANCH  23  26
ENDBRANCH  19  20
ENDBRANCH  18  19
ENDBRANCH   3  18
TORSDOF 6
ENDMDL
MODEL 6
REMARK VINA RESULT:      -7.7      2.598      3.596
REMARK  6 active torsions:
REMARK  status: ('A' for Active; 'I' for Inactive)
REMARK    1  A    between atoms: C_2  and  N_3 
REMARK    2  A    between atoms: C_10  and  N_11 
REMARK       I    between atoms: N_11  and  C_12 
REMARK       I    between atoms: C_12  and  N_13 
REMARK    3  A    between atoms: N_13  and  C_14 
REMARK    4  A    between atoms: C_14  and  C_15 
REMARK    5  A    between atoms: C_15  and  C_16 
REMARK    6  A    between atoms: C_19  and  O_20 
ROOT
HETATM    1  N   UNL     1      42.507 -17.328   1.695  1.00  0.00    -0.307 N 
HETATM    2  C   UNL     1      41.179 -17.014   1.681  1.00  0.00     0.320 C 
HETATM    3  N   UNL     1      40.747 -16.326   0.583  1.00  0.00    -0.343 N 
HETATM    4  O   UNL     1      40.333 -17.322   2.513  1.00  0.00    -0.247 OA
HETATM    5  H   UNL     1      43.018 -17.165   0.847  1.00  0.00     0.170 HD
HETATM    6  H   UNL     1      39.741 -16.203   0.594  1.00  0.00     0.164 HD
ENDROOT
BRANCH   1   7
HETATM    7  C   UNL     1      43.167 -18.114   2.626  1.00  0.00     0.064 A 
HETATM    8  C   UNL     1      43.570 -19.489   2.639  1.00  0.00     0.019 A 
HETATM    9  C   UNL     1      44.262 -19.706   3.842  1.00  0.00     0.046 A 
HETATM   10  C   UNL     1      43.403 -20.596   1.776  1.00  0.00     0.016 A 
HETATM   11  N   UNL     1      44.265 -18.510   4.526  1.00  0.00    -0.354 N 
HETATM   12  C   UNL     1      44.806 -20.957   4.183  1.00  0.00     0.030 A 
HETATM   13  C   UNL     1      43.559 -17.566   3.830  1.00  0.00     0.121 A 
HETATM   14  C   UNL     1      44.636 -22.020   3.296  1.00  0.00     0.002 A 
HETATM   15  C   UNL     1      43.939 -21.845   2.108  1.00  0.00     0.001 A 
BRANCH  11  16
HETATM   16  C   UNL     1      44.941 -18.251   5.787  1.00  0.00     0.124 C 
HETATM   17  C   UNL     1      44.081 -18.598   6.987  1.00  0.00     0.027 C 
ENDBRANCH  11  16
ENDBRANCH   1   7
BRANCH   3  18
HETATM   18  C   UNL     1      41.458 -15.887  -0.607  1.00  0.00     0.129 C 
BRANCH  18  19
HETATM   19  C   UNL     1      40.719 -14.834  -1.443  1.00  0.00     0.058 C 
BRANCH  19  20
HETATM   20  C   UNL     1      41.481 -13.550  -1.655  1.00  0.00    -0.057 A 
HETATM   21  C   UNL     1      41.705 -13.053  -2.942  1.00  0.00     0.010 A 
HETATM   22  C   UNL     1      42.373 -11.838  -3.122  1.00  0.00     0.037 A 
HETATM   23  C   UNL     1      42.826 -11.103  -2.024  1.00  0.00     0.068 A 
HETATM   24  C   UNL     1      42.631 -11.609  -0.740  1.00  0.00     0.037 A 
HETATM   25  C   UNL     1      41.961 -12.822  -0.558  1.00  0.00     0.010 A 
BRANCH  23  26
HETATM   26  O   UNL     1      43.443  -9.923  -2.336  1.00  0.00    -0.356 OA
HETATM   27  C   UNL     1      43.840  -9.105  -1.241  1.00  0.00     0.210 C 
ENDBRANCH  23  26
ENDBRANCH  19  20
ENDBRANCH  18  19
ENDBRANCH   3  18
TORSDOF 6
ENDMDL
MODEL 7
REMARK VINA RESULT:      -7.6      2.357      3.156
REMARK  6 active torsions:
REMARK  status: ('A' for Active; 'I' for Inactive)
REMARK    1  A    between atoms: C_2  and  N_3 
REMARK    2  A    between atoms: C_10  and  N_11 
REMARK       I    between atoms: N_11  and  C_12 
REMARK       I    between atoms: C_12  and  N_13 
REMARK    3  A    between atoms: N_13  and  C_14 
REMARK    4  A    between atoms: C_14  and  C_15 
REMARK    5  A    between atoms: C_15  and  C_16 
REMARK    6  A    between atoms: C_19  and  O_20 
ROOT
HETATM    1  N   UNL     1      41.658 -15.961   4.292  1.00  0.00    -0.307 N 
HETATM    2  C   UNL     1      40.649 -15.559   5.118  1.00  0.00     0.320 C 
HETATM    3  N   UNL     1      39.827 -14.590   4.617  1.00  0.00    -0.343 N 
HETATM    4  O   UNL     1      40.373 -16.005   6.226  1.00  0.00    -0.247 OA
HETATM    5  H   UNL     1      41.627 -15.628   3.346  1.00  0.00     0.170 HD
HETATM    6  H   UNL     1      39.051 -14.403   5.241  1.00  0.00     0.164 HD
ENDROOT
BRANCH   1   7
HETATM    7  C   UNL     1      42.550 -16.999   4.511  1.00  0.00     0.064 A 
HETATM    8  C   UNL     1      43.023 -18.075   3.690  1.00  0.00     0.019 A 
HETATM    9  C   UNL     1      43.972 -18.783   4.444  1.00  0.00     0.046 A 
HETATM   10  C   UNL     1      42.733 -18.554   2.393  1.00  0.00     0.016 A 
HETATM   11  N   UNL     1      44.058 -18.162   5.671  1.00  0.00    -0.354 N 
HETATM   12  C   UNL     1      44.648 -19.908   3.939  1.00  0.00     0.030 A 
HETATM   13  C   UNL     1      43.165 -17.127   5.739  1.00  0.00     0.121 A 
HETATM   14  C   UNL     1      44.347 -20.340   2.646  1.00  0.00     0.002 A 
HETATM   15  C   UNL     1      43.398 -19.674   1.882  1.00  0.00     0.001 A 
BRANCH  11  16
HETATM   16  C   UNL     1      44.978 -18.512   6.740  1.00  0.00     0.124 C 
HETATM   17  C   UNL     1      44.298 -18.569   8.095  1.00  0.00     0.027 C 
ENDBRANCH  11  16
ENDBRANCH   1   7
BRANCH   3  18
HETATM   18  C   UNL     1      39.821 -13.919   3.327  1.00  0.00     0.129 C 
BRANCH  18  19
HETATM   19  C   UNL     1      38.962 -14.601   2.254  1.00  0.00     0.058 C 
BRANCH  19  20
HETATM   20  C   UNL     1      39.619 -14.717   0.902  1.00  0.00    -0.057 A 
HETATM   21  C   UNL     1      39.142 -13.988  -0.192  1.00  0.00     0.010 A 
HETATM   22  C   UNL     1      39.788 -14.070  -1.429  1.00  0.00     0.037 A 
HETATM   23  C   UNL     1      40.917 -14.878  -1.593  1.00  0.00     0.068 A 
HETATM   24  C   UNL     1      41.379 -15.628  -0.513  1.00  0.00     0.037 A 
HETATM   25  C   UNL     1      40.735 -15.546   0.725  1.00  0.00     0.010 A 
BRANCH  23  26
HETATM   26  O   UNL     1      41.467 -14.850  -2.845  1.00  0.00    -0.356 OA
HETATM   27  C   UNL     1      41.205 -13.691  -3.628  1.00  0.00     0.210 C 
ENDBRANCH  23  26
ENDBRANCH  19  20
ENDBRANCH  18  19
ENDBRANCH   3  18
TORSDOF 6
ENDMDL
MODEL 8
REMARK VINA RESULT:      -7.5      3.028      4.888
REMARK  6 active torsions:
REMARK  status: ('A' for Active; 'I' for Inactive)
REMARK    1  A    between atoms: C_2  and  N_3 
REMARK    2  A    between atoms: C_10  and  N_11 
REMARK       I    between atoms: N_11  and  C_12 
REMARK       I    between atoms: C_12  and  N_13 
REMARK    3  A    between atoms: N_13  and  C_14 
REMARK    4  A    between atoms: C_14  and  C_15 
REMARK    5  A    between atoms: C_15  and  C_16 
REMARK    6  A    between atoms: C_19  and  O_20 
ROOT
HETATM    1  N   UNL     1      42.270 -16.400   2.019  1.00  0.00    -0.307 N 
HETATM    2  C   UNL     1      41.029 -16.568   1.477  1.00  0.00     0.320 C 
HETATM    3  N   UNL     1      40.710 -15.714   0.460  1.00  0.00    -0.343 N 
HETATM    4  O   UNL     1      40.201 -17.423   1.767  1.00  0.00    -0.247 OA
HETATM    5  H   UNL     1      42.893 -15.777   1.539  1.00  0.00     0.170 HD
HETATM    6  H   UNL     1      39.816 -15.949   0.045  1.00  0.00     0.164 HD
ENDROOT
BRANCH   1   7
HETATM    7  C   UNL     1      42.878 -17.201   2.973  1.00  0.00     0.064 A 
HETATM    8  C   UNL     1      43.428 -18.524   2.936  1.00  0.00     0.019 A 
HETATM    9  C   UNL     1      43.964 -18.784   4.209  1.00  0.00     0.046 A 
HETATM   10  C   UNL     1      43.512 -19.554   1.973  1.00  0.00     0.016 A 
HETATM   11  N   UNL     1      43.735 -17.664   4.979  1.00  0.00    -0.354 N 
HETATM   12  C   UNL     1      44.593 -20.000   4.527  1.00  0.00     0.030 A 
HETATM   13  C   UNL     1      43.031 -16.735   4.262  1.00  0.00     0.121 A 
HETATM   14  C   UNL     1      44.671 -20.986   3.542  1.00  0.00     0.002 A 
HETATM   15  C   UNL     1      44.133 -20.769   2.281  1.00  0.00     0.001 A 
BRANCH  11  16
HETATM   16  C   UNL     1      44.192 -17.461   6.344  1.00  0.00     0.124 C 
HETATM   17  C   UNL     1      43.064 -17.551   7.353  1.00  0.00     0.027 C 
ENDBRANCH  11  16
ENDBRANCH   1   7
BRANCH   3  18
HETATM   18  C   UNL     1      41.482 -14.660  -0.177  1.00  0.00     0.129 C 
BRANCH  18  19
HETATM   19  C   UNL     1      41.014 -13.235   0.149  1.00  0.00     0.058 C 
BRANCH  19  20
HETATM   20  C   UNL     1      40.945 -12.917   1.622  1.00  0.00    -0.057 A 
HETATM   21  C   UNL     1      39.718 -12.660   2.243  1.00  0.00     0.010 A 
HETATM   22  C   UNL     1      39.663 -12.412   3.617  1.00  0.00     0.037 A 
HETATM   23  C   UNL     1      40.826 -12.416   4.391  1.00  0.00     0.068 A 
HETATM   24  C   UNL     1      42.054 -12.644   3.772  1.00  0.00     0.037 A 
HETATM   25  C   UNL     1      42.111 -12.894   2.397  1.00  0.00     0.010 A 
BRANCH  23  26
HETATM   26  O   UNL     1      40.631 -12.182   5.724  1.00  0.00    -0.356 OA
HETATM   27  C   UNL     1      39.488 -12.790   6.314  1.00  0.00     0.210 C 
ENDBRANCH  23  26
ENDBRANCH  19  20
ENDBRANCH  18  19
ENDBRANCH   3  18
TORSDOF 6
ENDMDL
MODEL 9
REMARK VINA RESULT:      -7.4      2.728      9.078
REMARK  6 active torsions:
REMARK  status: ('A' for Active; 'I' for Inactive)
REMARK    1  A    between atoms: C_2  and  N_3 
REMARK    2  A    between atoms: C_10  and  N_11 
REMARK       I    between atoms: N_11  and  C_12 
REMARK       I    between atoms: C_12  and  N_13 
REMARK    3  A    between atoms: N_13  and  C_14 
REMARK    4  A    between atoms: C_14  and  C_15 
REMARK    5  A    between atoms: C_15  and  C_16 
REMARK    6  A    between atoms: C_19  and  O_20 
ROOT
HETATM    1  N   UNL     1      42.103 -14.285   0.819  1.00  0.00    -0.307 N 
HETATM    2  C   UNL     1      41.904 -13.438   1.871  1.00  0.00     0.320 C 
HETATM    3  N   UNL     1      42.500 -13.805   3.044  1.00  0.00    -0.343 N 
HETATM    4  O   UNL     1      41.298 -12.373   1.863  1.00  0.00    -0.247 OA
HETATM    5  H   UNL     1      42.780 -15.014   0.948  1.00  0.00     0.170 HD
HETATM    6  H   UNL     1      42.387 -13.093   3.756  1.00  0.00     0.164 HD
ENDROOT
BRANCH   1   7
HETATM    7  C   UNL     1      41.710 -14.087  -0.495  1.00  0.00     0.064 A 
HETATM    8  C   UNL     1      41.994 -13.067  -1.460  1.00  0.00     0.019 A 
HETATM    9  C   UNL     1      41.354 -13.438  -2.654  1.00  0.00     0.046 A 
HETATM   10  C   UNL     1      42.703 -11.844  -1.455  1.00  0.00     0.016 A 
HETATM   11  N   UNL     1      40.705 -14.629  -2.411  1.00  0.00    -0.354 N 
HETATM   12  C   UNL     1      41.428 -12.658  -3.822  1.00  0.00     0.030 A 
HETATM   13  C   UNL     1      40.865 -14.994  -1.101  1.00  0.00     0.121 A 
HETATM   14  C   UNL     1      42.152 -11.466  -3.781  1.00  0.00     0.002 A 
HETATM   15  C   UNL     1      42.779 -11.060  -2.611  1.00  0.00     0.001 A 
BRANCH  11  16
HETATM   16  C   UNL     1      39.980 -15.419  -3.391  1.00  0.00     0.124 C 
HETATM   17  C   UNL     1      38.525 -15.004  -3.509  1.00  0.00     0.027 C 
ENDBRANCH  11  16
ENDBRANCH   1   7
BRANCH   3  18
HETATM   18  C   UNL     1      43.346 -14.942   3.369  1.00  0.00     0.129 C 
BRANCH  18  19
HETATM   19  C   UNL     1      42.608 -16.135   3.991  1.00  0.00     0.058 C 
BRANCH  19  20
HETATM   20  C   UNL     1      43.172 -17.484   3.625  1.00  0.00    -0.057 A 
HETATM   21  C   UNL     1      43.077 -17.970   2.317  1.00  0.00     0.010 A 
HETATM   22  C   UNL     1      43.644 -19.202   1.981  1.00  0.00     0.037 A 
HETATM   23  C   UNL     1      44.312 -19.967   2.941  1.00  0.00     0.068 A 
HETATM   24  C   UNL     1      44.384 -19.500   4.252  1.00  0.00     0.037 A 
HETATM   25  C   UNL     1      43.819 -18.267   4.590  1.00  0.00     0.010 A 
BRANCH  23  26
HETATM   26  O   UNL     1      44.841 -21.140   2.477  1.00  0.00    -0.356 OA
HETATM   27  C   UNL     1      44.017 -21.906   1.605  1.00  0.00     0.210 C 
ENDBRANCH  23  26
ENDBRANCH  19  20
ENDBRANCH  18  19
ENDBRANCH   3  18
TORSDOF 6
ENDMDL
MODEL 10
REMARK VINA RESULT:      -7.4      2.173      2.812
REMARK  6 active torsions:
REMARK  status: ('A' for Active; 'I' for Inactive)
REMARK    1  A    between atoms: C_2  and  N_3 
REMARK    2  A    between atoms: C_10  and  N_11 
REMARK       I    between atoms: N_11  and  C_12 
REMARK       I    between atoms: C_12  and  N_13 
REMARK    3  A    between atoms: N_13  and  C_14 
REMARK    4  A    between atoms: C_14  and  C_15 
REMARK    5  A    between atoms: C_15  and  C_16 
REMARK    6  A    between atoms: C_19  and  O_20 
ROOT
HETATM    1  N   UNL     1      41.195 -16.892   2.710  1.00  0.00    -0.307 N 
HETATM    2  C   UNL     1      41.174 -16.452   1.418  1.00  0.00     0.320 C 
HETATM    3  N   UNL     1      40.122 -15.647   1.087  1.00  0.00    -0.343 N 
HETATM    4  O   UNL     1      42.014 -16.657   0.550  1.00  0.00    -0.247 OA
HETATM    5  H   UNL     1      40.533 -16.477   3.339  1.00  0.00     0.170 HD
HETATM    6  H   UNL     1      40.214 -15.285   0.145  1.00  0.00     0.164 HD
ENDROOT
BRANCH   1   7
HETATM    7  C   UNL     1      42.203 -17.617   3.327  1.00  0.00     0.064 A 
HETATM    8  C   UNL     1      42.918 -18.805   2.965  1.00  0.00     0.019 A 
HETATM    9  C   UNL     1      43.875 -19.033   3.968  1.00  0.00     0.046 A 
HETATM   10  C   UNL     1      42.847 -19.741   1.909  1.00  0.00     0.016 A 
HETATM   11  N   UNL     1      43.732 -18.025   4.897  1.00  0.00    -0.354 N 
HETATM   12  C   UNL     1      44.762 -20.123   3.929  1.00  0.00     0.030 A 
HETATM   13  C   UNL     1      42.691 -17.207   4.550  1.00  0.00     0.121 A 
HETATM   14  C   UNL     1      44.673 -21.015   2.859  1.00  0.00     0.002 A 
HETATM   15  C   UNL     1      43.724 -20.831   1.863  1.00  0.00     0.001 A 
BRANCH  11  16
HETATM   16  C   UNL     1      44.571 -17.820   6.066  1.00  0.00     0.124 C 
HETATM   17  C   UNL     1      44.337 -16.470   6.717  1.00  0.00     0.027 C 
ENDBRANCH  11  16
ENDBRANCH   1   7
BRANCH   3  18
HETATM   18  C   UNL     1      39.017 -15.145   1.887  1.00  0.00     0.129 C 
BRANCH  18  19
HETATM   19  C   UNL     1      37.922 -14.424   1.089  1.00  0.00     0.058 C 
BRANCH  19  20
HETATM   20  C   UNL     1      38.433 -13.513   0.002  1.00  0.00    -0.057 A 
HETATM   21  C   UNL     1      38.202 -13.806  -1.346  1.00  0.00     0.010 A 
HETATM   22  C   UNL     1      38.640 -12.929  -2.342  1.00  0.00     0.037 A 
HETATM   23  C   UNL     1      39.314 -11.751  -2.011  1.00  0.00     0.068 A 
HETATM   24  C   UNL     1      39.571 -11.469  -0.671  1.00  0.00     0.037 A 
HETATM   25  C   UNL     1      39.132 -12.343   0.327  1.00  0.00     0.010 A 
BRANCH  23  26
HETATM   26  O   UNL     1      39.668 -10.971  -3.078  1.00  0.00    -0.356 OA
HETATM   27  C   UNL     1      40.402 -11.611  -4.115  1.00  0.00     0.210 C 
ENDBRANCH  23  26
ENDBRANCH  19  20
ENDBRANCH  18  19
ENDBRANCH   3  18
TORSDOF 6
ENDMDL
