MODEL 1
REMARK VINA RESULT:      -8.7      0.000      0.000
REMARK  3 active torsions:
REMARK  status: ('A' for Active; 'I' for Inactive)
REMARK    1  A    between atoms: C_6  and  N_7 
REMARK       I    between atoms: N_7  and  C_8 
REMARK    2  A    between atoms: C_8  and  C_9 
REMARK    3  A    between atoms: C_20  and  O_21 
ROOT
HETATM    1  C   UNL     1      42.444 -15.010   2.548  1.00  0.00     0.153 A 
HETATM    2  N   UNL     1      42.562 -14.488   3.793  1.00  0.00    -0.168 NA
HETATM    3  N   UNL     1      43.040 -15.508   4.537  1.00  0.00    -0.276 N 
HETATM    4  H   UNL     1      43.216 -15.346   5.522  1.00  0.00     0.189 HD
HETATM    5  C   UNL     1      43.236 -16.654   3.829  1.00  0.00     0.069 A 
HETATM    6  C   UNL     1      42.871 -16.361   2.534  1.00  0.00     0.007 A 
HETATM    7  C   UNL     1      42.931 -17.387   1.458  1.00  0.00     0.048 C 
HETATM    8  C   UNL     1      43.992 -18.465   1.782  1.00  0.00     0.044 C 
HETATM    9  C   UNL     1      44.059 -18.873   3.250  1.00  0.00    -0.043 A 
HETATM   10  C   UNL     1      43.732 -17.947   4.268  1.00  0.00    -0.001 A 
HETATM   11  C   UNL     1      44.532 -20.143   3.604  1.00  0.00     0.044 A 
HETATM   12  C   UNL     1      44.654 -20.511   4.946  1.00  0.00     0.068 A 
HETATM   13  C   UNL     1      44.323 -19.593   5.944  1.00  0.00     0.037 A 
HETATM   14  C   UNL     1      43.865 -18.312   5.608  1.00  0.00     0.017 A 
ENDROOT
BRANCH   1  15
HETATM   15  C   UNL     1      41.928 -14.212   1.418  1.00  0.00     0.277 C 
HETATM   16  N   UNL     1      40.870 -14.840   0.788  1.00  0.00    -0.322 N 
HETATM   17  H   UNL     1      40.633 -15.737   1.206  1.00  0.00     0.169 HD
HETATM   18  O   UNL     1      42.414 -13.127   1.117  1.00  0.00    -0.266 OA
BRANCH  16  19
HETATM   19  C   UNL     1      40.118 -14.392  -0.310  1.00  0.00     0.037 A 
HETATM   20  C   UNL     1      40.571 -14.425  -1.629  1.00  0.00     0.072 A 
HETATM   21  C   UNL     1      39.756 -13.952  -2.656  1.00  0.00     0.124 A 
HETATM   22  C   UNL     1      38.486 -13.430  -2.402  1.00  0.00    -0.023 A 
HETATM   23  F   UNL     1      40.212 -14.002  -3.916  1.00  0.00    -0.205 F 
HETATM   24  C   UNL     1      37.625 -12.957  -3.532  1.00  0.00     0.051 C 
HETATM   25  C   UNL     1      38.026 -13.413  -1.083  1.00  0.00     0.012 A 
HETATM   26  C   UNL     1      38.838 -13.886  -0.047  1.00  0.00     0.030 A 
ENDBRANCH  16  19
ENDBRANCH   1  15
BRANCH  12  27
HETATM   27  O   UNL     1      45.112 -21.785   5.146  1.00  0.00    -0.356 OA
HETATM   28  C   UNL     1      44.715 -22.769   4.199  1.00  0.00     0.210 C 
ENDBRANCH  12  27
TORSDOF 3
ENDMDL
MODEL 2
REMARK VINA RESULT:      -8.5      1.704      2.206
REMARK  3 active torsions:
REMARK  status: ('A' for Active; 'I' for Inactive)
REMARK    1  A    between atoms: C_6  and  N_7 
REMARK       I    between atoms: N_7  and  C_8 
REMARK    2  A    between atoms: C_8  and  C_9 
REMARK    3  A    between atoms: C_20  and  O_21 
ROOT
HETATM    1  C   UNL     1      40.513 -15.344   1.120  1.00  0.00     0.153 A 
HETATM    2  N   UNL     1      39.777 -15.032   2.214  1.00  0.00    -0.168 NA
HETATM    3  N   UNL     1      40.321 -15.774   3.203  1.00  0.00    -0.276 N 
HETATM    4  H   UNL     1      39.928 -15.699   4.134  1.00  0.00     0.189 HD
HETATM    5  C   UNL     1      41.369 -16.541   2.795  1.00  0.00     0.069 A 
HETATM    6  C   UNL     1      41.527 -16.276   1.452  1.00  0.00     0.007 A 
HETATM    7  C   UNL     1      42.577 -16.953   0.644  1.00  0.00     0.048 C 
HETATM    8  C   UNL     1      43.765 -17.387   1.535  1.00  0.00     0.044 C 
HETATM    9  C   UNL     1      43.370 -17.925   2.906  1.00  0.00    -0.043 A 
HETATM   10  C   UNL     1      42.202 -17.458   3.552  1.00  0.00    -0.001 A 
HETATM   11  C   UNL     1      44.213 -18.822   3.575  1.00  0.00     0.044 A 
HETATM   12  C   UNL     1      43.895 -19.281   4.857  1.00  0.00     0.068 A 
HETATM   13  C   UNL     1      42.736 -18.820   5.484  1.00  0.00     0.037 A 
HETATM   14  C   UNL     1      41.891 -17.908   4.836  1.00  0.00     0.017 A 
ENDROOT
BRANCH   1  15
HETATM   15  C   UNL     1      40.227 -14.751  -0.201  1.00  0.00     0.277 C 
HETATM   16  N   UNL     1      38.882 -14.472  -0.358  1.00  0.00    -0.322 N 
HETATM   17  H   UNL     1      38.326 -14.723   0.457  1.00  0.00     0.169 HD
HETATM   18  O   UNL     1      41.112 -14.549  -1.026  1.00  0.00    -0.266 OA
BRANCH  16  19
HETATM   19  C   UNL     1      38.232 -13.900  -1.464  1.00  0.00     0.037 A 
HETATM   20  C   UNL     1      37.924 -14.597  -2.631  1.00  0.00     0.072 A 
HETATM   21  C   UNL     1      37.281 -13.944  -3.682  1.00  0.00     0.124 A 
HETATM   22  C   UNL     1      36.940 -12.593  -3.605  1.00  0.00    -0.023 A 
HETATM   23  F   UNL     1      36.989 -14.640  -4.791  1.00  0.00    -0.205 F 
HETATM   24  C   UNL     1      36.224 -11.929  -4.741  1.00  0.00     0.051 C 
HETATM   25  C   UNL     1      37.233 -11.899  -2.429  1.00  0.00     0.012 A 
HETATM   26  C   UNL     1      37.878 -12.547  -1.370  1.00  0.00     0.030 A 
ENDBRANCH  16  19
ENDBRANCH   1  15
BRANCH  12  27
HETATM   27  O   UNL     1      44.796 -20.164   5.383  1.00  0.00    -0.356 OA
HETATM   28  C   UNL     1      44.857 -21.455   4.789  1.00  0.00     0.210 C 
ENDBRANCH  12  27
TORSDOF 3
ENDMDL
MODEL 3
REMARK VINA RESULT:      -8.4      2.336      2.669
REMARK  3 active torsions:
REMARK  status: ('A' for Active; 'I' for Inactive)
REMARK    1  A    between atoms: C_6  and  N_7 
REMARK       I    between atoms: N_7  and  C_8 
REMARK    2  A    between atoms: C_8  and  C_9 
REMARK    3  A    between atoms: C_20  and  O_21 
ROOT
HETATM    1  C   UNL     1      41.926 -14.595   1.786  1.00  0.00     0.153 A 
HETATM    2  N   UNL     1      41.925 -14.134   3.060  1.00  0.00    -0.168 NA
HETATM    3  N   UNL     1      42.431 -15.156   3.784  1.00  0.00    -0.276 N 
HETATM    4  H   UNL     1      42.532 -15.035   4.785  1.00  0.00     0.189 HD
HETATM    5  C   UNL     1      42.757 -16.244   3.035  1.00  0.00     0.069 A 
HETATM    6  C   UNL     1      42.453 -15.909   1.734  1.00  0.00     0.007 A 
HETATM    7  C   UNL     1      42.658 -16.868   0.615  1.00  0.00     0.048 C 
HETATM    8  C   UNL     1      43.774 -17.883   0.955  1.00  0.00     0.044 C 
HETATM    9  C   UNL     1      43.780 -18.364   2.403  1.00  0.00    -0.043 A 
HETATM   10  C   UNL     1      43.320 -17.520   3.441  1.00  0.00    -0.001 A 
HETATM   11  C   UNL     1      44.324 -19.614   2.724  1.00  0.00     0.044 A 
HETATM   12  C   UNL     1      44.389 -20.045   4.052  1.00  0.00     0.068 A 
HETATM   13  C   UNL     1      43.927 -19.208   5.069  1.00  0.00     0.037 A 
HETATM   14  C   UNL     1      43.396 -17.947   4.767  1.00  0.00     0.017 A 
ENDROOT
BRANCH   1  15
HETATM   15  C   UNL     1      41.423 -13.776   0.665  1.00  0.00     0.277 C 
HETATM   16  N   UNL     1      42.436 -13.420  -0.205  1.00  0.00    -0.322 N 
HETATM   17  H   UNL     1      43.346 -13.779   0.076  1.00  0.00     0.169 HD
HETATM   18  O   UNL     1      40.238 -13.476   0.564  1.00  0.00    -0.266 OA
BRANCH  16  19
HETATM   19  C   UNL     1      42.348 -12.659  -1.382  1.00  0.00     0.037 A 
HETATM   20  C   UNL     1      42.797 -11.343  -1.493  1.00  0.00     0.072 A 
HETATM   21  C   UNL     1      42.662 -10.663  -2.702  1.00  0.00     0.124 A 
HETATM   22  C   UNL     1      42.077 -11.262  -3.819  1.00  0.00    -0.023 A 
HETATM   23  F   UNL     1      43.110  -9.401  -2.785  1.00  0.00    -0.205 F 
HETATM   24  C   UNL     1      41.974 -10.512  -5.111  1.00  0.00     0.051 C 
HETATM   25  C   UNL     1      41.643 -12.586  -3.712  1.00  0.00     0.012 A 
HETATM   26  C   UNL     1      41.774 -13.275  -2.502  1.00  0.00     0.030 A 
ENDBRANCH  16  19
ENDBRANCH   1  15
BRANCH  12  27
HETATM   27  O   UNL     1      44.928 -21.291   4.218  1.00  0.00    -0.356 OA
HETATM   28  C   UNL     1      44.716 -21.922   5.475  1.00  0.00     0.210 C 
ENDBRANCH  12  27
TORSDOF 3
ENDMDL
MODEL 4
REMARK VINA RESULT:      -8.3      3.259      8.991
REMARK  3 active torsions:
REMARK  status: ('A' for Active; 'I' for Inactive)
REMARK    1  A    between atoms: C_6  and  N_7 
REMARK       I    between atoms: N_7  and  C_8 
REMARK    2  A    between atoms: C_8  and  C_9 
REMARK    3  A    between atoms: C_20  and  O_21 
ROOT
HETATM    1  C   UNL     1      41.905 -16.145   1.062  1.00  0.00     0.153 A 
HETATM    2  N   UNL     1      41.562 -16.344  -0.233  1.00  0.00    -0.168 NA
HETATM    3  N   UNL     1      40.552 -15.473  -0.447  1.00  0.00    -0.276 N 
HETATM    4  H   UNL     1      40.132 -15.439  -1.369  1.00  0.00     0.189 HD
HETATM    5  C   UNL     1      40.236 -14.727   0.646  1.00  0.00     0.069 A 
HETATM    6  C   UNL     1      41.102 -15.130   1.639  1.00  0.00     0.007 A 
HETATM    7  C   UNL     1      41.047 -14.545   3.005  1.00  0.00     0.048 C 
HETATM    8  C   UNL     1      40.456 -13.116   2.969  1.00  0.00     0.044 C 
HETATM    9  C   UNL     1      39.298 -12.928   1.995  1.00  0.00    -0.043 A 
HETATM   10  C   UNL     1      39.224 -13.699   0.811  1.00  0.00    -0.001 A 
HETATM   11  C   UNL     1      38.345 -11.927   2.223  1.00  0.00     0.044 A 
HETATM   12  C   UNL     1      37.311 -11.704   1.310  1.00  0.00     0.068 A 
HETATM   13  C   UNL     1      37.242 -12.474   0.147  1.00  0.00     0.037 A 
HETATM   14  C   UNL     1      38.197 -13.468  -0.105  1.00  0.00     0.017 A 
ENDROOT
BRANCH   1  15
HETATM   15  C   UNL     1      42.977 -16.928   1.709  1.00  0.00     0.277 C 
HETATM   16  N   UNL     1      42.533 -18.173   2.111  1.00  0.00    -0.322 N 
HETATM   17  H   UNL     1      41.551 -18.334   1.895  1.00  0.00     0.169 HD
HETATM   18  O   UNL     1      44.111 -16.481   1.847  1.00  0.00    -0.266 OA
BRANCH  16  19
HETATM   19  C   UNL     1      43.256 -19.195   2.747  1.00  0.00     0.037 A 
HETATM   20  C   UNL     1      43.684 -20.358   2.109  1.00  0.00     0.072 A 
HETATM   21  C   UNL     1      44.393 -21.322   2.824  1.00  0.00     0.124 A 
HETATM   22  C   UNL     1      44.684 -21.163   4.180  1.00  0.00    -0.023 A 
HETATM   23  F   UNL     1      44.802 -22.428   2.184  1.00  0.00    -0.205 F 
HETATM   24  C   UNL     1      45.473 -22.205   4.911  1.00  0.00     0.051 C 
HETATM   25  C   UNL     1      44.269 -19.989   4.815  1.00  0.00     0.012 A 
HETATM   26  C   UNL     1      43.557 -19.018   4.105  1.00  0.00     0.030 A 
ENDBRANCH  16  19
ENDBRANCH   1  15
BRANCH  12  27
HETATM   27  O   UNL     1      36.444 -10.707   1.667  1.00  0.00    -0.356 OA
HETATM   28  C   UNL     1      35.242 -10.599   0.915  1.00  0.00     0.210 C 
ENDBRANCH  12  27
TORSDOF 3
ENDMDL
MODEL 5
REMARK VINA RESULT:      -8.2      3.231      8.971
REMARK  3 active torsions:
REMARK  status: ('A' for Active; 'I' for Inactive)
REMARK    1  A    between atoms: C_6  and  N_7 
REMARK       I    between atoms: N_7  and  C_8 
REMARK    2  A    between atoms: C_8  and  C_9 
REMARK    3  A    between atoms: C_20  and  O_21 
ROOT
HETATM    1  C   UNL     1      42.007 -15.214   1.680  1.00  0.00     0.153 A 
HETATM    2  N   UNL     1      42.258 -14.065   2.351  1.00  0.00    -0.168 NA
HETATM    3  N   UNL     1      42.155 -13.101   1.411  1.00  0.00    -0.276 N 
HETATM    4  H   UNL     1      42.300 -12.137   1.689  1.00  0.00     0.189 HD
HETATM    5  C   UNL     1      41.846 -13.578   0.174  1.00  0.00     0.069 A 
HETATM    6  C   UNL     1      41.732 -14.943   0.316  1.00  0.00     0.007 A 
HETATM    7  C   UNL     1      41.418 -15.823  -0.841  1.00  0.00     0.048 C 
HETATM    8  C   UNL     1      40.634 -15.048  -1.927  1.00  0.00     0.044 C 
HETATM    9  C   UNL     1      41.097 -13.611  -2.144  1.00  0.00    -0.043 A 
HETATM   10  C   UNL     1      41.651 -12.866  -1.077  1.00  0.00    -0.001 A 
HETATM   11  C   UNL     1      40.892 -12.989  -3.382  1.00  0.00     0.044 A 
HETATM   12  C   UNL     1      41.258 -11.654  -3.580  1.00  0.00     0.068 A 
HETATM   13  C   UNL     1      41.810 -10.929  -2.522  1.00  0.00     0.037 A 
HETATM   14  C   UNL     1      42.005 -11.531  -1.272  1.00  0.00     0.017 A 
ENDROOT
BRANCH   1  15
HETATM   15  C   UNL     1      42.040 -16.528   2.353  1.00  0.00     0.277 C 
HETATM   16  N   UNL     1      43.320 -17.050   2.395  1.00  0.00    -0.322 N 
HETATM   17  H   UNL     1      44.012 -16.444   1.958  1.00  0.00     0.169 HD
HETATM   18  O   UNL     1      41.027 -17.050   2.803  1.00  0.00    -0.266 OA
BRANCH  16  19
HETATM   19  C   UNL     1      43.749 -18.263   2.957  1.00  0.00     0.037 A 
HETATM   20  C   UNL     1      43.952 -19.431   2.223  1.00  0.00     0.072 A 
HETATM   21  C   UNL     1      44.374 -20.593   2.868  1.00  0.00     0.124 A 
HETATM   22  C   UNL     1      44.595 -20.627   4.246  1.00  0.00    -0.023 A 
HETATM   23  F   UNL     1      44.571 -21.700   2.138  1.00  0.00    -0.205 F 
HETATM   24  C   UNL     1      45.075 -21.884   4.903  1.00  0.00     0.051 C 
HETATM   25  C   UNL     1      44.407 -19.452   4.979  1.00  0.00     0.012 A 
HETATM   26  C   UNL     1      43.983 -18.283   4.339  1.00  0.00     0.030 A 
ENDBRANCH  16  19
ENDBRANCH   1  15
BRANCH  12  27
HETATM   27  O   UNL     1      41.017 -11.181  -4.840  1.00  0.00    -0.356 OA
HETATM   28  C   UNL     1      42.001 -10.324  -5.406  1.00  0.00     0.210 C 
ENDBRANCH  12  27
TORSDOF 3
ENDMDL
MODEL 6
REMARK VINA RESULT:      -8.1      2.335      2.619
REMARK  3 active torsions:
REMARK  status: ('A' for Active; 'I' for Inactive)
REMARK    1  A    between atoms: C_6  and  N_7 
REMARK       I    between atoms: N_7  and  C_8 
REMARK    2  A    between atoms: C_8  and  C_9 
REMARK    3  A    between atoms: C_20  and  O_21 
ROOT
HETATM    1  C   UNL     1      42.178 -14.757   3.433  1.00  0.00     0.153 A 
HETATM    2  N   UNL     1      42.638 -14.383   4.651  1.00  0.00    -0.168 NA
HETATM    3  N   UNL     1      43.252 -15.488   5.128  1.00  0.00    -0.276 N 
HETATM    4  H   UNL     1      43.687 -15.442   6.043  1.00  0.00     0.189 HD
HETATM    5  C   UNL     1      43.209 -16.546   4.273  1.00  0.00     0.069 A 
HETATM    6  C   UNL     1      42.530 -16.102   3.160  1.00  0.00     0.007 A 
HETATM    7  C   UNL     1      42.264 -16.997   2.002  1.00  0.00     0.048 C 
HETATM    8  C   UNL     1      43.327 -18.117   1.915  1.00  0.00     0.044 C 
HETATM    9  C   UNL     1      43.759 -18.692   3.260  1.00  0.00    -0.043 A 
HETATM   10  C   UNL     1      43.749 -17.886   4.422  1.00  0.00    -0.001 A 
HETATM   11  C   UNL     1      44.256 -20.000   3.336  1.00  0.00     0.044 A 
HETATM   12  C   UNL     1      44.710 -20.522   4.550  1.00  0.00     0.068 A 
HETATM   13  C   UNL     1      44.689 -19.721   5.693  1.00  0.00     0.037 A 
HETATM   14  C   UNL     1      44.213 -18.405   5.631  1.00  0.00     0.017 A 
ENDROOT
BRANCH   1  15
HETATM   15  C   UNL     1      41.417 -13.828   2.574  1.00  0.00     0.277 C 
HETATM   16  N   UNL     1      40.053 -13.956   2.762  1.00  0.00    -0.322 N 
HETATM   17  H   UNL     1      39.811 -14.664   3.452  1.00  0.00     0.169 HD
HETATM   18  O   UNL     1      41.976 -13.055   1.804  1.00  0.00    -0.266 OA
BRANCH  16  19
HETATM   19  C   UNL     1      39.016 -13.244   2.138  1.00  0.00     0.037 A 
HETATM   20  C   UNL     1      38.712 -11.912   2.414  1.00  0.00     0.072 A 
HETATM   21  C   UNL     1      37.658 -11.288   1.748  1.00  0.00     0.124 A 
HETATM   22  C   UNL     1      36.880 -11.966   0.808  1.00  0.00    -0.023 A 
HETATM   23  F   UNL     1      37.391 -10.003   2.025  1.00  0.00    -0.205 F 
HETATM   24  C   UNL     1      35.773 -11.257   0.090  1.00  0.00     0.051 C 
HETATM   25  C   UNL     1      37.196 -13.296   0.519  1.00  0.00     0.012 A 
HETATM   26  C   UNL     1      38.252 -13.929   1.183  1.00  0.00     0.030 A 
ENDBRANCH  16  19
ENDBRANCH   1  15
BRANCH  12  27
HETATM   27  O   UNL     1      45.151 -21.815   4.482  1.00  0.00    -0.356 OA
HETATM   28  C   UNL     1      44.604 -22.630   3.453  1.00  0.00     0.210 C 
ENDBRANCH  12  27
TORSDOF 3
ENDMDL
MODEL 7
REMARK VINA RESULT:      -8.1      2.809      3.772
REMARK  3 active torsions:
REMARK  status: ('A' for Active; 'I' for Inactive)
REMARK    1  A    between atoms: C_6  and  N_7 
REMARK       I    between atoms: N_7  and  C_8 
REMARK    2  A    between atoms: C_8  and  C_9 
REMARK    3  A    between atoms: C_20  and  O_21 
ROOT
HETATM    1  C   UNL     1      41.596 -15.443   0.576  1.00  0.00     0.153 A 
HETATM    2  N   UNL     1      41.340 -16.706   0.161  1.00  0.00    -0.168 NA
HETATM    3  N   UNL     1      41.813 -17.486   1.157  1.00  0.00    -0.276 N 
HETATM    4  H   UNL     1      41.724 -18.492   1.067  1.00  0.00     0.189 HD
HETATM    5  C   UNL     1      42.355 -16.783   2.188  1.00  0.00     0.069 A 
HETATM    6  C   UNL     1      42.220 -15.455   1.848  1.00  0.00     0.007 A 
HETATM    7  C   UNL     1      42.721 -14.370   2.734  1.00  0.00     0.048 C 
HETATM    8  C   UNL     1      42.757 -14.834   4.209  1.00  0.00     0.044 C 
HETATM    9  C   UNL     1      43.209 -16.276   4.413  1.00  0.00    -0.043 A 
HETATM   10  C   UNL     1      42.957 -17.254   3.423  1.00  0.00    -0.001 A 
HETATM   11  C   UNL     1      43.798 -16.661   5.624  1.00  0.00     0.044 A 
HETATM   12  C   UNL     1      44.166 -17.991   5.849  1.00  0.00     0.068 A 
HETATM   13  C   UNL     1      43.919 -18.948   4.863  1.00  0.00     0.037 A 
HETATM   14  C   UNL     1      43.314 -18.584   3.654  1.00  0.00     0.017 A 
ENDROOT
BRANCH   1  15
HETATM   15  C   UNL     1      41.246 -14.270  -0.249  1.00  0.00     0.277 C 
HETATM   16  N   UNL     1      42.324 -13.823  -0.991  1.00  0.00    -0.322 N 
HETATM   17  H   UNL     1      43.167 -14.375  -0.840  1.00  0.00     0.169 HD
HETATM   18  O   UNL     1      40.118 -13.787  -0.243  1.00  0.00    -0.266 OA
BRANCH  16  19
HETATM   19  C   UNL     1      42.378 -12.748  -1.892  1.00  0.00     0.037 A 
HETATM   20  C   UNL     1      42.922 -11.502  -1.585  1.00  0.00     0.072 A 
HETATM   21  C   UNL     1      42.927 -10.490  -2.543  1.00  0.00     0.124 A 
HETATM   22  C   UNL     1      42.388 -10.684  -3.817  1.00  0.00    -0.023 A 
HETATM   23  F   UNL     1      43.465  -9.303  -2.225  1.00  0.00    -0.205 F 
HETATM   24  C   UNL     1      42.435  -9.584  -4.832  1.00  0.00     0.051 C 
HETATM   25  C   UNL     1      41.858 -11.938  -4.130  1.00  0.00     0.012 A 
HETATM   26  C   UNL     1      41.850 -12.958  -3.173  1.00  0.00     0.030 A 
ENDBRANCH  16  19
ENDBRANCH   1  15
BRANCH  12  27
HETATM   27  O   UNL     1      44.745 -18.221   7.066  1.00  0.00    -0.356 OA
HETATM   28  C   UNL     1      44.007 -19.006   7.994  1.00  0.00     0.210 C 
ENDBRANCH  12  27
TORSDOF 3
ENDMDL
MODEL 8
REMARK VINA RESULT:      -8.1      3.726      4.975
REMARK  3 active torsions:
REMARK  status: ('A' for Active; 'I' for Inactive)
REMARK    1  A    between atoms: C_6  and  N_7 
REMARK       I    between atoms: N_7  and  C_8 
REMARK    2  A    between atoms: C_8  and  C_9 
REMARK    3  A    between atoms: C_20  and  O_21 
ROOT
HETATM    1  C   UNL     1      42.183 -15.349   2.233  1.00  0.00     0.153 A 
HETATM    2  N   UNL     1      41.647 -15.837   1.089  1.00  0.00    -0.168 NA
HETATM    3  N   UNL     1      42.003 -17.140   1.084  1.00  0.00    -0.276 N 
HETATM    4  H   UNL     1      41.702 -17.720   0.310  1.00  0.00     0.189 HD
HETATM    5  C   UNL     1      42.736 -17.508   2.170  1.00  0.00     0.069 A 
HETATM    6  C   UNL     1      42.861 -16.373   2.941  1.00  0.00     0.007 A 
HETATM    7  C   UNL     1      43.625 -16.378   4.217  1.00  0.00     0.048 C 
HETATM    8  C   UNL     1      43.647 -17.793   4.841  1.00  0.00     0.044 C 
HETATM    9  C   UNL     1      43.801 -18.931   3.837  1.00  0.00    -0.043 A 
HETATM   10  C   UNL     1      43.296 -18.801   2.522  1.00  0.00    -0.001 A 
HETATM   11  C   UNL     1      44.365 -20.148   4.239  1.00  0.00     0.044 A 
HETATM   12  C   UNL     1      44.461 -21.220   3.346  1.00  0.00     0.068 A 
HETATM   13  C   UNL     1      43.966 -21.080   2.049  1.00  0.00     0.037 A 
HETATM   14  C   UNL     1      43.382 -19.876   1.636  1.00  0.00     0.017 A 
ENDROOT
BRANCH   1  15
HETATM   15  C   UNL     1      42.037 -13.930   2.613  1.00  0.00     0.277 C 
HETATM   16  N   UNL     1      41.120 -13.763   3.635  1.00  0.00    -0.322 N 
HETATM   17  H   UNL     1      40.706 -14.640   3.945  1.00  0.00     0.169 HD
HETATM   18  O   UNL     1      42.677 -13.043   2.058  1.00  0.00    -0.266 OA
BRANCH  16  19
HETATM   19  C   UNL     1      40.723 -12.574   4.266  1.00  0.00     0.037 A 
HETATM   20  C   UNL     1      41.492 -11.904   5.218  1.00  0.00     0.072 A 
HETATM   21  C   UNL     1      41.013 -10.730   5.797  1.00  0.00     0.124 A 
HETATM   22  C   UNL     1      39.767 -10.200   5.456  1.00  0.00    -0.023 A 
HETATM   23  F   UNL     1      41.775 -10.101   6.703  1.00  0.00    -0.205 F 
HETATM   24  C   UNL     1      39.295  -8.921   6.076  1.00  0.00     0.051 C 
HETATM   25  C   UNL     1      39.005 -10.862   4.490  1.00  0.00     0.012 A 
HETATM   26  C   UNL     1      39.478 -12.041   3.905  1.00  0.00     0.030 A 
ENDBRANCH  16  19
ENDBRANCH   1  15
BRANCH  12  27
HETATM   27  O   UNL     1      45.048 -22.340   3.867  1.00  0.00    -0.356 OA
HETATM   28  C   UNL     1      45.106 -22.439   5.284  1.00  0.00     0.210 C 
ENDBRANCH  12  27
TORSDOF 3
ENDMDL
MODEL 9
REMARK VINA RESULT:      -8.0      2.284      3.123
REMARK  3 active torsions:
REMARK  status: ('A' for Active; 'I' for Inactive)
REMARK    1  A    between atoms: C_6  and  N_7 
REMARK       I    between atoms: N_7  and  C_8 
REMARK    2  A    between atoms: C_8  and  C_9 
REMARK    3  A    between atoms: C_20  and  O_21 
ROOT
HETATM    1  C   UNL     1      41.183 -15.337   0.998  1.00  0.00     0.153 A 
HETATM    2  N   UNL     1      41.618 -15.984  -0.110  1.00  0.00    -0.168 NA
HETATM    3  N   UNL     1      42.323 -17.031   0.370  1.00  0.00    -0.276 N 
HETATM    4  H   UNL     1      42.747 -17.672  -0.291  1.00  0.00     0.189 HD
HETATM    5  C   UNL     1      42.357 -17.086   1.730  1.00  0.00     0.069 A 
HETATM    6  C   UNL     1      41.618 -16.009   2.167  1.00  0.00     0.007 A 
HETATM    7  C   UNL     1      41.443 -15.723   3.616  1.00  0.00     0.048 C 
HETATM    8  C   UNL     1      41.572 -17.018   4.454  1.00  0.00     0.044 C 
HETATM    9  C   UNL     1      42.654 -17.981   3.976  1.00  0.00    -0.043 A 
HETATM   10  C   UNL     1      43.002 -18.047   2.607  1.00  0.00    -0.001 A 
HETATM   11  C   UNL     1      43.248 -18.871   4.880  1.00  0.00     0.044 A 
HETATM   12  C   UNL     1      44.199 -19.799   4.447  1.00  0.00     0.068 A 
HETATM   13  C   UNL     1      44.541 -19.853   3.094  1.00  0.00     0.037 A 
HETATM   14  C   UNL     1      43.944 -18.982   2.174  1.00  0.00     0.017 A 
ENDROOT
BRANCH   1  15
HETATM   15  C   UNL     1      40.376 -14.104   0.910  1.00  0.00     0.277 C 
HETATM   16  N   UNL     1      39.288 -14.262   0.072  1.00  0.00    -0.322 N 
HETATM   17  H   UNL     1      39.232 -15.193  -0.337  1.00  0.00     0.169 HD
HETATM   18  O   UNL     1      40.678 -13.088   1.526  1.00  0.00    -0.266 OA
BRANCH  16  19
HETATM   19  C   UNL     1      38.294 -13.325  -0.254  1.00  0.00     0.037 A 
HETATM   20  C   UNL     1      37.392 -12.796   0.668  1.00  0.00     0.072 A 
HETATM   21  C   UNL     1      36.434 -11.873   0.252  1.00  0.00     0.124 A 
HETATM   22  C   UNL     1      36.340 -11.464  -1.080  1.00  0.00    -0.023 A 
HETATM   23  F   UNL     1      35.584 -11.372   1.160  1.00  0.00    -0.205 F 
HETATM   24  C   UNL     1      35.317 -10.449  -1.488  1.00  0.00     0.051 C 
HETATM   25  C   UNL     1      37.255 -11.982  -2.000  1.00  0.00     0.012 A 
HETATM   26  C   UNL     1      38.219 -12.908  -1.590  1.00  0.00     0.030 A 
ENDBRANCH  16  19
ENDBRANCH   1  15
BRANCH  12  27
HETATM   27  O   UNL     1      44.708 -20.594   5.437  1.00  0.00    -0.356 OA
HETATM   28  C   UNL     1      44.853 -21.978   5.143  1.00  0.00     0.210 C 
ENDBRANCH  12  27
TORSDOF 3
ENDMDL
MODEL 10
REMARK VINA RESULT:      -8.0      3.890      9.618
REMARK  3 active torsions:
REMARK  status: ('A' for Active; 'I' for Inactive)
REMARK    1  A    between atoms: C_6  and  N_7 
REMARK       I    between atoms: N_7  and  C_8 
REMARK    2  A    between atoms: C_8  and  C_9 
REMARK    3  A    between atoms: C_20  and  O_21 
ROOT
HETATM    1  C   UNL     1      41.377 -14.938  -0.904  1.00  0.00     0.153 A 
HETATM    2  N   UNL     1      40.994 -15.512  -2.070  1.00  0.00    -0.168 NA
HETATM    3  N   UNL     1      41.058 -14.508  -2.972  1.00  0.00    -0.276 N 
HETATM    4  H   UNL     1      40.816 -14.708  -3.935  1.00  0.00     0.189 HD
HETATM    5  C   UNL     1      41.466 -13.324  -2.439  1.00  0.00     0.069 A 
HETATM    6  C   UNL     1      41.692 -13.571  -1.103  1.00  0.00     0.007 A 
HETATM    7  C   UNL     1      42.136 -12.496  -0.176  1.00  0.00     0.048 C 
HETATM    8  C   UNL     1      42.901 -11.390  -0.941  1.00  0.00     0.044 C 
HETATM    9  C   UNL     1      42.326 -11.048  -2.312  1.00  0.00    -0.043 A 
HETATM   10  C   UNL     1      41.658 -12.033  -3.076  1.00  0.00    -0.001 A 
HETATM   11  C   UNL     1      42.535  -9.776  -2.862  1.00  0.00     0.044 A 
HETATM   12  C   UNL     1      42.064  -9.465  -4.141  1.00  0.00     0.068 A 
HETATM   13  C   UNL     1      41.400 -10.442  -4.885  1.00  0.00     0.037 A 
HETATM   14  C   UNL     1      41.199 -11.724  -4.357  1.00  0.00     0.017 A 
ENDROOT
BRANCH   1  15
HETATM   15  C   UNL     1      41.425 -15.704   0.357  1.00  0.00     0.277 C 
HETATM   16  N   UNL     1      42.659 -16.297   0.550  1.00  0.00    -0.322 N 
HETATM   17  H   UNL     1      43.315 -16.106  -0.205  1.00  0.00     0.169 HD
HETATM   18  O   UNL     1      40.459 -15.775   1.109  1.00  0.00    -0.266 OA
BRANCH  16  19
HETATM   19  C   UNL     1      43.088 -17.090   1.626  1.00  0.00     0.037 A 
HETATM   20  C   UNL     1      43.258 -16.612   2.925  1.00  0.00     0.072 A 
HETATM   21  C   UNL     1      43.694 -17.473   3.931  1.00  0.00     0.124 A 
HETATM   22  C   UNL     1      43.979 -18.815   3.675  1.00  0.00    -0.023 A 
HETATM   23  F   UNL     1      43.842 -16.989   5.174  1.00  0.00    -0.205 F 
HETATM   24  C   UNL     1      44.418 -19.719   4.785  1.00  0.00     0.051 C 
HETATM   25  C   UNL     1      43.792 -19.298   2.377  1.00  0.00     0.012 A 
HETATM   26  C   UNL     1      43.355 -18.441   1.362  1.00  0.00     0.030 A 
ENDBRANCH  16  19
ENDBRANCH   1  15
BRANCH  12  27
HETATM   27  O   UNL     1      42.323  -8.185  -4.544  1.00  0.00    -0.356 OA
HETATM   28  C   UNL     1      42.787  -7.277  -3.553  1.00  0.00     0.210 C 
ENDBRANCH  12  27
TORSDOF 3
ENDMDL
