MODEL 1
REMARK VINA RESULT:      -7.5      0.000      0.000
REMARK  3 active torsions:
REMARK  status: ('A' for Active; 'I' for Inactive)
REMARK    1  A    between atoms: C_7  and  C_8 
REMARK       I    between atoms: C_8  and  N_9 
REMARK    2  A    between atoms: N_9  and  C_10 
REMARK    3  A    between atoms: C_13  and  C_14 
REMARK       I    between atoms: C_14  and  N_15 
ROOT
HETATM    1  C   UNL     1      41.844 -17.253   1.695  1.00  0.00     0.256 C 
HETATM    2  N   UNL     1      42.447 -16.365   0.821  1.00  0.00    -0.322 N 
HETATM    3  O   UNL     1      40.646 -17.288   1.953  1.00  0.00    -0.267 OA
HETATM    4  H   UNL     1      43.455 -16.362   0.764  1.00  0.00     0.169 HD
ENDROOT
BRANCH   2   5
HETATM    5  C   UNL     1      41.789 -15.416   0.006  1.00  0.00     0.052 A 
HETATM    6  C   UNL     1      41.637 -14.062   0.307  1.00  0.00     0.147 A 
HETATM    7  N   UNL     1      40.985 -13.169  -0.482  1.00  0.00    -0.253 NA
HETATM    8  C   UNL     1      40.452 -13.657  -1.635  1.00  0.00     0.124 A 
HETATM    9  C   UNL     1      40.549 -14.984  -2.028  1.00  0.00     0.039 A 
HETATM   10  C   UNL     1      41.231 -15.870  -1.193  1.00  0.00     0.033 A 
BRANCH   8  11
HETATM   11  C   UNL     1      39.723 -12.675  -2.498  1.00  0.00     0.268 C 
HETATM   12  N   UNL     1      39.605 -13.031  -3.814  1.00  0.00    -0.365 N 
HETATM   13  H   UNL     1      40.007 -13.908  -4.128  1.00  0.00     0.159 HD
HETATM   14  H   UNL     1      39.130 -12.420  -4.461  1.00  0.00     0.159 HD
HETATM   15  O   UNL     1      39.261 -11.628  -2.064  1.00  0.00    -0.266 OA
ENDBRANCH   8  11
ENDBRANCH   2   5
BRANCH   1  16
HETATM   16  C   UNL     1      42.745 -18.230   2.383  1.00  0.00     0.034 A 
HETATM   17  C   UNL     1      43.407 -17.939   3.581  1.00  0.00     0.041 A 
HETATM   18  C   UNL     1      44.244 -18.896   4.156  1.00  0.00     0.035 A 
HETATM   19  C   UNL     1      44.449 -20.133   3.544  1.00  0.00     0.030 A 
HETATM   20 CL   UNL     1      45.041 -18.540   5.640  1.00  0.00    -0.084 Cl
HETATM   21  C   UNL     1      43.824 -20.423   2.328  1.00  0.00    -0.059 A 
HETATM   22  C   UNL     1      44.034 -21.746   1.652  1.00  0.00     0.048 C 
HETATM   23  C   UNL     1      42.962 -19.473   1.762  1.00  0.00     0.024 A 
ENDBRANCH   1  16
TORSDOF 3
ENDMDL
MODEL 2
REMARK VINA RESULT:      -7.3      1.249      1.974
REMARK  3 active torsions:
REMARK  status: ('A' for Active; 'I' for Inactive)
REMARK    1  A    between atoms: C_7  and  C_8 
REMARK       I    between atoms: C_8  and  N_9 
REMARK    2  A    between atoms: N_9  and  C_10 
REMARK    3  A    between atoms: C_13  and  C_14 
REMARK       I    between atoms: C_14  and  N_15 
ROOT
HETATM    1  C   UNL     1      41.829 -17.257   1.583  1.00  0.00     0.256 C 
HETATM    2  N   UNL     1      42.409 -16.388   0.675  1.00  0.00    -0.322 N 
HETATM    3  O   UNL     1      40.647 -17.255   1.908  1.00  0.00    -0.267 OA
HETATM    4  H   UNL     1      43.412 -16.417   0.561  1.00  0.00     0.169 HD
ENDROOT
BRANCH   2   5
HETATM    5  C   UNL     1      41.736 -15.418  -0.102  1.00  0.00     0.052 A 
HETATM    6  C   UNL     1      41.589 -14.073   0.238  1.00  0.00     0.147 A 
HETATM    7  N   UNL     1      40.922 -13.160  -0.516  1.00  0.00    -0.253 NA
HETATM    8  C   UNL     1      40.369 -13.617  -1.671  1.00  0.00     0.124 A 
HETATM    9  C   UNL     1      40.459 -14.933  -2.101  1.00  0.00     0.039 A 
HETATM   10  C   UNL     1      41.156 -15.841  -1.303  1.00  0.00     0.033 A 
BRANCH   8  11
HETATM   11  C   UNL     1      39.624 -12.614  -2.494  1.00  0.00     0.268 C 
HETATM   12  N   UNL     1      39.647 -12.834  -3.845  1.00  0.00    -0.365 N 
HETATM   13  H   UNL     1      40.154 -13.635  -4.207  1.00  0.00     0.159 HD
HETATM   14  H   UNL     1      39.171 -12.200  -4.468  1.00  0.00     0.159 HD
HETATM   15  O   UNL     1      39.032 -11.662  -2.001  1.00  0.00    -0.266 OA
ENDBRANCH   8  11
ENDBRANCH   2   5
BRANCH   1  16
HETATM   16  C   UNL     1      42.736 -18.263   2.219  1.00  0.00     0.034 A 
HETATM   17  C   UNL     1      43.010 -19.509   1.646  1.00  0.00     0.041 A 
HETATM   18  C   UNL     1      43.855 -20.402   2.307  1.00  0.00     0.035 A 
HETATM   19  C   UNL     1      44.415 -20.080   3.543  1.00  0.00     0.030 A 
HETATM   20 CL   UNL     1      44.203 -21.927   1.587  1.00  0.00    -0.084 Cl
HETATM   21  C   UNL     1      44.121 -18.854   4.146  1.00  0.00    -0.059 A 
HETATM   22  C   UNL     1      44.711 -18.490   5.477  1.00  0.00     0.048 C 
HETATM   23  C   UNL     1      43.293 -17.946   3.471  1.00  0.00     0.024 A 
ENDBRANCH   1  16
TORSDOF 3
ENDMDL
MODEL 3
REMARK VINA RESULT:      -7.2      2.680      3.011
REMARK  3 active torsions:
REMARK  status: ('A' for Active; 'I' for Inactive)
REMARK    1  A    between atoms: C_7  and  C_8 
REMARK       I    between atoms: C_8  and  N_9 
REMARK    2  A    between atoms: N_9  and  C_10 
REMARK    3  A    between atoms: C_13  and  C_14 
REMARK       I    between atoms: C_14  and  N_15 
ROOT
HETATM    1  C   UNL     1      42.017 -17.128   2.051  1.00  0.00     0.256 C 
HETATM    2  N   UNL     1      41.164 -16.449   2.904  1.00  0.00    -0.322 N 
HETATM    3  O   UNL     1      42.106 -16.940   0.843  1.00  0.00    -0.267 OA
HETATM    4  H   UNL     1      41.103 -16.759   3.864  1.00  0.00     0.169 HD
ENDROOT
BRANCH   2   5
HETATM    5  C   UNL     1      40.325 -15.365   2.560  1.00  0.00     0.052 A 
HETATM    6  C   UNL     1      39.150 -15.461   1.815  1.00  0.00     0.147 A 
HETATM    7  N   UNL     1      38.366 -14.403   1.480  1.00  0.00    -0.253 NA
HETATM    8  C   UNL     1      38.781 -13.181   1.910  1.00  0.00     0.124 A 
HETATM    9  C   UNL     1      39.932 -12.978   2.658  1.00  0.00     0.039 A 
HETATM   10  C   UNL     1      40.709 -14.089   2.987  1.00  0.00     0.033 A 
BRANCH   8  11
HETATM   11  C   UNL     1      37.924 -12.015   1.530  1.00  0.00     0.268 C 
HETATM   12  N   UNL     1      37.684 -11.115   2.533  1.00  0.00    -0.365 N 
HETATM   13  H   UNL     1      38.082 -11.280   3.452  1.00  0.00     0.159 HD
HETATM   14  H   UNL     1      37.112 -10.304   2.356  1.00  0.00     0.159 HD
HETATM   15  O   UNL     1      37.467 -11.869   0.403  1.00  0.00    -0.266 OA
ENDBRANCH   8  11
ENDBRANCH   2   5
BRANCH   1  16
HETATM   16  C   UNL     1      42.879 -18.184   2.668  1.00  0.00     0.034 A 
HETATM   17  C   UNL     1      43.553 -18.001   3.880  1.00  0.00     0.041 A 
HETATM   18  C   UNL     1      44.353 -19.028   4.387  1.00  0.00     0.035 A 
HETATM   19  C   UNL     1      44.508 -20.227   3.692  1.00  0.00     0.030 A 
HETATM   20 CL   UNL     1      45.165 -18.804   5.888  1.00  0.00    -0.084 Cl
HETATM   21  C   UNL     1      43.871 -20.410   2.462  1.00  0.00    -0.059 A 
HETATM   22  C   UNL     1      44.027 -21.691   1.696  1.00  0.00     0.048 C 
HETATM   23  C   UNL     1      43.046 -19.390   1.964  1.00  0.00     0.024 A 
ENDBRANCH   1  16
TORSDOF 3
ENDMDL
MODEL 4
REMARK VINA RESULT:      -7.2      2.966      3.618
REMARK  3 active torsions:
REMARK  status: ('A' for Active; 'I' for Inactive)
REMARK    1  A    between atoms: C_7  and  C_8 
REMARK       I    between atoms: C_8  and  N_9 
REMARK    2  A    between atoms: N_9  and  C_10 
REMARK    3  A    between atoms: C_13  and  C_14 
REMARK       I    between atoms: C_14  and  N_15 
ROOT
HETATM    1  C   UNL     1      42.007 -17.307   1.984  1.00  0.00     0.256 C 
HETATM    2  N   UNL     1      41.308 -16.537   2.898  1.00  0.00    -0.322 N 
HETATM    3  O   UNL     1      41.932 -17.201   0.765  1.00  0.00    -0.267 OA
HETATM    4  H   UNL     1      41.372 -16.781   3.875  1.00  0.00     0.169 HD
ENDROOT
BRANCH   2   5
HETATM    5  C   UNL     1      40.467 -15.441   2.598  1.00  0.00     0.052 A 
HETATM    6  C   UNL     1      39.285 -15.510   1.861  1.00  0.00     0.147 A 
HETATM    7  N   UNL     1      38.500 -14.440   1.568  1.00  0.00    -0.253 NA
HETATM    8  C   UNL     1      38.921 -13.235   2.036  1.00  0.00     0.124 A 
HETATM    9  C   UNL     1      40.079 -13.058   2.779  1.00  0.00     0.039 A 
HETATM   10  C   UNL     1      40.857 -14.181   3.064  1.00  0.00     0.033 A 
BRANCH   8  11
HETATM   11  C   UNL     1      38.062 -12.055   1.703  1.00  0.00     0.268 C 
HETATM   12  N   UNL     1      37.812 -11.203   2.744  1.00  0.00    -0.365 N 
HETATM   13  H   UNL     1      38.204 -11.409   3.657  1.00  0.00     0.159 HD
HETATM   14  H   UNL     1      37.238 -10.386   2.601  1.00  0.00     0.159 HD
HETATM   15  O   UNL     1      37.613 -11.860   0.580  1.00  0.00    -0.266 OA
ENDBRANCH   8  11
ENDBRANCH   2   5
BRANCH   1  16
HETATM   16  C   UNL     1      42.910 -18.358   2.549  1.00  0.00     0.034 A 
HETATM   17  C   UNL     1      43.195 -19.553   1.879  1.00  0.00     0.041 A 
HETATM   18  C   UNL     1      44.036 -20.495   2.476  1.00  0.00     0.035 A 
HETATM   19  C   UNL     1      44.579 -20.273   3.741  1.00  0.00     0.030 A 
HETATM   20 CL   UNL     1      44.398 -21.955   1.639  1.00  0.00    -0.084 Cl
HETATM   21  C   UNL     1      44.273 -19.101   4.438  1.00  0.00    -0.059 A 
HETATM   22  C   UNL     1      44.845 -18.845   5.802  1.00  0.00     0.048 C 
HETATM   23  C   UNL     1      43.450 -18.143   3.829  1.00  0.00     0.024 A 
ENDBRANCH   1  16
TORSDOF 3
ENDMDL
MODEL 5
REMARK VINA RESULT:      -7.1      2.228      2.888
REMARK  3 active torsions:
REMARK  status: ('A' for Active; 'I' for Inactive)
REMARK    1  A    between atoms: C_7  and  C_8 
REMARK       I    between atoms: C_8  and  N_9 
REMARK    2  A    between atoms: N_9  and  C_10 
REMARK    3  A    between atoms: C_13  and  C_14 
REMARK       I    between atoms: C_14  and  N_15 
ROOT
HETATM    1  C   UNL     1      42.801 -16.953   2.255  1.00  0.00     0.256 C 
HETATM    2  N   UNL     1      41.557 -17.100   1.666  1.00  0.00    -0.322 N 
HETATM    3  O   UNL     1      43.426 -15.901   2.333  1.00  0.00    -0.267 OA
HETATM    4  H   UNL     1      41.183 -18.033   1.568  1.00  0.00     0.169 HD
ENDROOT
BRANCH   2   5
HETATM    5  C   UNL     1      40.751 -16.064   1.142  1.00  0.00     0.052 A 
HETATM    6  C   UNL     1      40.971 -15.404  -0.067  1.00  0.00     0.147 A 
HETATM    7  N   UNL     1      40.193 -14.397  -0.543  1.00  0.00    -0.253 NA
HETATM    8  C   UNL     1      39.139 -14.026   0.233  1.00  0.00     0.124 A 
HETATM    9  C   UNL     1      38.833 -14.619   1.449  1.00  0.00     0.039 A 
HETATM   10  C   UNL     1      39.651 -15.653   1.903  1.00  0.00     0.033 A 
BRANCH   8  11
HETATM   11  C   UNL     1      38.291 -12.908  -0.287  1.00  0.00     0.268 C 
HETATM   12  N   UNL     1      37.322 -12.464   0.571  1.00  0.00    -0.365 N 
HETATM   13  H   UNL     1      37.227 -12.902   1.481  1.00  0.00     0.159 HD
HETATM   14  H   UNL     1      36.706 -11.715   0.292  1.00  0.00     0.159 HD
HETATM   15  O   UNL     1      38.448 -12.420  -1.399  1.00  0.00    -0.266 OA
ENDBRANCH   8  11
ENDBRANCH   2   5
BRANCH   1  16
HETATM   16  C   UNL     1      43.423 -18.190   2.821  1.00  0.00     0.034 A 
HETATM   17  C   UNL     1      43.614 -19.355   2.071  1.00  0.00     0.041 A 
HETATM   18  C   UNL     1      44.188 -20.477   2.672  1.00  0.00     0.035 A 
HETATM   19  C   UNL     1      44.556 -20.462   4.017  1.00  0.00     0.030 A 
HETATM   20 CL   UNL     1      44.438 -21.902   1.738  1.00  0.00    -0.084 Cl
HETATM   21  C   UNL     1      44.336 -19.318   4.789  1.00  0.00    -0.059 A 
HETATM   22  C   UNL     1      44.721 -19.282   6.239  1.00  0.00     0.048 C 
HETATM   23  C   UNL     1      43.784 -18.182   4.180  1.00  0.00     0.024 A 
ENDBRANCH   1  16
TORSDOF 3
ENDMDL
MODEL 6
REMARK VINA RESULT:      -7.1      1.538      1.566
REMARK  3 active torsions:
REMARK  status: ('A' for Active; 'I' for Inactive)
REMARK    1  A    between atoms: C_7  and  C_8 
REMARK       I    between atoms: C_8  and  N_9 
REMARK    2  A    between atoms: N_9  and  C_10 
REMARK    3  A    between atoms: C_13  and  C_14 
REMARK       I    between atoms: C_14  and  N_15 
ROOT
HETATM    1  C   UNL     1      42.998 -17.101   2.113  1.00  0.00     0.256 C 
HETATM    2  N   UNL     1      41.782 -17.196   1.459  1.00  0.00    -0.322 N 
HETATM    3  O   UNL     1      43.705 -16.100   2.151  1.00  0.00    -0.267 OA
HETATM    4  H   UNL     1      41.336 -18.100   1.410  1.00  0.00     0.169 HD
ENDROOT
BRANCH   2   5
HETATM    5  C   UNL     1      41.098 -16.144   0.806  1.00  0.00     0.052 A 
HETATM    6  C   UNL     1      40.130 -15.328   1.390  1.00  0.00     0.147 A 
HETATM    7  N   UNL     1      39.471 -14.334   0.739  1.00  0.00    -0.253 NA
HETATM    8  C   UNL     1      39.796 -14.148  -0.569  1.00  0.00     0.124 A 
HETATM    9  C   UNL     1      40.745 -14.903  -1.242  1.00  0.00     0.039 A 
HETATM   10  C   UNL     1      41.404 -15.912  -0.539  1.00  0.00     0.033 A 
BRANCH   8  11
HETATM   11  C   UNL     1      39.060 -13.060  -1.288  1.00  0.00     0.268 C 
HETATM   12  N   UNL     1      37.750 -12.903  -0.925  1.00  0.00    -0.365 N 
HETATM   13  H   UNL     1      37.356 -13.512  -0.215  1.00  0.00     0.159 HD
HETATM   14  H   UNL     1      37.186 -12.194  -1.367  1.00  0.00     0.159 HD
HETATM   15  O   UNL     1      39.588 -12.357  -2.140  1.00  0.00    -0.266 OA
ENDBRANCH   8  11
ENDBRANCH   2   5
BRANCH   1  16
HETATM   16  C   UNL     1      43.479 -18.333   2.812  1.00  0.00     0.034 A 
HETATM   17  C   UNL     1      43.747 -18.372   4.184  1.00  0.00     0.041 A 
HETATM   18  C   UNL     1      44.209 -19.556   4.764  1.00  0.00     0.035 A 
HETATM   19  C   UNL     1      44.428 -20.696   3.992  1.00  0.00     0.030 A 
HETATM   20 CL   UNL     1      44.518 -19.603   6.457  1.00  0.00    -0.084 Cl
HETATM   21  C   UNL     1      44.202 -20.661   2.613  1.00  0.00    -0.059 A 
HETATM   22  C   UNL     1      44.435 -21.876   1.763  1.00  0.00     0.048 C 
HETATM   23  C   UNL     1      43.713 -19.481   2.034  1.00  0.00     0.024 A 
ENDBRANCH   1  16
TORSDOF 3
ENDMDL
MODEL 7
REMARK VINA RESULT:      -6.6      3.486      7.814
REMARK  3 active torsions:
REMARK  status: ('A' for Active; 'I' for Inactive)
REMARK    1  A    between atoms: C_7  and  C_8 
REMARK       I    between atoms: C_8  and  N_9 
REMARK    2  A    between atoms: N_9  and  C_10 
REMARK    3  A    between atoms: C_13  and  C_14 
REMARK       I    between atoms: C_14  and  N_15 
ROOT
HETATM    1  C   UNL     1      41.594 -15.706   0.267  1.00  0.00     0.256 C 
HETATM    2  N   UNL     1      42.605 -16.650   0.321  1.00  0.00    -0.322 N 
HETATM    3  O   UNL     1      40.878 -15.382   1.208  1.00  0.00    -0.267 OA
HETATM    4  H   UNL     1      43.062 -16.909  -0.541  1.00  0.00     0.169 HD
ENDROOT
BRANCH   2   5
HETATM    5  C   UNL     1      43.053 -17.330   1.476  1.00  0.00     0.052 A 
HETATM    6  C   UNL     1      43.472 -16.721   2.659  1.00  0.00     0.147 A 
HETATM    7  N   UNL     1      43.917 -17.394   3.752  1.00  0.00    -0.253 NA
HETATM    8  C   UNL     1      43.949 -18.750   3.656  1.00  0.00     0.124 A 
HETATM    9  C   UNL     1      43.554 -19.453   2.527  1.00  0.00     0.039 A 
HETATM   10  C   UNL     1      43.098 -18.728   1.426  1.00  0.00     0.033 A 
BRANCH   8  11
HETATM   11  C   UNL     1      44.452 -19.490   4.857  1.00  0.00     0.268 C 
HETATM   12  N   UNL     1      45.234 -20.580   4.585  1.00  0.00    -0.365 N 
HETATM   13  H   UNL     1      45.422 -20.826   3.619  1.00  0.00     0.159 HD
HETATM   14  H   UNL     1      45.608 -21.133   5.341  1.00  0.00     0.159 HD
HETATM   15  O   UNL     1      44.188 -19.149   6.003  1.00  0.00    -0.266 OA
ENDBRANCH   8  11
ENDBRANCH   2   5
BRANCH   1  16
HETATM   16  C   UNL     1      41.360 -15.052  -1.058  1.00  0.00     0.034 A 
HETATM   17  C   UNL     1      41.903 -13.808  -1.398  1.00  0.00     0.041 A 
HETATM   18  C   UNL     1      41.628 -13.253  -2.648  1.00  0.00     0.035 A 
HETATM   19  C   UNL     1      40.800 -13.909  -3.559  1.00  0.00     0.030 A 
HETATM   20 CL   UNL     1      42.316 -11.732  -3.067  1.00  0.00    -0.084 Cl
HETATM   21  C   UNL     1      40.219 -15.134  -3.220  1.00  0.00    -0.059 A 
HETATM   22  C   UNL     1      39.323 -15.855  -4.184  1.00  0.00     0.048 C 
HETATM   23  C   UNL     1      40.516 -15.705  -1.974  1.00  0.00     0.024 A 
ENDBRANCH   1  16
TORSDOF 3
ENDMDL
MODEL 8
REMARK VINA RESULT:      -6.6      3.613      8.064
REMARK  3 active torsions:
REMARK  status: ('A' for Active; 'I' for Inactive)
REMARK    1  A    between atoms: C_7  and  C_8 
REMARK       I    between atoms: C_8  and  N_9 
REMARK    2  A    between atoms: N_9  and  C_10 
REMARK    3  A    between atoms: C_13  and  C_14 
REMARK       I    between atoms: C_14  and  N_15 
ROOT
HETATM    1  C   UNL     1      41.521 -16.329   0.572  1.00  0.00     0.256 C 
HETATM    2  N   UNL     1      42.781 -16.881   0.716  1.00  0.00    -0.322 N 
HETATM    3  O   UNL     1      40.577 -16.509   1.334  1.00  0.00    -0.267 OA
HETATM    4  H   UNL     1      43.450 -16.745  -0.028  1.00  0.00     0.169 HD
ENDROOT
BRANCH   2   5
HETATM    5  C   UNL     1      43.232 -17.664   1.804  1.00  0.00     0.052 A 
HETATM    6  C   UNL     1      43.556 -17.174   3.069  1.00  0.00     0.147 A 
HETATM    7  N   UNL     1      44.005 -17.942   4.096  1.00  0.00    -0.253 NA
HETATM    8  C   UNL     1      44.142 -19.271   3.844  1.00  0.00     0.124 A 
HETATM    9  C   UNL     1      43.847 -19.858   2.622  1.00  0.00     0.039 A 
HETATM   10  C   UNL     1      43.383 -19.038   1.593  1.00  0.00     0.033 A 
BRANCH   8  11
HETATM   11  C   UNL     1      44.650 -20.114   4.972  1.00  0.00     0.268 C 
HETATM   12  N   UNL     1      44.394 -19.625   6.225  1.00  0.00    -0.365 N 
HETATM   13  H   UNL     1      43.897 -18.746   6.322  1.00  0.00     0.159 HD
HETATM   14  H   UNL     1      44.707 -20.134   7.038  1.00  0.00     0.159 HD
HETATM   15  O   UNL     1      45.249 -21.166   4.794  1.00  0.00    -0.266 OA
ENDBRANCH   8  11
ENDBRANCH   2   5
BRANCH   1  16
HETATM   16  C   UNL     1      41.306 -15.457  -0.626  1.00  0.00     0.034 A 
HETATM   17  C   UNL     1      40.560 -15.863  -1.737  1.00  0.00     0.041 A 
HETATM   18  C   UNL     1      40.416 -15.001  -2.825  1.00  0.00     0.035 A 
HETATM   19  C   UNL     1      41.023 -13.745  -2.831  1.00  0.00     0.030 A 
HETATM   20 CL   UNL     1      39.480 -15.499  -4.181  1.00  0.00    -0.084 Cl
HETATM   21  C   UNL     1      41.803 -13.340  -1.745  1.00  0.00    -0.059 A 
HETATM   22  C   UNL     1      42.469 -11.995  -1.733  1.00  0.00     0.048 C 
HETATM   23  C   UNL     1      41.927 -14.195  -0.640  1.00  0.00     0.024 A 
ENDBRANCH   1  16
TORSDOF 3
ENDMDL
MODEL 9
REMARK VINA RESULT:      -6.5      5.349      8.028
REMARK  3 active torsions:
REMARK  status: ('A' for Active; 'I' for Inactive)
REMARK    1  A    between atoms: C_7  and  C_8 
REMARK       I    between atoms: C_8  and  N_9 
REMARK    2  A    between atoms: N_9  and  C_10 
REMARK    3  A    between atoms: C_13  and  C_14 
REMARK       I    between atoms: C_14  and  N_15 
ROOT
HETATM    1  C   UNL     1      42.576 -16.285   4.997  1.00  0.00     0.256 C 
HETATM    2  N   UNL     1      43.769 -16.900   4.659  1.00  0.00    -0.322 N 
HETATM    3  O   UNL     1      41.459 -16.756   4.809  1.00  0.00    -0.267 OA
HETATM    4  H   UNL     1      44.624 -16.374   4.768  1.00  0.00     0.169 HD
ENDROOT
BRANCH   2   5
HETATM    5  C   UNL     1      43.919 -18.204   4.133  1.00  0.00     0.052 A 
HETATM    6  C   UNL     1      44.383 -19.310   4.844  1.00  0.00     0.147 A 
HETATM    7  N   UNL     1      44.537 -20.552   4.314  1.00  0.00    -0.253 NA
HETATM    8  C   UNL     1      44.214 -20.694   3.000  1.00  0.00     0.124 A 
HETATM    9  C   UNL     1      43.743 -19.659   2.206  1.00  0.00     0.039 A 
HETATM   10  C   UNL     1      43.592 -18.399   2.787  1.00  0.00     0.033 A 
BRANCH   8  11
HETATM   11  C   UNL     1      44.396 -22.060   2.415  1.00  0.00     0.268 C 
HETATM   12  N   UNL     1      44.104 -22.166   1.082  1.00  0.00    -0.365 N 
HETATM   13  H   UNL     1      43.787 -21.345   0.577  1.00  0.00     0.159 HD
HETATM   14  H   UNL     1      44.199 -23.054   0.614  1.00  0.00     0.159 HD
HETATM   15  O   UNL     1      44.780 -23.017   3.075  1.00  0.00    -0.266 OA
ENDBRANCH   8  11
ENDBRANCH   2   5
BRANCH   1  16
HETATM   16  C   UNL     1      42.676 -14.931   5.626  1.00  0.00     0.034 A 
HETATM   17  C   UNL     1      41.753 -13.909   5.379  1.00  0.00     0.041 A 
HETATM   18  C   UNL     1      41.921 -12.666   5.990  1.00  0.00     0.035 A 
HETATM   19  C   UNL     1      43.007 -12.418   6.829  1.00  0.00     0.030 A 
HETATM   20 CL   UNL     1      40.771 -11.418   5.697  1.00  0.00    -0.084 Cl
HETATM   21  C   UNL     1      43.958 -13.417   7.055  1.00  0.00    -0.059 A 
HETATM   22  C   UNL     1      45.136 -13.170   7.951  1.00  0.00     0.048 C 
HETATM   23  C   UNL     1      43.777 -14.675   6.462  1.00  0.00     0.024 A 
ENDBRANCH   1  16
TORSDOF 3
ENDMDL
MODEL 10
REMARK VINA RESULT:      -6.5      3.941      8.007
REMARK  3 active torsions:
REMARK  status: ('A' for Active; 'I' for Inactive)
REMARK    1  A    between atoms: C_7  and  C_8 
REMARK       I    between atoms: C_8  and  N_9 
REMARK    2  A    between atoms: N_9  and  C_10 
REMARK    3  A    between atoms: C_13  and  C_14 
REMARK       I    between atoms: C_14  and  N_15 
ROOT
HETATM    1  C   UNL     1      41.945 -16.315   3.265  1.00  0.00     0.256 C 
HETATM    2  N   UNL     1      43.230 -16.826   3.217  1.00  0.00    -0.322 N 
HETATM    3  O   UNL     1      40.920 -16.983   3.344  1.00  0.00    -0.267 OA
HETATM    4  H   UNL     1      43.992 -16.186   3.049  1.00  0.00     0.169 HD
ENDROOT
BRANCH   2   5
HETATM    5  C   UNL     1      43.595 -18.186   3.346  1.00  0.00     0.052 A 
HETATM    6  C   UNL     1      44.033 -18.794   4.521  1.00  0.00     0.147 A 
HETATM    7  N   UNL     1      44.397 -20.100   4.620  1.00  0.00    -0.253 NA
HETATM    8  C   UNL     1      44.321 -20.837   3.479  1.00  0.00     0.124 A 
HETATM    9  C   UNL     1      43.897 -20.329   2.260  1.00  0.00     0.039 A 
HETATM   10  C   UNL     1      43.527 -18.985   2.200  1.00  0.00     0.033 A 
BRANCH   8  11
HETATM   11  C   UNL     1      44.734 -22.272   3.586  1.00  0.00     0.268 C 
HETATM   12  N   UNL     1      45.015 -22.705   4.853  1.00  0.00    -0.365 N 
HETATM   13  H   UNL     1      44.937 -22.054   5.628  1.00  0.00     0.159 HD
HETATM   14  H   UNL     1      45.304 -23.659   5.008  1.00  0.00     0.159 HD
HETATM   15  O   UNL     1      44.814 -23.011   2.613  1.00  0.00    -0.266 OA
ENDBRANCH   8  11
ENDBRANCH   2   5
BRANCH   1  16
HETATM   16  C   UNL     1      41.815 -14.825   3.198  1.00  0.00     0.034 A 
HETATM   17  C   UNL     1      41.498 -14.040   4.311  1.00  0.00     0.041 A 
HETATM   18  C   UNL     1      41.378 -12.656   4.167  1.00  0.00     0.035 A 
HETATM   19  C   UNL     1      41.550 -12.045   2.926  1.00  0.00     0.030 A 
HETATM   20 CL   UNL     1      41.006 -11.693   5.545  1.00  0.00    -0.084 Cl
HETATM   21  C   UNL     1      41.830 -12.821   1.797  1.00  0.00    -0.059 A 
HETATM   22  C   UNL     1      42.014 -12.183   0.451  1.00  0.00     0.048 C 
HETATM   23  C   UNL     1      41.976 -14.208   1.945  1.00  0.00     0.024 A 
ENDBRANCH   1  16
TORSDOF 3
ENDMDL
