MODEL 1
REMARK VINA RESULT:      -8.8      0.000      0.000
REMARK  5 active torsions:
REMARK  status: ('A' for Active; 'I' for Inactive)
REMARK    1  A    between atoms: C_2  and  C_3 
REMARK    2  A    between atoms: C_3  and  O_4 
REMARK    3  A    between atoms: O_4  and  C_5 
REMARK    4  A    between atoms: C_8  and  C_9 
REMARK    5  A    between atoms: C_15  and  C_16 
ROOT
HETATM    1  C   UNL     1      41.377 -17.361   3.570  1.00  0.00     0.066 C 
HETATM    2  C   UNL     1      42.215 -17.445   2.345  1.00  0.00     0.028 A 
HETATM    3  C   UNL     1      42.115 -16.545   1.315  1.00  0.00     0.133 A 
HETATM    4  N   UNL     1      43.053 -16.885   0.394  1.00  0.00    -0.261 N 
HETATM    5  H   UNL     1      43.278 -16.437  -0.488  1.00  0.00     0.191 HD
HETATM    6  N   UNL     1      43.748 -17.977   0.743  1.00  0.00    -0.172 NA
HETATM    7  C   UNL     1      43.246 -18.345   1.936  1.00  0.00     0.098 A 
HETATM    8  N   UNL     1      41.228 -15.499   1.329  1.00  0.00    -0.312 N 
HETATM    9  C   UNL     1      40.270 -15.395   2.387  1.00  0.00     0.224 C 
HETATM   10  O   UNL     1      39.570 -14.396   2.373  1.00  0.00    -0.273 OA
HETATM   11  C   UNL     1      40.095 -16.557   3.333  1.00  0.00     0.117 C 
HETATM   12  H   UNL     1      41.230 -14.770   0.626  1.00  0.00     0.170 HD
ENDROOT
BRANCH   1  13
HETATM   13  C   UNL     1      42.242 -16.769   4.673  1.00  0.00    -0.049 A 
HETATM   14  C   UNL     1      43.090 -15.665   4.480  1.00  0.00     0.010 A 
HETATM   15  C   UNL     1      43.782 -15.101   5.554  1.00  0.00     0.037 A 
HETATM   16  C   UNL     1      43.627 -15.608   6.840  1.00  0.00     0.069 A 
HETATM   17  C   UNL     1      42.836 -16.735   7.044  1.00  0.00     0.037 A 
HETATM   18  C   UNL     1      42.146 -17.307   5.970  1.00  0.00     0.010 A 
BRANCH  16  19
HETATM   19  O   UNL     1      44.306 -14.948   7.825  1.00  0.00    -0.348 OA
BRANCH  19  20
HETATM   20  C   UNL     1      44.907 -13.717   7.415  1.00  0.00     0.202 C 
BRANCH  20  21
HETATM   21  C   UNL     1      44.828 -12.774   8.578  1.00  0.00    -0.011 C 
HETATM   22  C   UNL     1      45.762 -11.864   8.884  1.00  0.00     0.009 C 
ENDBRANCH  20  21
ENDBRANCH  19  20
ENDBRANCH  16  19
ENDBRANCH   1  13
BRANCH   7  23
HETATM   23  C   UNL     1      43.783 -19.510   2.636  1.00  0.00    -0.005 A 
HETATM   24  C   UNL     1      43.731 -20.772   2.029  1.00  0.00     0.014 A 
HETATM   25  C   UNL     1      44.237 -21.897   2.682  1.00  0.00     0.001 A 
HETATM   26  C   UNL     1      44.798 -21.771   3.951  1.00  0.00     0.000 A 
HETATM   27  C   UNL     1      44.844 -20.523   4.572  1.00  0.00     0.001 A 
HETATM   28  C   UNL     1      44.333 -19.398   3.919  1.00  0.00     0.014 A 
ENDBRANCH   7  23
TORSDOF 5
ENDMDL
MODEL 2
REMARK VINA RESULT:      -8.5      2.883      6.654
REMARK  5 active torsions:
REMARK  status: ('A' for Active; 'I' for Inactive)
REMARK    1  A    between atoms: C_2  and  C_3 
REMARK    2  A    between atoms: C_3  and  O_4 
REMARK    3  A    between atoms: O_4  and  C_5 
REMARK    4  A    between atoms: C_8  and  C_9 
REMARK    5  A    between atoms: C_15  and  C_16 
ROOT
HETATM    1  C   UNL     1      41.941 -16.820   5.535  1.00  0.00     0.066 C 
HETATM    2  C   UNL     1      42.450 -15.439   5.323  1.00  0.00     0.028 A 
HETATM    3  C   UNL     1      43.282 -14.811   6.215  1.00  0.00     0.133 A 
HETATM    4  N   UNL     1      43.592 -13.598   5.689  1.00  0.00    -0.261 N 
HETATM    5  H   UNL     1      44.192 -12.871   6.062  1.00  0.00     0.191 HD
HETATM    6  N   UNL     1      42.988 -13.376   4.513  1.00  0.00    -0.172 NA
HETATM    7  C   UNL     1      42.274 -14.491   4.270  1.00  0.00     0.098 A 
HETATM    8  N   UNL     1      43.704 -15.404   7.378  1.00  0.00    -0.312 N 
HETATM    9  C   UNL     1      43.168 -16.673   7.762  1.00  0.00     0.224 C 
HETATM   10  O   UNL     1      43.651 -17.172   8.766  1.00  0.00    -0.273 OA
HETATM   11  C   UNL     1      41.982 -17.226   7.011  1.00  0.00     0.117 C 
HETATM   12  H   UNL     1      44.405 -14.990   7.980  1.00  0.00     0.170 HD
ENDROOT
BRANCH   1  13
HETATM   13  C   UNL     1      42.761 -17.747   4.650  1.00  0.00    -0.049 A 
HETATM   14  C   UNL     1      43.957 -18.355   5.068  1.00  0.00     0.010 A 
HETATM   15  C   UNL     1      44.612 -19.278   4.250  1.00  0.00     0.037 A 
HETATM   16  C   UNL     1      44.079 -19.630   3.013  1.00  0.00     0.069 A 
HETATM   17  C   UNL     1      42.927 -18.998   2.556  1.00  0.00     0.037 A 
HETATM   18  C   UNL     1      42.271 -18.069   3.370  1.00  0.00     0.010 A 
BRANCH  16  19
HETATM   19  O   UNL     1      44.771 -20.582   2.318  1.00  0.00    -0.348 OA
BRANCH  19  20
HETATM   20  C   UNL     1      44.119 -21.850   2.230  1.00  0.00     0.202 C 
BRANCH  20  21
HETATM   21  C   UNL     1      44.830 -22.783   3.164  1.00  0.00    -0.011 C 
HETATM   22  C   UNL     1      44.670 -22.798   4.493  1.00  0.00     0.009 C 
ENDBRANCH  20  21
ENDBRANCH  19  20
ENDBRANCH  16  19
ENDBRANCH   1  13
BRANCH   7  23
HETATM   23  C   UNL     1      41.485 -14.612   3.045  1.00  0.00    -0.005 A 
HETATM   24  C   UNL     1      42.131 -14.640   1.802  1.00  0.00     0.014 A 
HETATM   25  C   UNL     1      41.395 -14.753   0.621  1.00  0.00     0.001 A 
HETATM   26  C   UNL     1      40.005 -14.836   0.672  1.00  0.00     0.000 A 
HETATM   27  C   UNL     1      39.349 -14.795   1.902  1.00  0.00     0.001 A 
HETATM   28  C   UNL     1      40.086 -14.678   3.084  1.00  0.00     0.014 A 
ENDBRANCH   7  23
TORSDOF 5
ENDMDL
MODEL 3
REMARK VINA RESULT:      -8.3      3.052      6.210
REMARK  5 active torsions:
REMARK  status: ('A' for Active; 'I' for Inactive)
REMARK    1  A    between atoms: C_2  and  C_3 
REMARK    2  A    between atoms: C_3  and  O_4 
REMARK    3  A    between atoms: O_4  and  C_5 
REMARK    4  A    between atoms: C_8  and  C_9 
REMARK    5  A    between atoms: C_15  and  C_16 
ROOT
HETATM    1  C   UNL     1      42.192 -14.591   4.269  1.00  0.00     0.066 C 
HETATM    2  C   UNL     1      41.500 -15.699   4.978  1.00  0.00     0.028 A 
HETATM    3  C   UNL     1      40.537 -15.482   5.931  1.00  0.00     0.133 A 
HETATM    4  N   UNL     1      40.084 -16.699   6.328  1.00  0.00    -0.261 N 
HETATM    5  H   UNL     1      39.364 -16.926   7.006  1.00  0.00     0.191 HD
HETATM    6  N   UNL     1      40.713 -17.710   5.712  1.00  0.00    -0.172 NA
HETATM    7  C   UNL     1      41.594 -17.121   4.883  1.00  0.00     0.098 A 
HETATM    8  N   UNL     1      40.143 -14.225   6.312  1.00  0.00    -0.312 N 
HETATM    9  C   UNL     1      40.835 -13.080   5.806  1.00  0.00     0.224 C 
HETATM   10  O   UNL     1      40.376 -11.996   6.128  1.00  0.00    -0.273 OA
HETATM   11  C   UNL     1      42.129 -13.278   5.056  1.00  0.00     0.117 C 
HETATM   12  H   UNL     1      39.356 -14.061   6.930  1.00  0.00     0.170 HD
ENDROOT
BRANCH   1  13
HETATM   13  C   UNL     1      41.566 -14.475   2.887  1.00  0.00    -0.049 A 
HETATM   14  C   UNL     1      42.271 -14.033   1.755  1.00  0.00     0.010 A 
HETATM   15  C   UNL     1      41.674 -14.046   0.493  1.00  0.00     0.037 A 
HETATM   16  C   UNL     1      40.375 -14.518   0.330  1.00  0.00     0.069 A 
HETATM   17  C   UNL     1      39.639 -14.907   1.445  1.00  0.00     0.037 A 
HETATM   18  C   UNL     1      40.232 -14.890   2.712  1.00  0.00     0.010 A 
BRANCH  16  19
HETATM   19  O   UNL     1      39.907 -14.538  -0.954  1.00  0.00    -0.348 OA
BRANCH  19  20
HETATM   20  C   UNL     1      40.907 -14.349  -1.958  1.00  0.00     0.202 C 
BRANCH  20  21
HETATM   21  C   UNL     1      40.892 -15.565  -2.836  1.00  0.00    -0.011 C 
HETATM   22  C   UNL     1      39.814 -16.018  -3.489  1.00  0.00     0.009 C 
ENDBRANCH  20  21
ENDBRANCH  19  20
ENDBRANCH  16  19
ENDBRANCH   1  13
BRANCH   7  23
HETATM   23  C   UNL     1      42.459 -17.930   4.026  1.00  0.00    -0.005 A 
HETATM   24  C   UNL     1      43.488 -18.690   4.597  1.00  0.00     0.014 A 
HETATM   25  C   UNL     1      44.325 -19.469   3.796  1.00  0.00     0.001 A 
HETATM   26  C   UNL     1      44.142 -19.492   2.415  1.00  0.00     0.000 A 
HETATM   27  C   UNL     1      43.131 -18.730   1.833  1.00  0.00     0.001 A 
HETATM   28  C   UNL     1      42.295 -17.947   2.635  1.00  0.00     0.014 A 
ENDBRANCH   7  23
TORSDOF 5
ENDMDL
MODEL 4
REMARK VINA RESULT:      -8.0      3.106      6.300
REMARK  5 active torsions:
REMARK  status: ('A' for Active; 'I' for Inactive)
REMARK    1  A    between atoms: C_2  and  C_3 
REMARK    2  A    between atoms: C_3  and  O_4 
REMARK    3  A    between atoms: O_4  and  C_5 
REMARK    4  A    between atoms: C_8  and  C_9 
REMARK    5  A    between atoms: C_15  and  C_16 
ROOT
HETATM    1  C   UNL     1      42.136 -14.711   4.183  1.00  0.00     0.066 C 
HETATM    2  C   UNL     1      41.491 -15.796   4.968  1.00  0.00     0.028 A 
HETATM    3  C   UNL     1      40.532 -15.555   5.919  1.00  0.00     0.133 A 
HETATM    4  N   UNL     1      40.127 -16.760   6.395  1.00  0.00    -0.261 N 
HETATM    5  H   UNL     1      39.423 -16.970   7.095  1.00  0.00     0.191 HD
HETATM    6  N   UNL     1      40.785 -17.784   5.834  1.00  0.00    -0.172 NA
HETATM    7  C   UNL     1      41.635 -17.217   4.959  1.00  0.00     0.098 A 
HETATM    8  N   UNL     1      40.097 -14.291   6.227  1.00  0.00    -0.312 N 
HETATM    9  C   UNL     1      40.743 -13.156   5.643  1.00  0.00     0.224 C 
HETATM   10  O   UNL     1      40.249 -12.071   5.903  1.00  0.00    -0.273 OA
HETATM   11  C   UNL     1      42.035 -13.355   4.889  1.00  0.00     0.117 C 
HETATM   12  H   UNL     1      39.312 -14.117   6.844  1.00  0.00     0.170 HD
ENDROOT
BRANCH   1  13
HETATM   13  C   UNL     1      41.491 -14.703   2.805  1.00  0.00    -0.049 A 
HETATM   14  C   UNL     1      40.138 -15.013   2.584  1.00  0.00     0.010 A 
HETATM   15  C   UNL     1      39.577 -14.888   1.312  1.00  0.00     0.037 A 
HETATM   16  C   UNL     1      40.342 -14.431   0.243  1.00  0.00     0.069 A 
HETATM   17  C   UNL     1      41.696 -14.172   0.428  1.00  0.00     0.037 A 
HETATM   18  C   UNL     1      42.264 -14.301   1.700  1.00  0.00     0.010 A 
BRANCH  16  19
HETATM   19  O   UNL     1      39.680 -14.293  -0.945  1.00  0.00    -0.348 OA
BRANCH  19  20
HETATM   20  C   UNL     1      38.374 -13.721  -0.839  1.00  0.00     0.202 C 
BRANCH  20  21
HETATM   21  C   UNL     1      37.822 -13.611  -2.229  1.00  0.00    -0.011 C 
HETATM   22  C   UNL     1      37.730 -14.630  -3.093  1.00  0.00     0.009 C 
ENDBRANCH  20  21
ENDBRANCH  19  20
ENDBRANCH  16  19
ENDBRANCH   1  13
BRANCH   7  23
HETATM   23  C   UNL     1      42.519 -18.048   4.143  1.00  0.00    -0.005 A 
HETATM   24  C   UNL     1      42.337 -18.100   2.754  1.00  0.00     0.014 A 
HETATM   25  C   UNL     1      43.169 -18.888   1.957  1.00  0.00     0.001 A 
HETATM   26  C   UNL     1      44.190 -19.634   2.543  1.00  0.00     0.000 A 
HETATM   27  C   UNL     1      44.373 -19.602   3.924  1.00  0.00     0.001 A 
HETATM   28  C   UNL     1      43.536 -18.816   4.722  1.00  0.00     0.014 A 
ENDBRANCH   7  23
TORSDOF 5
ENDMDL
MODEL 5
REMARK VINA RESULT:      -7.8      2.832      5.716
REMARK  5 active torsions:
REMARK  status: ('A' for Active; 'I' for Inactive)
REMARK    1  A    between atoms: C_2  and  C_3 
REMARK    2  A    between atoms: C_3  and  O_4 
REMARK    3  A    between atoms: O_4  and  C_5 
REMARK    4  A    between atoms: C_8  and  C_9 
REMARK    5  A    between atoms: C_15  and  C_16 
ROOT
HETATM    1  C   UNL     1      44.115 -15.580   5.178  1.00  0.00     0.066 C 
HETATM    2  C   UNL     1      43.845 -16.721   6.091  1.00  0.00     0.028 A 
HETATM    3  C   UNL     1      43.679 -16.565   7.443  1.00  0.00     0.133 A 
HETATM    4  N   UNL     1      43.398 -17.790   7.957  1.00  0.00    -0.261 N 
HETATM    5  H   UNL     1      43.202 -18.055   8.916  1.00  0.00     0.191 HD
HETATM    6  N   UNL     1      43.397 -18.753   7.024  1.00  0.00    -0.172 NA
HETATM    7  C   UNL     1      43.678 -18.122   5.869  1.00  0.00     0.098 A 
HETATM    8  N   UNL     1      43.757 -15.344   8.063  1.00  0.00    -0.312 N 
HETATM    9  C   UNL     1      44.153 -14.192   7.313  1.00  0.00     0.224 C 
HETATM   10  O   UNL     1      44.122 -13.130   7.914  1.00  0.00    -0.273 OA
HETATM   11  C   UNL     1      44.706 -14.378   5.922  1.00  0.00     0.117 C 
HETATM   12  H   UNL     1      43.523 -15.210   9.040  1.00  0.00     0.170 HD
ENDROOT
BRANCH   1  13
HETATM   13  C   UNL     1      42.811 -15.247   4.469  1.00  0.00    -0.049 A 
HETATM   14  C   UNL     1      41.571 -15.177   5.127  1.00  0.00     0.010 A 
HETATM   15  C   UNL     1      40.424 -14.765   4.445  1.00  0.00     0.037 A 
HETATM   16  C   UNL     1      40.493 -14.393   3.106  1.00  0.00     0.069 A 
HETATM   17  C   UNL     1      41.699 -14.508   2.421  1.00  0.00     0.037 A 
HETATM   18  C   UNL     1      42.849 -14.926   3.099  1.00  0.00     0.010 A 
BRANCH  16  19
HETATM   19  O   UNL     1      39.324 -13.954   2.552  1.00  0.00    -0.348 OA
BRANCH  19  20
HETATM   20  C   UNL     1      38.682 -14.893   1.686  1.00  0.00     0.202 C 
BRANCH  20  21
HETATM   21  C   UNL     1      37.721 -14.125   0.829  1.00  0.00    -0.011 C 
HETATM   22  C   UNL     1      37.502 -12.807   0.924  1.00  0.00     0.009 C 
ENDBRANCH  20  21
ENDBRANCH  19  20
ENDBRANCH  16  19
ENDBRANCH   1  13
BRANCH   7  23
HETATM   23  C   UNL     1      43.748 -18.871   4.616  1.00  0.00    -0.005 A 
HETATM   24  C   UNL     1      42.853 -18.574   3.579  1.00  0.00     0.014 A 
HETATM   25  C   UNL     1      42.902 -19.279   2.374  1.00  0.00     0.001 A 
HETATM   26  C   UNL     1      43.845 -20.289   2.197  1.00  0.00     0.000 A 
HETATM   27  C   UNL     1      44.732 -20.603   3.226  1.00  0.00     0.001 A 
HETATM   28  C   UNL     1      44.680 -19.900   4.433  1.00  0.00     0.014 A 
ENDBRANCH   7  23
TORSDOF 5
ENDMDL
MODEL 6
REMARK VINA RESULT:      -7.8      2.638      5.997
REMARK  5 active torsions:
REMARK  status: ('A' for Active; 'I' for Inactive)
REMARK    1  A    between atoms: C_2  and  C_3 
REMARK    2  A    between atoms: C_3  and  O_4 
REMARK    3  A    between atoms: O_4  and  C_5 
REMARK    4  A    between atoms: C_8  and  C_9 
REMARK    5  A    between atoms: C_15  and  C_16 
ROOT
HETATM    1  C   UNL     1      42.299 -14.724   1.948  1.00  0.00     0.066 C 
HETATM    2  C   UNL     1      41.259 -14.603   3.003  1.00  0.00     0.028 A 
HETATM    3  C   UNL     1      39.930 -14.424   2.715  1.00  0.00     0.133 A 
HETATM    4  N   UNL     1      39.262 -14.408   3.898  1.00  0.00    -0.261 N 
HETATM    5  H   UNL     1      38.267 -14.310   4.072  1.00  0.00     0.191 HD
HETATM    6  N   UNL     1      40.078 -14.538   4.953  1.00  0.00    -0.172 NA
HETATM    7  C   UNL     1      41.313 -14.651   4.429  1.00  0.00     0.098 A 
HETATM    8  N   UNL     1      39.455 -14.333   1.431  1.00  0.00    -0.312 N 
HETATM    9  C   UNL     1      40.375 -14.292   0.337  1.00  0.00     0.224 C 
HETATM   10  O   UNL     1      39.876 -14.292  -0.777  1.00  0.00    -0.273 OA
HETATM   11  C   UNL     1      41.845 -14.109   0.621  1.00  0.00     0.117 C 
HETATM   12  H   UNL     1      38.466 -14.315   1.213  1.00  0.00     0.170 HD
ENDROOT
BRANCH   1  13
HETATM   13  C   UNL     1      42.646 -16.200   1.820  1.00  0.00    -0.049 A 
HETATM   14  C   UNL     1      43.963 -16.690   1.859  1.00  0.00     0.010 A 
HETATM   15  C   UNL     1      44.214 -18.063   1.841  1.00  0.00     0.037 A 
HETATM   16  C   UNL     1      43.162 -18.974   1.807  1.00  0.00     0.069 A 
HETATM   17  C   UNL     1      41.854 -18.510   1.712  1.00  0.00     0.037 A 
HETATM   18  C   UNL     1      41.599 -17.135   1.724  1.00  0.00     0.010 A 
BRANCH  16  19
HETATM   19  O   UNL     1      43.518 -20.293   1.848  1.00  0.00    -0.348 OA
BRANCH  19  20
HETATM   20  C   UNL     1      44.529 -20.610   2.807  1.00  0.00     0.202 C 
BRANCH  20  21
HETATM   21  C   UNL     1      44.463 -22.088   3.053  1.00  0.00    -0.011 C 
HETATM   22  C   UNL     1      44.692 -22.673   4.235  1.00  0.00     0.009 C 
ENDBRANCH  20  21
ENDBRANCH  19  20
ENDBRANCH  16  19
ENDBRANCH   1  13
BRANCH   7  23
HETATM   23  C   UNL     1      42.473 -14.826   5.301  1.00  0.00    -0.005 A 
HETATM   24  C   UNL     1      42.913 -16.117   5.622  1.00  0.00     0.014 A 
HETATM   25  C   UNL     1      44.018 -16.304   6.455  1.00  0.00     0.001 A 
HETATM   26  C   UNL     1      44.692 -15.201   6.976  1.00  0.00     0.000 A 
HETATM   27  C   UNL     1      44.255 -13.912   6.675  1.00  0.00     0.001 A 
HETATM   28  C   UNL     1      43.146 -13.725   5.845  1.00  0.00     0.014 A 
ENDBRANCH   7  23
TORSDOF 5
ENDMDL
MODEL 7
REMARK VINA RESULT:      -7.6      3.447      6.640
REMARK  5 active torsions:
REMARK  status: ('A' for Active; 'I' for Inactive)
REMARK    1  A    between atoms: C_2  and  C_3 
REMARK    2  A    between atoms: C_3  and  O_4 
REMARK    3  A    between atoms: O_4  and  C_5 
REMARK    4  A    between atoms: C_8  and  C_9 
REMARK    5  A    between atoms: C_15  and  C_16 
ROOT
HETATM    1  C   UNL     1      40.575 -15.090   2.137  1.00  0.00     0.066 C 
HETATM    2  C   UNL     1      41.209 -13.789   1.799  1.00  0.00     0.028 A 
HETATM    3  C   UNL     1      41.537 -12.856   2.749  1.00  0.00     0.133 A 
HETATM    4  N   UNL     1      42.140 -11.823   2.105  1.00  0.00    -0.261 N 
HETATM    5  H   UNL     1      42.527 -10.967   2.486  1.00  0.00     0.191 HD
HETATM    6  N   UNL     1      42.203 -12.008   0.778  1.00  0.00    -0.172 NA
HETATM    7  C   UNL     1      41.629 -13.207   0.564  1.00  0.00     0.098 A 
HETATM    8  N   UNL     1      41.299 -13.044   4.086  1.00  0.00    -0.312 N 
HETATM    9  C   UNL     1      40.565 -14.193   4.521  1.00  0.00     0.224 C 
HETATM   10  O   UNL     1      40.463 -14.332   5.729  1.00  0.00    -0.273 OA
HETATM   11  C   UNL     1      39.864 -15.046   3.494  1.00  0.00     0.117 C 
HETATM   12  H   UNL     1      41.642 -12.410   4.798  1.00  0.00     0.170 HD
ENDROOT
BRANCH   1  13
HETATM   13  C   UNL     1      41.661 -16.154   2.081  1.00  0.00    -0.049 A 
HETATM   14  C   UNL     1      42.989 -15.922   2.477  1.00  0.00     0.010 A 
HETATM   15  C   UNL     1      43.919 -16.963   2.501  1.00  0.00     0.037 A 
HETATM   16  C   UNL     1      43.541 -18.257   2.154  1.00  0.00     0.069 A 
HETATM   17  C   UNL     1      42.246 -18.498   1.705  1.00  0.00     0.037 A 
HETATM   18  C   UNL     1      41.313 -17.455   1.674  1.00  0.00     0.010 A 
BRANCH  16  19
HETATM   19  O   UNL     1      44.514 -19.210   2.265  1.00  0.00    -0.348 OA
BRANCH  19  20
HETATM   20  C   UNL     1      44.339 -20.120   3.354  1.00  0.00     0.202 C 
BRANCH  20  21
HETATM   21  C   UNL     1      44.442 -21.508   2.796  1.00  0.00    -0.011 C 
HETATM   22  C   UNL     1      44.032 -21.868   1.573  1.00  0.00     0.009 C 
ENDBRANCH  20  21
ENDBRANCH  19  20
ENDBRANCH  16  19
ENDBRANCH   1  13
BRANCH   7  23
HETATM   23  C   UNL     1      41.532 -13.749  -0.789  1.00  0.00    -0.005 A 
HETATM   24  C   UNL     1      42.144 -13.074  -1.854  1.00  0.00     0.014 A 
HETATM   25  C   UNL     1      42.062 -13.575  -3.154  1.00  0.00     0.001 A 
HETATM   26  C   UNL     1      41.364 -14.756  -3.403  1.00  0.00     0.000 A 
HETATM   27  C   UNL     1      40.739 -15.429  -2.354  1.00  0.00     0.001 A 
HETATM   28  C   UNL     1      40.818 -14.925  -1.053  1.00  0.00     0.014 A 
ENDBRANCH   7  23
TORSDOF 5
ENDMDL
MODEL 8
REMARK VINA RESULT:      -7.6      3.753      6.991
REMARK  5 active torsions:
REMARK  status: ('A' for Active; 'I' for Inactive)
REMARK    1  A    between atoms: C_2  and  C_3 
REMARK    2  A    between atoms: C_3  and  O_4 
REMARK    3  A    between atoms: O_4  and  C_5 
REMARK    4  A    between atoms: C_8  and  C_9 
REMARK    5  A    between atoms: C_15  and  C_16 
ROOT
HETATM    1  C   UNL     1      41.402 -14.182   0.135  1.00  0.00     0.066 C 
HETATM    2  C   UNL     1      39.921 -14.117   0.243  1.00  0.00     0.028 A 
HETATM    3  C   UNL     1      39.090 -14.343  -0.824  1.00  0.00     0.133 A 
HETATM    4  N   UNL     1      37.815 -14.258  -0.365  1.00  0.00    -0.261 N 
HETATM    5  H   UNL     1      36.942 -14.382  -0.866  1.00  0.00     0.191 HD
HETATM    6  N   UNL     1      37.756 -13.959   0.941  1.00  0.00    -0.172 NA
HETATM    7  C   UNL     1      39.039 -13.859   1.336  1.00  0.00     0.098 A 
HETATM    8  N   UNL     1      39.559 -14.639  -2.079  1.00  0.00    -0.312 N 
HETATM    9  C   UNL     1      40.964 -14.590  -2.340  1.00  0.00     0.224 C 
HETATM   10  O   UNL     1      41.310 -14.943  -3.457  1.00  0.00    -0.273 OA
HETATM   11  C   UNL     1      41.881 -13.986  -1.307  1.00  0.00     0.117 C 
HETATM   12  H   UNL     1      38.950 -14.918  -2.839  1.00  0.00     0.170 HD
ENDROOT
BRANCH   1  13
HETATM   13  C   UNL     1      41.842 -15.516   0.721  1.00  0.00    -0.049 A 
HETATM   14  C   UNL     1      43.051 -15.693   1.415  1.00  0.00     0.010 A 
HETATM   15  C   UNL     1      43.354 -16.914   2.020  1.00  0.00     0.037 A 
HETATM   16  C   UNL     1      42.452 -17.973   1.967  1.00  0.00     0.069 A 
HETATM   17  C   UNL     1      41.274 -17.837   1.237  1.00  0.00     0.037 A 
HETATM   18  C   UNL     1      40.970 -16.617   0.625  1.00  0.00     0.010 A 
BRANCH  16  19
HETATM   19  O   UNL     1      42.823 -19.103   2.638  1.00  0.00    -0.348 OA
BRANCH  19  20
HETATM   20  C   UNL     1      44.187 -19.489   2.453  1.00  0.00     0.202 C 
BRANCH  20  21
HETATM   21  C   UNL     1      44.253 -20.980   2.597  1.00  0.00    -0.011 C 
HETATM   22  C   UNL     1      44.100 -21.848   1.589  1.00  0.00     0.009 C 
ENDBRANCH  20  21
ENDBRANCH  19  20
ENDBRANCH  16  19
ENDBRANCH   1  13
BRANCH   7  23
HETATM   23  C   UNL     1      39.362 -13.552   2.728  1.00  0.00    -0.005 A 
HETATM   24  C   UNL     1      39.870 -14.557   3.561  1.00  0.00     0.014 A 
HETATM   25  C   UNL     1      40.183 -14.284   4.894  1.00  0.00     0.001 A 
HETATM   26  C   UNL     1      39.989 -13.003   5.407  1.00  0.00     0.000 A 
HETATM   27  C   UNL     1      39.472 -11.997   4.591  1.00  0.00     0.001 A 
HETATM   28  C   UNL     1      39.154 -12.272   3.258  1.00  0.00     0.014 A 
ENDBRANCH   7  23
TORSDOF 5
ENDMDL
MODEL 9
REMARK VINA RESULT:      -7.6      2.335      2.790
REMARK  5 active torsions:
REMARK  status: ('A' for Active; 'I' for Inactive)
REMARK    1  A    between atoms: C_2  and  C_3 
REMARK    2  A    between atoms: C_3  and  O_4 
REMARK    3  A    between atoms: O_4  and  C_5 
REMARK    4  A    between atoms: C_8  and  C_9 
REMARK    5  A    between atoms: C_15  and  C_16 
ROOT
HETATM    1  C   UNL     1      41.150 -16.719   2.946  1.00  0.00     0.066 C 
HETATM    2  C   UNL     1      42.395 -17.191   2.286  1.00  0.00     0.028 A 
HETATM    3  C   UNL     1      42.748 -16.817   1.014  1.00  0.00     0.133 A 
HETATM    4  N   UNL     1      43.955 -17.381   0.750  1.00  0.00    -0.261 N 
HETATM    5  H   UNL     1      44.527 -17.311  -0.084  1.00  0.00     0.191 HD
HETATM    6  N   UNL     1      44.407 -18.130   1.765  1.00  0.00    -0.172 NA
HETATM    7  C   UNL     1      43.462 -18.037   2.719  1.00  0.00     0.098 A 
HETATM    8  N   UNL     1      41.974 -15.985   0.247  1.00  0.00    -0.312 N 
HETATM    9  C   UNL     1      40.685 -15.580   0.716  1.00  0.00     0.224 C 
HETATM   10  O   UNL     1      40.092 -14.776   0.015  1.00  0.00    -0.273 OA
HETATM   11  C   UNL     1      40.100 -16.260   1.929  1.00  0.00     0.117 C 
HETATM   12  H   UNL     1      42.285 -15.616  -0.645  1.00  0.00     0.170 HD
ENDROOT
BRANCH   1  13
HETATM   13  C   UNL     1      41.541 -15.618   3.920  1.00  0.00    -0.049 A 
HETATM   14  C   UNL     1      42.701 -14.838   3.778  1.00  0.00     0.010 A 
HETATM   15  C   UNL     1      42.955 -13.773   4.645  1.00  0.00     0.037 A 
HETATM   16  C   UNL     1      42.051 -13.450   5.653  1.00  0.00     0.069 A 
HETATM   17  C   UNL     1      40.925 -14.245   5.847  1.00  0.00     0.037 A 
HETATM   18  C   UNL     1      40.670 -15.316   4.984  1.00  0.00     0.010 A 
BRANCH  16  19
HETATM   19  O   UNL     1      42.370 -12.357   6.408  1.00  0.00    -0.348 OA
BRANCH  19  20
HETATM   20  C   UNL     1      41.311 -11.410   6.567  1.00  0.00     0.202 C 
BRANCH  20  21
HETATM   21  C   UNL     1      41.261 -10.583   5.318  1.00  0.00    -0.011 C 
HETATM   22  C   UNL     1      40.163 -10.392   4.576  1.00  0.00     0.009 C 
ENDBRANCH  20  21
ENDBRANCH  19  20
ENDBRANCH  16  19
ENDBRANCH   1  13
BRANCH   7  23
HETATM   23  C   UNL     1      43.629 -18.728   3.996  1.00  0.00    -0.005 A 
HETATM   24  C   UNL     1      44.359 -19.923   4.049  1.00  0.00     0.014 A 
HETATM   25  C   UNL     1      44.529 -20.599   5.259  1.00  0.00     0.001 A 
HETATM   26  C   UNL     1      43.966 -20.087   6.427  1.00  0.00     0.000 A 
HETATM   27  C   UNL     1      43.226 -18.907   6.384  1.00  0.00     0.001 A 
HETATM   28  C   UNL     1      43.053 -18.233   5.172  1.00  0.00     0.014 A 
ENDBRANCH   7  23
TORSDOF 5
ENDMDL
MODEL 10
REMARK VINA RESULT:      -7.5      1.414      2.149
REMARK  5 active torsions:
REMARK  status: ('A' for Active; 'I' for Inactive)
REMARK    1  A    between atoms: C_2  and  C_3 
REMARK    2  A    between atoms: C_3  and  O_4 
REMARK    3  A    between atoms: O_4  and  C_5 
REMARK    4  A    between atoms: C_8  and  C_9 
REMARK    5  A    between atoms: C_15  and  C_16 
ROOT
HETATM    1  C   UNL     1      40.491 -16.312   2.798  1.00  0.00     0.066 C 
HETATM    2  C   UNL     1      41.405 -16.511   1.642  1.00  0.00     0.028 A 
HETATM    3  C   UNL     1      41.249 -15.848   0.452  1.00  0.00     0.133 A 
HETATM    4  N   UNL     1      42.277 -16.222  -0.353  1.00  0.00    -0.261 N 
HETATM    5  H   UNL     1      42.494 -15.924  -1.298  1.00  0.00     0.191 HD
HETATM    6  N   UNL     1      43.087 -17.118   0.227  1.00  0.00    -0.172 NA
HETATM    7  C   UNL     1      42.568 -17.318   1.453  1.00  0.00     0.098 A 
HETATM    8  N   UNL     1      40.233 -14.954   0.229  1.00  0.00    -0.312 N 
HETATM    9  C   UNL     1      39.209 -14.785   1.214  1.00  0.00     0.224 C 
HETATM   10  O   UNL     1      38.384 -13.916   0.979  1.00  0.00    -0.273 OA
HETATM   11  C   UNL     1      39.131 -15.757   2.364  1.00  0.00     0.117 C 
HETATM   12  H   UNL     1      40.181 -14.380  -0.604  1.00  0.00     0.170 HD
ENDROOT
BRANCH   1  13
HETATM   13  C   UNL     1      41.204 -15.404   3.789  1.00  0.00    -0.049 A 
HETATM   14  C   UNL     1      41.153 -15.591   5.181  1.00  0.00     0.010 A 
HETATM   15  C   UNL     1      41.912 -14.789   6.037  1.00  0.00     0.037 A 
HETATM   16  C   UNL     1      42.750 -13.803   5.524  1.00  0.00     0.069 A 
HETATM   17  C   UNL     1      42.772 -13.565   4.153  1.00  0.00     0.037 A 
HETATM   18  C   UNL     1      42.010 -14.362   3.293  1.00  0.00     0.010 A 
BRANCH  16  19
HETATM   19  O   UNL     1      43.488 -13.114   6.445  1.00  0.00    -0.348 OA
BRANCH  19  20
HETATM   20  C   UNL     1      44.462 -13.897   7.139  1.00  0.00     0.202 C 
BRANCH  20  21
HETATM   21  C   UNL     1      44.869 -13.124   8.357  1.00  0.00    -0.011 C 
HETATM   22  C   UNL     1      45.972 -12.370   8.446  1.00  0.00     0.009 C 
ENDBRANCH  20  21
ENDBRANCH  19  20
ENDBRANCH  16  19
ENDBRANCH   1  13
BRANCH   7  23
HETATM   23  C   UNL     1      43.211 -18.240   2.387  1.00  0.00    -0.005 A 
HETATM   24  C   UNL     1      43.619 -17.781   3.646  1.00  0.00     0.014 A 
HETATM   25  C   UNL     1      44.237 -18.645   4.552  1.00  0.00     0.001 A 
HETATM   26  C   UNL     1      44.454 -19.977   4.206  1.00  0.00     0.000 A 
HETATM   27  C   UNL     1      44.065 -20.443   2.951  1.00  0.00     0.001 A 
HETATM   28  C   UNL     1      43.450 -19.576   2.042  1.00  0.00     0.014 A 
ENDBRANCH   7  23
TORSDOF 5
ENDMDL
