MODEL 1
REMARK VINA RESULT:      -8.7      0.000      0.000
REMARK  7 active torsions:
REMARK  status: ('A' for Active; 'I' for Inactive)
REMARK    1  A    between atoms: C_3  and  O_4 
REMARK    2  A    between atoms: O_4  and  C_5 
REMARK    3  A    between atoms: C_5  and  C_6 
REMARK       I    between atoms: C_6  and  N_7 
REMARK    4  A    between atoms: N_7  and  C_8 
REMARK    5  A    between atoms: C_9  and  C_10 
REMARK       I    between atoms: C_10  and  N_11 
REMARK    6  A    between atoms: N_11  and  C_12 
REMARK    7  A    between atoms: C_12  and  C_13 
ROOT
HETATM    1  C   UNL     1      44.311 -20.094   4.161  1.00  0.00     0.050 A 
HETATM    2  C   UNL     1      43.600 -19.509   3.088  1.00  0.00     0.058 A 
HETATM    3  C   UNL     1      43.346 -20.258   1.923  1.00  0.00     0.019 A 
HETATM    4  C   UNL     1      43.829 -21.559   1.799  1.00  0.00     0.001 A 
HETATM    5  C   UNL     1      44.560 -22.125   2.836  1.00  0.00     0.002 A 
HETATM    6  C   UNL     1      44.793 -21.401   4.008  1.00  0.00     0.030 A 
ENDROOT
BRANCH   1   7
HETATM    7  N   UNL     1      44.471 -19.374   5.374  1.00  0.00    -0.324 N 
HETATM    8  C   UNL     1      43.996 -19.720   6.627  1.00  0.00     0.246 C 
HETATM    9  O   UNL     1      43.541 -20.820   6.933  1.00  0.00    -0.271 OA
HETATM   10  H   UNL     1      45.000 -18.504   5.284  1.00  0.00     0.169 HD
BRANCH   8  11
HETATM   11  C   UNL     1      44.086 -18.584   7.648  1.00  0.00     0.278 C 
BRANCH  11  12
HETATM   12  O   UNL     1      42.905 -17.805   7.497  1.00  0.00    -0.342 OA
BRANCH  12  13
HETATM   13  C   UNL     1      43.018 -16.543   6.986  1.00  0.00     0.075 A 
HETATM   14  C   UNL     1      41.873 -16.046   6.336  1.00  0.00    -0.029 A 
HETATM   15  C   UNL     1      40.603 -16.851   6.270  1.00  0.00     0.051 C 
HETATM   16  C   UNL     1      41.892 -14.750   5.800  1.00  0.00     0.009 A 
HETATM   17  C   UNL     1      43.041 -13.968   5.879  1.00  0.00     0.001 A 
HETATM   18  C   UNL     1      44.180 -14.472   6.501  1.00  0.00     0.003 A 
HETATM   19  C   UNL     1      44.171 -15.756   7.054  1.00  0.00     0.037 A 
ENDBRANCH  12  13
ENDBRANCH  11  12
ENDBRANCH   8  11
ENDBRANCH   1   7
BRANCH   2  20
HETATM   20  C   UNL     1      43.118 -18.095   3.178  1.00  0.00     0.254 C 
HETATM   21  N   UNL     1      41.886 -17.832   2.628  1.00  0.00    -0.351 N 
HETATM   22  H   UNL     1      41.354 -18.550   2.154  1.00  0.00     0.163 HD
HETATM   23  O   UNL     1      43.825 -17.225   3.682  1.00  0.00    -0.268 OA
BRANCH  21  24
HETATM   24  C   UNL     1      41.279 -16.522   2.694  1.00  0.00     0.187 C 
BRANCH  24  25
HETATM   25  C   UNL     1      41.146 -15.988   1.315  1.00  0.00     0.070 A 
HETATM   26  O   UNL     1      40.439 -14.825   1.168  1.00  0.00    -0.325 OA
HETATM   27  C   UNL     1      40.431 -14.530  -0.157  1.00  0.00     0.142 A 
HETATM   28  C   UNL     1      41.120 -15.484  -0.868  1.00  0.00     0.027 A 
HETATM   29  C   UNL     1      41.583 -16.427   0.081  1.00  0.00     0.036 A 
ENDBRANCH  24  25
ENDBRANCH  21  24
ENDBRANCH   2  20
TORSDOF 7
ENDMDL
MODEL 2
REMARK VINA RESULT:      -8.2      2.922      7.333
REMARK  7 active torsions:
REMARK  status: ('A' for Active; 'I' for Inactive)
REMARK    1  A    between atoms: C_3  and  O_4 
REMARK    2  A    between atoms: O_4  and  C_5 
REMARK    3  A    between atoms: C_5  and  C_6 
REMARK       I    between atoms: C_6  and  N_7 
REMARK    4  A    between atoms: N_7  and  C_8 
REMARK    5  A    between atoms: C_9  and  C_10 
REMARK       I    between atoms: C_10  and  N_11 
REMARK    6  A    between atoms: N_11  and  C_12 
REMARK    7  A    between atoms: C_12  and  C_13 
ROOT
HETATM    1  C   UNL     1      41.829 -15.146   4.536  1.00  0.00     0.050 A 
HETATM    2  C   UNL     1      42.217 -13.911   5.107  1.00  0.00     0.058 A 
HETATM    3  C   UNL     1      41.327 -12.820   5.089  1.00  0.00     0.019 A 
HETATM    4  C   UNL     1      40.082 -12.931   4.473  1.00  0.00     0.001 A 
HETATM    5  C   UNL     1      39.713 -14.132   3.879  1.00  0.00     0.002 A 
HETATM    6  C   UNL     1      40.576 -15.230   3.916  1.00  0.00     0.030 A 
ENDROOT
BRANCH   1   7
HETATM    7  N   UNL     1      42.684 -16.273   4.653  1.00  0.00    -0.324 N 
HETATM    8  C   UNL     1      42.784 -17.147   5.720  1.00  0.00     0.246 C 
HETATM    9  O   UNL     1      41.992 -17.214   6.658  1.00  0.00    -0.271 OA
HETATM   10  H   UNL     1      43.284 -16.435   3.841  1.00  0.00     0.169 HD
BRANCH   8  11
HETATM   11  C   UNL     1      44.005 -18.066   5.644  1.00  0.00     0.278 C 
BRANCH  11  12
HETATM   12  O   UNL     1      44.301 -18.237   4.262  1.00  0.00    -0.342 OA
BRANCH  12  13
HETATM   13  C   UNL     1      44.301 -19.503   3.748  1.00  0.00     0.075 A 
HETATM   14  C   UNL     1      43.792 -19.629   2.443  1.00  0.00    -0.029 A 
HETATM   15  C   UNL     1      43.334 -18.424   1.665  1.00  0.00     0.051 C 
HETATM   16  C   UNL     1      43.773 -20.889   1.828  1.00  0.00     0.009 A 
HETATM   17  C   UNL     1      44.225 -22.016   2.510  1.00  0.00     0.001 A 
HETATM   18  C   UNL     1      44.705 -21.892   3.811  1.00  0.00     0.003 A 
HETATM   19  C   UNL     1      44.744 -20.640   4.430  1.00  0.00     0.037 A 
ENDBRANCH  12  13
ENDBRANCH  11  12
ENDBRANCH   8  11
ENDBRANCH   1   7
BRANCH   2  20
HETATM   20  C   UNL     1      43.569 -13.753   5.728  1.00  0.00     0.254 C 
HETATM   21  N   UNL     1      43.599 -13.540   7.085  1.00  0.00    -0.351 N 
HETATM   22  H   UNL     1      42.749 -13.457   7.626  1.00  0.00     0.163 HD
HETATM   23  O   UNL     1      44.582 -13.771   5.031  1.00  0.00    -0.268 OA
BRANCH  21  24
HETATM   24  C   UNL     1      44.839 -13.424   7.817  1.00  0.00     0.187 C 
BRANCH  24  25
HETATM   25  C   UNL     1      44.705 -12.333   8.814  1.00  0.00     0.070 A 
HETATM   26  O   UNL     1      43.540 -11.615   8.793  1.00  0.00    -0.325 OA
HETATM   27  C   UNL     1      43.635 -10.673   9.766  1.00  0.00     0.142 A 
HETATM   28  C   UNL     1      44.843 -10.771  10.414  1.00  0.00     0.027 A 
HETATM   29  C   UNL     1      45.536 -11.842   9.802  1.00  0.00     0.036 A 
ENDBRANCH  24  25
ENDBRANCH  21  24
ENDBRANCH   2  20
TORSDOF 7
ENDMDL
MODEL 3
REMARK VINA RESULT:      -8.2      1.239      5.191
REMARK  7 active torsions:
REMARK  status: ('A' for Active; 'I' for Inactive)
REMARK    1  A    between atoms: C_3  and  O_4 
REMARK    2  A    between atoms: O_4  and  C_5 
REMARK    3  A    between atoms: C_5  and  C_6 
REMARK       I    between atoms: C_6  and  N_7 
REMARK    4  A    between atoms: N_7  and  C_8 
REMARK    5  A    between atoms: C_9  and  C_10 
REMARK       I    between atoms: C_10  and  N_11 
REMARK    6  A    between atoms: N_11  and  C_12 
REMARK    7  A    between atoms: C_12  and  C_13 
ROOT
HETATM    1  C   UNL     1      43.635 -15.814   6.106  1.00  0.00     0.050 A 
HETATM    2  C   UNL     1      42.521 -15.182   5.508  1.00  0.00     0.058 A 
HETATM    3  C   UNL     1      42.341 -13.793   5.655  1.00  0.00     0.019 A 
HETATM    4  C   UNL     1      43.227 -13.040   6.422  1.00  0.00     0.001 A 
HETATM    5  C   UNL     1      44.303 -13.665   7.042  1.00  0.00     0.002 A 
HETATM    6  C   UNL     1      44.508 -15.037   6.880  1.00  0.00     0.030 A 
ENDROOT
BRANCH   1   7
HETATM    7  N   UNL     1      43.873 -17.193   5.867  1.00  0.00    -0.324 N 
HETATM    8  C   UNL     1      43.807 -18.230   6.779  1.00  0.00     0.246 C 
HETATM    9  O   UNL     1      43.318 -18.153   7.905  1.00  0.00    -0.271 OA
HETATM   10  H   UNL     1      44.122 -17.418   4.901  1.00  0.00     0.169 HD
BRANCH   8  11
HETATM   11  C   UNL     1      44.409 -19.538   6.262  1.00  0.00     0.278 C 
BRANCH  11  12
HETATM   12  O   UNL     1      44.867 -19.281   4.939  1.00  0.00    -0.342 OA
BRANCH  12  13
HETATM   13  C   UNL     1      44.573 -20.188   3.960  1.00  0.00     0.075 A 
HETATM   14  C   UNL     1      43.970 -19.660   2.804  1.00  0.00    -0.029 A 
HETATM   15  C   UNL     1      43.725 -18.183   2.658  1.00  0.00     0.051 C 
HETATM   16  C   UNL     1      43.653 -20.516   1.739  1.00  0.00     0.009 A 
HETATM   17  C   UNL     1      43.902 -21.883   1.832  1.00  0.00     0.001 A 
HETATM   18  C   UNL     1      44.476 -22.406   2.988  1.00  0.00     0.003 A 
HETATM   19  C   UNL     1      44.811 -21.563   4.050  1.00  0.00     0.037 A 
ENDBRANCH  12  13
ENDBRANCH  11  12
ENDBRANCH   8  11
ENDBRANCH   1   7
BRANCH   2  20
HETATM   20  C   UNL     1      41.527 -15.978   4.723  1.00  0.00     0.254 C 
HETATM   21  N   UNL     1      41.301 -15.573   3.430  1.00  0.00    -0.351 N 
HETATM   22  H   UNL     1      41.757 -14.756   3.044  1.00  0.00     0.163 HD
HETATM   23  O   UNL     1      40.923 -16.913   5.246  1.00  0.00    -0.268 OA
BRANCH  21  24
HETATM   24  C   UNL     1      40.408 -16.285   2.546  1.00  0.00     0.187 C 
BRANCH  24  25
HETATM   25  C   UNL     1      40.681 -15.863   1.149  1.00  0.00     0.070 A 
HETATM   26  O   UNL     1      40.016 -14.756   0.697  1.00  0.00    -0.325 OA
HETATM   27  C   UNL     1      40.400 -14.560  -0.591  1.00  0.00     0.142 A 
HETATM   28  C   UNL     1      41.302 -15.523  -0.977  1.00  0.00     0.027 A 
HETATM   29  C   UNL     1      41.485 -16.366   0.146  1.00  0.00     0.036 A 
ENDBRANCH  24  25
ENDBRANCH  21  24
ENDBRANCH   2  20
TORSDOF 7
ENDMDL
MODEL 4
REMARK VINA RESULT:      -8.1      1.936      4.538
REMARK  7 active torsions:
REMARK  status: ('A' for Active; 'I' for Inactive)
REMARK    1  A    between atoms: C_3  and  O_4 
REMARK    2  A    between atoms: O_4  and  C_5 
REMARK    3  A    between atoms: C_5  and  C_6 
REMARK       I    between atoms: C_6  and  N_7 
REMARK    4  A    between atoms: N_7  and  C_8 
REMARK    5  A    between atoms: C_9  and  C_10 
REMARK       I    between atoms: C_10  and  N_11 
REMARK    6  A    between atoms: N_11  and  C_12 
REMARK    7  A    between atoms: C_12  and  C_13 
ROOT
HETATM    1  C   UNL     1      44.406 -19.951   3.372  1.00  0.00     0.050 A 
HETATM    2  C   UNL     1      44.514 -20.210   4.758  1.00  0.00     0.058 A 
HETATM    3  C   UNL     1      44.673 -21.532   5.214  1.00  0.00     0.019 A 
HETATM    4  C   UNL     1      44.681 -22.596   4.314  1.00  0.00     0.001 A 
HETATM    5  C   UNL     1      44.538 -22.348   2.955  1.00  0.00     0.002 A 
HETATM    6  C   UNL     1      44.408 -21.038   2.488  1.00  0.00     0.030 A 
ENDROOT
BRANCH   1   7
HETATM    7  N   UNL     1      44.355 -18.610   2.910  1.00  0.00    -0.324 N 
HETATM    8  C   UNL     1      43.251 -17.777   2.859  1.00  0.00     0.246 C 
HETATM    9  O   UNL     1      42.174 -17.996   3.410  1.00  0.00    -0.271 OA
HETATM   10  H   UNL     1      45.250 -18.241   2.580  1.00  0.00     0.169 HD
BRANCH   8  11
HETATM   11  C   UNL     1      43.480 -16.510   2.034  1.00  0.00     0.278 C 
BRANCH  11  12
HETATM   12  O   UNL     1      42.201 -16.079   1.584  1.00  0.00    -0.342 OA
BRANCH  12  13
HETATM   13  C   UNL     1      41.721 -14.881   2.033  1.00  0.00     0.075 A 
HETATM   14  C   UNL     1      40.335 -14.832   2.270  1.00  0.00    -0.029 A 
HETATM   15  C   UNL     1      39.470 -16.049   2.085  1.00  0.00     0.051 C 
HETATM   16  C   UNL     1      39.759 -13.648   2.753  1.00  0.00     0.009 A 
HETATM   17  C   UNL     1      40.543 -12.517   2.970  1.00  0.00     0.001 A 
HETATM   18  C   UNL     1      41.910 -12.562   2.710  1.00  0.00     0.003 A 
HETATM   19  C   UNL     1      42.500 -13.739   2.244  1.00  0.00     0.037 A 
ENDBRANCH  12  13
ENDBRANCH  11  12
ENDBRANCH   8  11
ENDBRANCH   1   7
BRANCH   2  20
HETATM   20  C   UNL     1      44.455 -19.088   5.747  1.00  0.00     0.254 C 
HETATM   21  N   UNL     1      43.237 -18.856   6.340  1.00  0.00    -0.351 N 
HETATM   22  H   UNL     1      42.417 -19.393   6.090  1.00  0.00     0.163 HD
HETATM   23  O   UNL     1      45.447 -18.397   5.967  1.00  0.00    -0.268 OA
BRANCH  21  24
HETATM   24  C   UNL     1      43.055 -17.841   7.351  1.00  0.00     0.187 C 
BRANCH  24  25
HETATM   25  C   UNL     1      42.410 -16.657   6.728  1.00  0.00     0.070 A 
HETATM   26  O   UNL     1      41.050 -16.698   6.587  1.00  0.00    -0.325 OA
HETATM   27  C   UNL     1      40.678 -15.536   5.991  1.00  0.00     0.142 A 
HETATM   28  C   UNL     1      41.776 -14.747   5.745  1.00  0.00     0.027 A 
HETATM   29  C   UNL     1      42.896 -15.469   6.221  1.00  0.00     0.036 A 
ENDBRANCH  24  25
ENDBRANCH  21  24
ENDBRANCH   2  20
TORSDOF 7
ENDMDL
MODEL 5
REMARK VINA RESULT:      -8.0      2.348      6.646
REMARK  7 active torsions:
REMARK  status: ('A' for Active; 'I' for Inactive)
REMARK    1  A    between atoms: C_3  and  O_4 
REMARK    2  A    between atoms: O_4  and  C_5 
REMARK    3  A    between atoms: C_5  and  C_6 
REMARK       I    between atoms: C_6  and  N_7 
REMARK    4  A    between atoms: N_7  and  C_8 
REMARK    5  A    between atoms: C_9  and  C_10 
REMARK       I    between atoms: C_10  and  N_11 
REMARK    6  A    between atoms: N_11  and  C_12 
REMARK    7  A    between atoms: C_12  and  C_13 
ROOT
HETATM    1  C   UNL     1      41.425 -15.098  -0.171  1.00  0.00     0.050 A 
HETATM    2  C   UNL     1      40.850 -14.212   0.769  1.00  0.00     0.058 A 
HETATM    3  C   UNL     1      39.706 -13.468   0.423  1.00  0.00     0.019 A 
HETATM    4  C   UNL     1      39.160 -13.562  -0.855  1.00  0.00     0.001 A 
HETATM    5  C   UNL     1      39.744 -14.404  -1.793  1.00  0.00     0.002 A 
HETATM    6  C   UNL     1      40.862 -15.169  -1.452  1.00  0.00     0.030 A 
ENDROOT
BRANCH   1   7
HETATM    7  N   UNL     1      42.510 -15.926   0.216  1.00  0.00    -0.324 N 
HETATM    8  C   UNL     1      42.454 -17.109   0.932  1.00  0.00     0.246 C 
HETATM    9  O   UNL     1      41.429 -17.748   1.164  1.00  0.00    -0.271 OA
HETATM   10  H   UNL     1      43.429 -15.587  -0.078  1.00  0.00     0.169 HD
BRANCH   8  11
HETATM   11  C   UNL     1      43.819 -17.586   1.432  1.00  0.00     0.278 C 
BRANCH  11  12
HETATM   12  O   UNL     1      43.592 -18.240   2.676  1.00  0.00    -0.342 OA
BRANCH  12  13
HETATM   13  C   UNL     1      43.865 -19.575   2.769  1.00  0.00     0.075 A 
HETATM   14  C   UNL     1      44.509 -19.982   3.951  1.00  0.00    -0.029 A 
HETATM   15  C   UNL     1      44.818 -19.000   5.049  1.00  0.00     0.051 C 
HETATM   16  C   UNL     1      44.809 -21.340   4.141  1.00  0.00     0.009 A 
HETATM   17  C   UNL     1      44.501 -22.277   3.158  1.00  0.00     0.001 A 
HETATM   18  C   UNL     1      43.886 -21.866   1.978  1.00  0.00     0.003 A 
HETATM   19  C   UNL     1      43.567 -20.520   1.782  1.00  0.00     0.037 A 
ENDBRANCH  12  13
ENDBRANCH  11  12
ENDBRANCH   8  11
ENDBRANCH   1   7
BRANCH   2  20
HETATM   20  C   UNL     1      41.451 -14.055   2.131  1.00  0.00     0.254 C 
HETATM   21  N   UNL     1      40.602 -14.222   3.198  1.00  0.00    -0.351 N 
HETATM   22  H   UNL     1      39.616 -14.404   3.066  1.00  0.00     0.163 HD
HETATM   23  O   UNL     1      42.634 -13.747   2.260  1.00  0.00    -0.268 OA
BRANCH  21  24
HETATM   24  C   UNL     1      41.063 -14.151   4.565  1.00  0.00     0.187 C 
BRANCH  24  25
HETATM   25  C   UNL     1      41.264 -15.532   5.073  1.00  0.00     0.070 A 
HETATM   26  O   UNL     1      41.677 -15.660   6.372  1.00  0.00    -0.325 OA
HETATM   27  C   UNL     1      41.808 -16.988   6.618  1.00  0.00     0.142 A 
HETATM   28  C   UNL     1      41.488 -17.720   5.499  1.00  0.00     0.027 A 
HETATM   29  C   UNL     1      41.136 -16.781   4.500  1.00  0.00     0.036 A 
ENDBRANCH  24  25
ENDBRANCH  21  24
ENDBRANCH   2  20
TORSDOF 7
ENDMDL
MODEL 6
REMARK VINA RESULT:      -8.0      1.518      5.109
REMARK  7 active torsions:
REMARK  status: ('A' for Active; 'I' for Inactive)
REMARK    1  A    between atoms: C_3  and  O_4 
REMARK    2  A    between atoms: O_4  and  C_5 
REMARK    3  A    between atoms: C_5  and  C_6 
REMARK       I    between atoms: C_6  and  N_7 
REMARK    4  A    between atoms: N_7  and  C_8 
REMARK    5  A    between atoms: C_9  and  C_10 
REMARK       I    between atoms: C_10  and  N_11 
REMARK    6  A    between atoms: N_11  and  C_12 
REMARK    7  A    between atoms: C_12  and  C_13 
ROOT
HETATM    1  C   UNL     1      44.236 -19.922   3.273  1.00  0.00     0.050 A 
HETATM    2  C   UNL     1      44.491 -20.177   4.641  1.00  0.00     0.058 A 
HETATM    3  C   UNL     1      44.784 -21.487   5.067  1.00  0.00     0.019 A 
HETATM    4  C   UNL     1      44.781 -22.544   4.159  1.00  0.00     0.001 A 
HETATM    5  C   UNL     1      44.495 -22.302   2.821  1.00  0.00     0.002 A 
HETATM    6  C   UNL     1      44.232 -21.003   2.382  1.00  0.00     0.030 A 
ENDROOT
BRANCH   1   7
HETATM    7  N   UNL     1      44.049 -18.586   2.831  1.00  0.00    -0.324 N 
HETATM    8  C   UNL     1      42.894 -17.828   2.905  1.00  0.00     0.246 C 
HETATM    9  O   UNL     1      41.898 -18.117   3.565  1.00  0.00    -0.271 OA
HETATM   10  H   UNL     1      44.878 -18.159   2.412  1.00  0.00     0.169 HD
BRANCH   8  11
HETATM   11  C   UNL     1      42.951 -16.546   2.072  1.00  0.00     0.278 C 
BRANCH  11  12
HETATM   12  O   UNL     1      41.876 -16.615   1.143  1.00  0.00    -0.342 OA
BRANCH  12  13
HETATM   13  C   UNL     1      40.899 -15.662   1.205  1.00  0.00     0.075 A 
HETATM   14  C   UNL     1      40.562 -15.057  -0.020  1.00  0.00    -0.029 A 
HETATM   15  C   UNL     1      41.211 -15.488  -1.307  1.00  0.00     0.051 C 
HETATM   16  C   UNL     1      39.554 -14.082  -0.053  1.00  0.00     0.009 A 
HETATM   17  C   UNL     1      38.909 -13.690   1.118  1.00  0.00     0.001 A 
HETATM   18  C   UNL     1      39.263 -14.273   2.332  1.00  0.00     0.003 A 
HETATM   19  C   UNL     1      40.255 -15.256   2.378  1.00  0.00     0.037 A 
ENDBRANCH  12  13
ENDBRANCH  11  12
ENDBRANCH   8  11
ENDBRANCH   1   7
BRANCH   2  20
HETATM   20  C   UNL     1      44.447 -19.066   5.642  1.00  0.00     0.254 C 
HETATM   21  N   UNL     1      43.248 -18.865   6.282  1.00  0.00    -0.351 N 
HETATM   22  H   UNL     1      42.430 -19.416   6.059  1.00  0.00     0.163 HD
HETATM   23  O   UNL     1      45.433 -18.355   5.830  1.00  0.00    -0.268 OA
BRANCH  21  24
HETATM   24  C   UNL     1      43.084 -17.862   7.309  1.00  0.00     0.187 C 
BRANCH  24  25
HETATM   25  C   UNL     1      42.431 -16.670   6.712  1.00  0.00     0.070 A 
HETATM   26  O   UNL     1      41.066 -16.693   6.622  1.00  0.00    -0.325 OA
HETATM   27  C   UNL     1      40.687 -15.525   6.042  1.00  0.00     0.142 A 
HETATM   28  C   UNL     1      41.785 -14.750   5.756  1.00  0.00     0.027 A 
HETATM   29  C   UNL     1      42.913 -15.487   6.188  1.00  0.00     0.036 A 
ENDBRANCH  24  25
ENDBRANCH  21  24
ENDBRANCH   2  20
TORSDOF 7
ENDMDL
MODEL 7
REMARK VINA RESULT:      -7.9      2.119      6.789
REMARK  7 active torsions:
REMARK  status: ('A' for Active; 'I' for Inactive)
REMARK    1  A    between atoms: C_3  and  O_4 
REMARK    2  A    between atoms: O_4  and  C_5 
REMARK    3  A    between atoms: C_5  and  C_6 
REMARK       I    between atoms: C_6  and  N_7 
REMARK    4  A    between atoms: N_7  and  C_8 
REMARK    5  A    between atoms: C_9  and  C_10 
REMARK       I    between atoms: C_10  and  N_11 
REMARK    6  A    between atoms: N_11  and  C_12 
REMARK    7  A    between atoms: C_12  and  C_13 
ROOT
HETATM    1  C   UNL     1      40.960 -14.641   1.276  1.00  0.00     0.050 A 
HETATM    2  C   UNL     1      41.048 -13.808   2.415  1.00  0.00     0.058 A 
HETATM    3  C   UNL     1      39.960 -12.988   2.770  1.00  0.00     0.019 A 
HETATM    4  C   UNL     1      38.811 -12.954   1.981  1.00  0.00     0.001 A 
HETATM    5  C   UNL     1      38.736 -13.744   0.840  1.00  0.00     0.002 A 
HETATM    6  C   UNL     1      39.798 -14.584   0.495  1.00  0.00     0.030 A 
ENDROOT
BRANCH   1   7
HETATM    7  N   UNL     1      42.014 -15.546   0.983  1.00  0.00    -0.324 N 
HETATM    8  C   UNL     1      41.996 -16.925   1.098  1.00  0.00     0.246 C 
HETATM    9  O   UNL     1      40.989 -17.608   1.268  1.00  0.00    -0.271 OA
HETATM   10  H   UNL     1      42.874 -15.102   0.654  1.00  0.00     0.169 HD
BRANCH   8  11
HETATM   11  C   UNL     1      43.382 -17.563   0.990  1.00  0.00     0.278 C 
BRANCH  11  12
HETATM   12  O   UNL     1      43.248 -18.908   1.437  1.00  0.00    -0.342 OA
BRANCH  12  13
HETATM   13  C   UNL     1      43.794 -19.252   2.641  1.00  0.00     0.075 A 
HETATM   14  C   UNL     1      44.165 -20.603   2.776  1.00  0.00    -0.029 A 
HETATM   15  C   UNL     1      44.009 -21.571   1.635  1.00  0.00     0.051 C 
HETATM   16  C   UNL     1      44.753 -21.040   3.972  1.00  0.00     0.009 A 
HETATM   17  C   UNL     1      44.944 -20.157   5.031  1.00  0.00     0.001 A 
HETATM   18  C   UNL     1      44.553 -18.827   4.903  1.00  0.00     0.003 A 
HETATM   19  C   UNL     1      43.980 -18.373   3.712  1.00  0.00     0.037 A 
ENDBRANCH  12  13
ENDBRANCH  11  12
ENDBRANCH   8  11
ENDBRANCH   1   7
BRANCH   2  20
HETATM   20  C   UNL     1      42.291 -13.788   3.247  1.00  0.00     0.254 C 
HETATM   21  N   UNL     1      42.166 -14.214   4.547  1.00  0.00    -0.351 N 
HETATM   22  H   UNL     1      41.271 -14.490   4.929  1.00  0.00     0.163 HD
HETATM   23  O   UNL     1      43.348 -13.365   2.781  1.00  0.00    -0.268 OA
BRANCH  21  24
HETATM   24  C   UNL     1      43.297 -14.296   5.442  1.00  0.00     0.187 C 
BRANCH  24  25
HETATM   25  C   UNL     1      43.119 -15.472   6.331  1.00  0.00     0.070 A 
HETATM   26  O   UNL     1      41.990 -16.223   6.144  1.00  0.00    -0.325 OA
HETATM   27  C   UNL     1      42.023 -17.224   7.060  1.00  0.00     0.142 A 
HETATM   28  C   UNL     1      43.154 -17.132   7.835  1.00  0.00     0.027 A 
HETATM   29  C   UNL     1      43.864 -16.000   7.366  1.00  0.00     0.036 A 
ENDBRANCH  24  25
ENDBRANCH  21  24
ENDBRANCH   2  20
TORSDOF 7
ENDMDL
MODEL 8
REMARK VINA RESULT:      -7.9      1.932      5.645
REMARK  7 active torsions:
REMARK  status: ('A' for Active; 'I' for Inactive)
REMARK    1  A    between atoms: C_3  and  O_4 
REMARK    2  A    between atoms: O_4  and  C_5 
REMARK    3  A    between atoms: C_5  and  C_6 
REMARK       I    between atoms: C_6  and  N_7 
REMARK    4  A    between atoms: N_7  and  C_8 
REMARK    5  A    between atoms: C_9  and  C_10 
REMARK       I    between atoms: C_10  and  N_11 
REMARK    6  A    between atoms: N_11  and  C_12 
REMARK    7  A    between atoms: C_12  and  C_13 
ROOT
HETATM    1  C   UNL     1      40.223 -15.278   2.227  1.00  0.00     0.050 A 
HETATM    2  C   UNL     1      41.427 -15.326   1.488  1.00  0.00     0.058 A 
HETATM    3  C   UNL     1      41.457 -14.845   0.165  1.00  0.00     0.019 A 
HETATM    4  C   UNL     1      40.298 -14.363  -0.440  1.00  0.00     0.001 A 
HETATM    5  C   UNL     1      39.105 -14.349   0.272  1.00  0.00     0.002 A 
HETATM    6  C   UNL     1      39.070 -14.797   1.595  1.00  0.00     0.030 A 
ENDROOT
BRANCH   1   7
HETATM    7  N   UNL     1      40.222 -15.662   3.594  1.00  0.00    -0.324 N 
HETATM    8  C   UNL     1      40.319 -14.838   4.701  1.00  0.00     0.246 C 
HETATM    9  O   UNL     1      40.206 -13.614   4.684  1.00  0.00    -0.271 OA
HETATM   10  H   UNL     1      40.141 -16.669   3.751  1.00  0.00     0.169 HD
BRANCH   8  11
HETATM   11  C   UNL     1      40.587 -15.594   6.003  1.00  0.00     0.278 C 
BRANCH  11  12
HETATM   12  O   UNL     1      41.979 -15.466   6.270  1.00  0.00    -0.342 OA
BRANCH  12  13
HETATM   13  C   UNL     1      42.766 -16.579   6.171  1.00  0.00     0.075 A 
HETATM   14  C   UNL     1      44.119 -16.399   6.515  1.00  0.00    -0.029 A 
HETATM   15  C   UNL     1      44.627 -15.071   7.008  1.00  0.00     0.051 C 
HETATM   16  C   UNL     1      44.995 -17.493   6.463  1.00  0.00     0.009 A 
HETATM   17  C   UNL     1      44.544 -18.742   6.045  1.00  0.00     0.001 A 
HETATM   18  C   UNL     1      43.210 -18.911   5.682  1.00  0.00     0.003 A 
HETATM   19  C   UNL     1      42.322 -17.834   5.744  1.00  0.00     0.037 A 
ENDBRANCH  12  13
ENDBRANCH  11  12
ENDBRANCH   8  11
ENDBRANCH   1   7
BRANCH   2  20
HETATM   20  C   UNL     1      42.672 -15.888   2.098  1.00  0.00     0.254 C 
HETATM   21  N   UNL     1      42.973 -17.192   1.786  1.00  0.00    -0.351 N 
HETATM   22  H   UNL     1      42.362 -17.751   1.205  1.00  0.00     0.163 HD
HETATM   23  O   UNL     1      43.349 -15.213   2.872  1.00  0.00    -0.268 OA
BRANCH  21  24
HETATM   24  C   UNL     1      44.173 -17.840   2.264  1.00  0.00     0.187 C 
BRANCH  24  25
HETATM   25  C   UNL     1      43.974 -19.310   2.212  1.00  0.00     0.070 A 
HETATM   26  O   UNL     1      44.953 -20.087   2.772  1.00  0.00    -0.325 OA
HETATM   27  C   UNL     1      44.578 -21.381   2.603  1.00  0.00     0.142 A 
HETATM   28  C   UNL     1      43.375 -21.452   1.941  1.00  0.00     0.027 A 
HETATM   29  C   UNL     1      42.983 -20.116   1.689  1.00  0.00     0.036 A 
ENDBRANCH  24  25
ENDBRANCH  21  24
ENDBRANCH   2  20
TORSDOF 7
ENDMDL
MODEL 9
REMARK VINA RESULT:      -7.6      2.303      5.986
REMARK  7 active torsions:
REMARK  status: ('A' for Active; 'I' for Inactive)
REMARK    1  A    between atoms: C_3  and  O_4 
REMARK    2  A    between atoms: O_4  and  C_5 
REMARK    3  A    between atoms: C_5  and  C_6 
REMARK       I    between atoms: C_6  and  N_7 
REMARK    4  A    between atoms: N_7  and  C_8 
REMARK    5  A    between atoms: C_9  and  C_10 
REMARK       I    between atoms: C_10  and  N_11 
REMARK    6  A    between atoms: N_11  and  C_12 
REMARK    7  A    between atoms: C_12  and  C_13 
ROOT
HETATM    1  C   UNL     1      40.050 -14.523   4.374  1.00  0.00     0.050 A 
HETATM    2  C   UNL     1      39.870 -14.215   3.006  1.00  0.00     0.058 A 
HETATM    3  C   UNL     1      39.388 -12.946   2.631  1.00  0.00     0.019 A 
HETATM    4  C   UNL     1      39.045 -12.004   3.598  1.00  0.00     0.001 A 
HETATM    5  C   UNL     1      39.186 -12.316   4.944  1.00  0.00     0.002 A 
HETATM    6  C   UNL     1      39.690 -13.562   5.328  1.00  0.00     0.030 A 
ENDROOT
BRANCH   1   7
HETATM    7  N   UNL     1      40.638 -15.761   4.744  1.00  0.00    -0.324 N 
HETATM    8  C   UNL     1      41.971 -16.015   5.011  1.00  0.00     0.246 C 
HETATM    9  O   UNL     1      42.835 -15.156   5.179  1.00  0.00    -0.271 OA
HETATM   10  H   UNL     1      39.978 -16.539   4.814  1.00  0.00     0.169 HD
BRANCH   8  11
HETATM   11  C   UNL     1      42.306 -17.505   5.085  1.00  0.00     0.278 C 
BRANCH  11  12
HETATM   12  O   UNL     1      43.509 -17.691   4.348  1.00  0.00    -0.342 OA
BRANCH  12  13
HETATM   13  C   UNL     1      43.903 -18.966   4.055  1.00  0.00     0.075 A 
HETATM   14  C   UNL     1      43.803 -19.338   2.702  1.00  0.00    -0.029 A 
HETATM   15  C   UNL     1      43.339 -18.359   1.658  1.00  0.00     0.051 C 
HETATM   16  C   UNL     1      44.206 -20.622   2.307  1.00  0.00     0.009 A 
HETATM   17  C   UNL     1      44.674 -21.537   3.247  1.00  0.00     0.001 A 
HETATM   18  C   UNL     1      44.749 -21.174   4.590  1.00  0.00     0.003 A 
HETATM   19  C   UNL     1      44.365 -19.893   4.995  1.00  0.00     0.037 A 
ENDBRANCH  12  13
ENDBRANCH  11  12
ENDBRANCH   8  11
ENDBRANCH   1   7
BRANCH   2  20
HETATM   20  C   UNL     1      40.182 -15.229   1.951  1.00  0.00     0.254 C 
HETATM   21  N   UNL     1      40.965 -14.804   0.905  1.00  0.00    -0.351 N 
HETATM   22  H   UNL     1      41.280 -13.845   0.836  1.00  0.00     0.163 HD
HETATM   23  O   UNL     1      39.713 -16.363   2.017  1.00  0.00    -0.268 OA
BRANCH  21  24
HETATM   24  C   UNL     1      41.386 -15.695  -0.151  1.00  0.00     0.187 C 
BRANCH  24  25
HETATM   25  C   UNL     1      40.923 -15.147  -1.451  1.00  0.00     0.070 A 
HETATM   26  O   UNL     1      40.443 -13.865  -1.445  1.00  0.00    -0.325 OA
HETATM   27  C   UNL     1      40.069 -13.576  -2.718  1.00  0.00     0.142 A 
HETATM   28  C   UNL     1      40.298 -14.651  -3.544  1.00  0.00     0.027 A 
HETATM   29  C   UNL     1      40.851 -15.666  -2.728  1.00  0.00     0.036 A 
ENDBRANCH  24  25
ENDBRANCH  21  24
ENDBRANCH   2  20
TORSDOF 7
ENDMDL
MODEL 10
REMARK VINA RESULT:      -7.6      1.543      6.633
REMARK  7 active torsions:
REMARK  status: ('A' for Active; 'I' for Inactive)
REMARK    1  A    between atoms: C_3  and  O_4 
REMARK    2  A    between atoms: O_4  and  C_5 
REMARK    3  A    between atoms: C_5  and  C_6 
REMARK       I    between atoms: C_6  and  N_7 
REMARK    4  A    between atoms: N_7  and  C_8 
REMARK    5  A    between atoms: C_9  and  C_10 
REMARK       I    between atoms: C_10  and  N_11 
REMARK    6  A    between atoms: N_11  and  C_12 
REMARK    7  A    between atoms: C_12  and  C_13 
ROOT
HETATM    1  C   UNL     1      43.189 -15.961   4.569  1.00  0.00     0.050 A 
HETATM    2  C   UNL     1      43.715 -16.773   5.600  1.00  0.00     0.058 A 
HETATM    3  C   UNL     1      44.333 -16.177   6.716  1.00  0.00     0.019 A 
HETATM    4  C   UNL     1      44.473 -14.793   6.793  1.00  0.00     0.001 A 
HETATM    5  C   UNL     1      43.991 -13.994   5.764  1.00  0.00     0.002 A 
HETATM    6  C   UNL     1      43.349 -14.572   4.666  1.00  0.00     0.030 A 
ENDROOT
BRANCH   1   7
HETATM    7  N   UNL     1      42.470 -16.558   3.501  1.00  0.00    -0.324 N 
HETATM    8  C   UNL     1      42.896 -16.741   2.197  1.00  0.00     0.246 C 
HETATM    9  O   UNL     1      44.054 -16.607   1.805  1.00  0.00    -0.271 OA
HETATM   10  H   UNL     1      41.533 -16.882   3.750  1.00  0.00     0.169 HD
BRANCH   8  11
HETATM   11  C   UNL     1      41.773 -17.141   1.239  1.00  0.00     0.278 C 
BRANCH  11  12
HETATM   12  O   UNL     1      41.005 -15.967   0.997  1.00  0.00    -0.342 OA
BRANCH  12  13
HETATM   13  C   UNL     1      41.207 -15.285  -0.169  1.00  0.00     0.075 A 
HETATM   14  C   UNL     1      41.657 -13.959  -0.027  1.00  0.00    -0.029 A 
HETATM   15  C   UNL     1      41.941 -13.374   1.330  1.00  0.00     0.051 C 
HETATM   16  C   UNL     1      41.911 -13.191  -1.173  1.00  0.00     0.009 A 
HETATM   17  C   UNL     1      41.692 -13.719  -2.442  1.00  0.00     0.001 A 
HETATM   18  C   UNL     1      41.223 -15.023  -2.578  1.00  0.00     0.003 A 
HETATM   19  C   UNL     1      40.981 -15.806  -1.446  1.00  0.00     0.037 A 
ENDBRANCH  12  13
ENDBRANCH  11  12
ENDBRANCH   8  11
ENDBRANCH   1   7
BRANCH   2  20
HETATM   20  C   UNL     1      43.623 -18.264   5.514  1.00  0.00     0.254 C 
HETATM   21  N   UNL     1      44.771 -18.929   5.155  1.00  0.00    -0.351 N 
HETATM   22  H   UNL     1      45.621 -18.431   4.925  1.00  0.00     0.163 HD
HETATM   23  O   UNL     1      42.554 -18.837   5.714  1.00  0.00    -0.268 OA
BRANCH  21  24
HETATM   24  C   UNL     1      44.835 -20.371   5.087  1.00  0.00     0.187 C 
BRANCH  24  25
HETATM   25  C   UNL     1      44.483 -20.799   3.710  1.00  0.00     0.070 A 
HETATM   26  O   UNL     1      44.057 -19.825   2.848  1.00  0.00    -0.325 OA
HETATM   27  C   UNL     1      43.782 -20.433   1.666  1.00  0.00     0.142 A 
HETATM   28  C   UNL     1      44.022 -21.783   1.751  1.00  0.00     0.027 A 
HETATM   29  C   UNL     1      44.476 -22.022   3.070  1.00  0.00     0.036 A 
ENDBRANCH  24  25
ENDBRANCH  21  24
ENDBRANCH   2  20
TORSDOF 7
ENDMDL
