MODEL 1
REMARK VINA RESULT:      -8.5      0.000      0.000
REMARK  11 active torsions:
REMARK  status: ('A' for Active; 'I' for Inactive)
REMARK    1  A    between atoms: C_2  and  O_3 
REMARK    2  A    between atoms: C_2  and  C_4 
REMARK    3  A    between atoms: C_8  and  C_9 
REMARK    4  A    between atoms: C_12  and  C_13 
REMARK    5  A    between atoms: C_13  and  C_14 
REMARK    6  A    between atoms: C_14  and  N_15 
REMARK    7  A    between atoms: C_14  and  C_29 
REMARK       I    between atoms: N_15  and  C_16 
REMARK    8  A    between atoms: C_16  and  C_17 
REMARK    9  A    between atoms: C_21  and  O_22 
REMARK   10  A    between atoms: O_22  and  C_23 
REMARK   11  A    between atoms: C_29  and  N_30 
ROOT
HETATM    1  C   UNL     1      39.471 -14.276   2.713  1.00  0.00     0.114 C 
ENDROOT
BRANCH   1   2
HETATM    2  C   UNL     1      40.390 -13.033   2.638  1.00  0.00     0.065 C 
BRANCH   2   3
HETATM    3  C   UNL     1      40.757 -12.404   3.955  1.00  0.00    -0.056 A 
HETATM    4  C   UNL     1      39.830 -11.648   4.682  1.00  0.00     0.008 A 
HETATM    5  C   UNL     1      40.171 -11.132   5.938  1.00  0.00     0.014 A 
HETATM    6  C   UNL     1      41.437 -11.364   6.495  1.00  0.00    -0.006 A 
HETATM    7  C   UNL     1      42.368 -12.096   5.749  1.00  0.00     0.014 A 
HETATM    8  C   UNL     1      42.032 -12.614   4.495  1.00  0.00     0.008 A 
BRANCH   6   9
HETATM    9  C   UNL     1      41.738 -10.878   7.835  1.00  0.00     0.085 A 
HETATM   10  C   UNL     1      40.880 -10.177   8.657  1.00  0.00     0.130 A 
HETATM   11  N   UNL     1      41.602  -9.884   9.786  1.00  0.00    -0.315 N 
HETATM   12  C   UNL     1      42.870 -10.424   9.608  1.00  0.00     0.143 A 
HETATM   13  C   UNL     1      41.208  -9.181  10.917  1.00  0.00     0.098 A 
HETATM   14  C   UNL     1      43.836 -10.242  10.664  1.00  0.00     0.017 A 
HETATM   15  N   UNL     1      42.967 -11.029   8.438  1.00  0.00    -0.228 NA
HETATM   16  C   UNL     1      43.429  -9.562  11.766  1.00  0.00     0.015 A 
HETATM   17  C   UNL     1      42.092  -9.007  11.910  1.00  0.00     0.018 A 
BRANCH  14  18
HETATM   18  C   UNL     1      45.244 -10.807  10.557  1.00  0.00     0.150 C 
HETATM   19  C   UNL     1      45.254 -12.322  10.737  1.00  0.00     0.044 C 
BRANCH  18  20
HETATM   20  O   UNL     1      45.823 -10.497   9.287  1.00  0.00    -0.391 OA
HETATM   21  H   UNL     1      46.454  -9.772   9.431  1.00  0.00     0.210 HD
ENDBRANCH  18  20
ENDBRANCH  14  18
ENDBRANCH   6   9
ENDBRANCH   2   3
ENDBRANCH   1   2
BRANCH   1  22
HETATM   22  N   UNL     1      40.361 -15.463   2.733  1.00  0.00    -0.350 N 
HETATM   23  C   UNL     1      40.884 -16.077   3.849  1.00  0.00     0.252 C 
HETATM   24  O   UNL     1      40.586 -15.722   4.985  1.00  0.00    -0.268 OA
HETATM   25  H   UNL     1      40.875 -15.630   1.872  1.00  0.00     0.163 HD
BRANCH  23  26
HETATM   26  C   UNL     1      41.831 -17.204   3.612  1.00  0.00     0.033 A 
HETATM   27  C   UNL     1      42.432 -17.817   4.714  1.00  0.00     0.043 A 
HETATM   28  C   UNL     1      43.327 -18.876   4.522  1.00  0.00     0.068 A 
HETATM   29 CL   UNL     1      44.044 -19.582   5.928  1.00  0.00    -0.081 Cl
HETATM   30  C   UNL     1      43.639 -19.336   3.232  1.00  0.00     0.091 A 
HETATM   31  C   UNL     1      43.008 -18.741   2.139  1.00  0.00     0.039 A 
HETATM   32  C   UNL     1      42.107 -17.684   2.325  1.00  0.00     0.020 A 
BRANCH  30  33
HETATM   33  O   UNL     1      44.530 -20.371   3.144  1.00  0.00    -0.345 OA
BRANCH  33  34
HETATM   34  C   UNL     1      44.065 -21.698   2.865  1.00  0.00     0.121 C 
HETATM   35  C   UNL     1      44.428 -22.104   1.439  1.00  0.00     0.040 C 
HETATM   36  C   UNL     1      44.761 -22.623   3.862  1.00  0.00     0.040 C 
ENDBRANCH  33  34
ENDBRANCH  30  33
ENDBRANCH  23  26
ENDBRANCH   1  22
BRANCH   1  37
HETATM   37  C   UNL     1      38.443 -14.266   1.545  1.00  0.00     0.254 C 
BRANCH  37  38
HETATM   38  N   UNL     1      37.956 -12.894   1.247  1.00  0.00    -0.077 N 
HETATM   39  H   UNL     1      38.393 -12.558   0.361  1.00  0.00     0.274 HD
HETATM   40  H   UNL     1      36.943 -12.850   1.091  1.00  0.00     0.274 HD
HETATM   41  H   UNL     1      38.210 -12.215   1.971  1.00  0.00     0.274 HD
ENDBRANCH  37  38
ENDBRANCH   1  37
TORSDOF 11
ENDMDL
MODEL 2
REMARK VINA RESULT:      -8.5      1.573      1.992
REMARK  11 active torsions:
REMARK  status: ('A' for Active; 'I' for Inactive)
REMARK    1  A    between atoms: C_2  and  O_3 
REMARK    2  A    between atoms: C_2  and  C_4 
REMARK    3  A    between atoms: C_8  and  C_9 
REMARK    4  A    between atoms: C_12  and  C_13 
REMARK    5  A    between atoms: C_13  and  C_14 
REMARK    6  A    between atoms: C_14  and  N_15 
REMARK    7  A    between atoms: C_14  and  C_29 
REMARK       I    between atoms: N_15  and  C_16 
REMARK    8  A    between atoms: C_16  and  C_17 
REMARK    9  A    between atoms: C_21  and  O_22 
REMARK   10  A    between atoms: O_22  and  C_23 
REMARK   11  A    between atoms: C_29  and  N_30 
ROOT
HETATM    1  C   UNL     1      41.392 -14.638   1.332  1.00  0.00     0.114 C 
ENDROOT
BRANCH   1   2
HETATM    2  C   UNL     1      42.204 -13.377   1.714  1.00  0.00     0.065 C 
BRANCH   2   3
HETATM    3  C   UNL     1      42.047 -12.895   3.131  1.00  0.00    -0.056 A 
HETATM    4  C   UNL     1      42.784 -13.462   4.176  1.00  0.00     0.008 A 
HETATM    5  C   UNL     1      42.674 -12.950   5.474  1.00  0.00     0.014 A 
HETATM    6  C   UNL     1      41.836 -11.861   5.754  1.00  0.00    -0.006 A 
HETATM    7  C   UNL     1      41.080 -11.319   4.708  1.00  0.00     0.014 A 
HETATM    8  C   UNL     1      41.187 -11.826   3.410  1.00  0.00     0.008 A 
BRANCH   6   9
HETATM    9  C   UNL     1      41.799 -11.302   7.098  1.00  0.00     0.085 A 
HETATM   10  C   UNL     1      40.717 -10.690   7.695  1.00  0.00     0.130 A 
HETATM   11  N   UNL     1      41.154 -10.275   8.926  1.00  0.00    -0.315 N 
HETATM   12  C   UNL     1      42.486 -10.657   9.033  1.00  0.00     0.143 A 
HETATM   13  C   UNL     1      40.459  -9.593   9.917  1.00  0.00     0.098 A 
HETATM   14  C   UNL     1      43.189 -10.325  10.249  1.00  0.00     0.017 A 
HETATM   15  N   UNL     1      42.889 -11.281   7.940  1.00  0.00    -0.228 NA
HETATM   16  C   UNL     1      42.489  -9.668  11.209  1.00  0.00     0.015 A 
HETATM   17  C   UNL     1      41.096  -9.280  11.055  1.00  0.00     0.018 A 
BRANCH  14  18
HETATM   18  C   UNL     1      44.645 -10.712  10.455  1.00  0.00     0.150 C 
HETATM   19  C   UNL     1      44.782 -12.176  10.863  1.00  0.00     0.044 C 
BRANCH  18  20
HETATM   20  O   UNL     1      45.402 -10.502   9.261  1.00  0.00    -0.391 OA
HETATM   21  H   UNL     1      44.925  -9.840   8.733  1.00  0.00     0.210 HD
ENDBRANCH  18  20
ENDBRANCH  14  18
ENDBRANCH   6   9
ENDBRANCH   2   3
ENDBRANCH   1   2
BRANCH   1  22
HETATM   22  N   UNL     1      42.166 -15.807   1.818  1.00  0.00    -0.350 N 
HETATM   23  C   UNL     1      41.718 -16.790   2.671  1.00  0.00     0.252 C 
HETATM   24  O   UNL     1      40.557 -16.829   3.065  1.00  0.00    -0.268 OA
HETATM   25  H   UNL     1      43.176 -15.698   1.784  1.00  0.00     0.163 HD
BRANCH  23  26
HETATM   26  C   UNL     1      42.713 -17.818   3.091  1.00  0.00     0.033 A 
HETATM   27  C   UNL     1      43.415 -17.622   4.282  1.00  0.00     0.043 A 
HETATM   28  C   UNL     1      44.358 -18.569   4.701  1.00  0.00     0.068 A 
HETATM   29 CL   UNL     1      45.200 -18.260   6.179  1.00  0.00    -0.081 Cl
HETATM   30  C   UNL     1      44.617 -19.720   3.939  1.00  0.00     0.091 A 
HETATM   31  C   UNL     1      43.885 -19.924   2.767  1.00  0.00     0.039 A 
HETATM   32  C   UNL     1      42.937 -18.983   2.346  1.00  0.00     0.020 A 
BRANCH  30  33
HETATM   33  O   UNL     1      45.560 -20.584   4.424  1.00  0.00    -0.345 OA
BRANCH  33  34
HETATM   34  C   UNL     1      45.158 -21.802   5.064  1.00  0.00     0.121 C 
HETATM   35  C   UNL     1      44.070 -21.528   6.099  1.00  0.00     0.040 C 
HETATM   36  C   UNL     1      44.612 -22.713   3.966  1.00  0.00     0.040 C 
ENDBRANCH  33  34
ENDBRANCH  30  33
ENDBRANCH  23  26
ENDBRANCH   1  22
BRANCH   1  37
HETATM   37  C   UNL     1      41.094 -14.656  -0.195  1.00  0.00     0.254 C 
BRANCH  37  38
HETATM   38  N   UNL     1      41.288 -16.008  -0.780  1.00  0.00    -0.077 N 
HETATM   39  H   UNL     1      40.416 -16.299  -1.274  1.00  0.00     0.274 HD
HETATM   40  H   UNL     1      42.031 -16.040  -1.488  1.00  0.00     0.274 HD
HETATM   41  H   UNL     1      41.474 -16.726  -0.074  1.00  0.00     0.274 HD
ENDBRANCH  37  38
ENDBRANCH   1  37
TORSDOF 11
ENDMDL
MODEL 3
REMARK VINA RESULT:      -8.4      3.116     10.243
REMARK  11 active torsions:
REMARK  status: ('A' for Active; 'I' for Inactive)
REMARK    1  A    between atoms: C_2  and  O_3 
REMARK    2  A    between atoms: C_2  and  C_4 
REMARK    3  A    between atoms: C_8  and  C_9 
REMARK    4  A    between atoms: C_12  and  C_13 
REMARK    5  A    between atoms: C_13  and  C_14 
REMARK    6  A    between atoms: C_14  and  N_15 
REMARK    7  A    between atoms: C_14  and  C_29 
REMARK       I    between atoms: N_15  and  C_16 
REMARK    8  A    between atoms: C_16  and  C_17 
REMARK    9  A    between atoms: C_21  and  O_22 
REMARK   10  A    between atoms: O_22  and  C_23 
REMARK   11  A    between atoms: C_29  and  N_30 
ROOT
HETATM    1  C   UNL     1      40.548 -11.431   5.762  1.00  0.00     0.114 C 
ENDROOT
BRANCH   1   2
HETATM    2  C   UNL     1      41.834 -11.749   4.962  1.00  0.00     0.065 C 
BRANCH   2   3
HETATM    3  C   UNL     1      42.288 -13.183   4.985  1.00  0.00    -0.056 A 
HETATM    4  C   UNL     1      43.132 -13.661   5.994  1.00  0.00     0.008 A 
HETATM    5  C   UNL     1      43.485 -15.015   6.035  1.00  0.00     0.014 A 
HETATM    6  C   UNL     1      42.999 -15.918   5.078  1.00  0.00    -0.006 A 
HETATM    7  C   UNL     1      42.180 -15.426   4.056  1.00  0.00     0.014 A 
HETATM    8  C   UNL     1      41.824 -14.075   4.011  1.00  0.00     0.008 A 
BRANCH   6   9
HETATM    9  C   UNL     1      43.322 -17.334   5.190  1.00  0.00     0.085 A 
HETATM   10  C   UNL     1      43.321 -18.079   6.350  1.00  0.00     0.130 A 
HETATM   11  N   UNL     1      43.737 -19.335   5.988  1.00  0.00    -0.315 N 
HETATM   12  C   UNL     1      43.970 -19.305   4.618  1.00  0.00     0.143 A 
HETATM   13  C   UNL     1      43.922 -20.458   6.784  1.00  0.00     0.098 A 
HETATM   14  C   UNL     1      44.430 -20.517   3.985  1.00  0.00     0.017 A 
HETATM   15  N   UNL     1      43.721 -18.107   4.121  1.00  0.00    -0.228 NA
HETATM   16  C   UNL     1      44.595 -21.607   4.778  1.00  0.00     0.015 A 
HETATM   17  C   UNL     1      44.346 -21.594   6.211  1.00  0.00     0.018 A 
BRANCH  14  18
HETATM   18  C   UNL     1      44.701 -20.578   2.489  1.00  0.00     0.150 C 
HETATM   19  C   UNL     1      44.428 -21.970   1.928  1.00  0.00     0.044 C 
BRANCH  18  20
HETATM   20  O   UNL     1      43.886 -19.637   1.786  1.00  0.00    -0.391 OA
HETATM   21  H   UNL     1      43.001 -20.032   1.705  1.00  0.00     0.210 HD
ENDBRANCH  18  20
ENDBRANCH  14  18
ENDBRANCH   6   9
ENDBRANCH   2   3
ENDBRANCH   1   2
BRANCH   1  22
HETATM   22  N   UNL     1      40.946 -11.334   7.188  1.00  0.00    -0.350 N 
HETATM   23  C   UNL     1      41.715 -10.345   7.759  1.00  0.00     0.252 C 
HETATM   24  O   UNL     1      42.096  -9.369   7.121  1.00  0.00    -0.268 OA
HETATM   25  H   UNL     1      40.928 -12.211   7.700  1.00  0.00     0.163 HD
BRANCH  23  26
HETATM   26  C   UNL     1      42.060 -10.513   9.200  1.00  0.00     0.033 A 
HETATM   27  C   UNL     1      41.022 -10.623  10.128  1.00  0.00     0.043 A 
HETATM   28  C   UNL     1      41.315 -10.778  11.489  1.00  0.00     0.068 A 
HETATM   29 CL   UNL     1      39.985 -10.897  12.586  1.00  0.00    -0.081 Cl
HETATM   30  C   UNL     1      42.644 -10.824  11.943  1.00  0.00     0.091 A 
HETATM   31  C   UNL     1      43.675 -10.748  11.003  1.00  0.00     0.039 A 
HETATM   32  C   UNL     1      43.387 -10.598   9.641  1.00  0.00     0.020 A 
BRANCH  30  33
HETATM   33  O   UNL     1      42.833 -10.971  13.289  1.00  0.00    -0.345 OA
BRANCH  33  34
HETATM   34  C   UNL     1      43.078  -9.824  14.112  1.00  0.00     0.121 C 
HETATM   35  C   UNL     1      42.846  -8.539  13.320  1.00  0.00     0.040 C 
HETATM   36  C   UNL     1      42.092  -9.901  15.276  1.00  0.00     0.040 C 
ENDBRANCH  33  34
ENDBRANCH  30  33
ENDBRANCH  23  26
ENDBRANCH   1  22
BRANCH   1  37
HETATM   37  C   UNL     1      39.448 -12.495   5.475  1.00  0.00     0.254 C 
BRANCH  37  38
HETATM   38  N   UNL     1      39.209 -13.374   6.648  1.00  0.00    -0.077 N 
HETATM   39  H   UNL     1      39.669 -14.297   6.487  1.00  0.00     0.274 HD
HETATM   40  H   UNL     1      39.616 -13.009   7.516  1.00  0.00     0.274 HD
HETATM   41  H   UNL     1      38.215 -13.570   6.804  1.00  0.00     0.274 HD
ENDBRANCH  37  38
ENDBRANCH   1  37
TORSDOF 11
ENDMDL
MODEL 4
REMARK VINA RESULT:      -8.3      1.698      2.131
REMARK  11 active torsions:
REMARK  status: ('A' for Active; 'I' for Inactive)
REMARK    1  A    between atoms: C_2  and  O_3 
REMARK    2  A    between atoms: C_2  and  C_4 
REMARK    3  A    between atoms: C_8  and  C_9 
REMARK    4  A    between atoms: C_12  and  C_13 
REMARK    5  A    between atoms: C_13  and  C_14 
REMARK    6  A    between atoms: C_14  and  N_15 
REMARK    7  A    between atoms: C_14  and  C_29 
REMARK       I    between atoms: N_15  and  C_16 
REMARK    8  A    between atoms: C_16  and  C_17 
REMARK    9  A    between atoms: C_21  and  O_22 
REMARK   10  A    between atoms: O_22  and  C_23 
REMARK   11  A    between atoms: C_29  and  N_30 
ROOT
HETATM    1  C   UNL     1      39.803 -14.140   3.151  1.00  0.00     0.114 C 
ENDROOT
BRANCH   1   2
HETATM    2  C   UNL     1      40.737 -12.978   3.564  1.00  0.00     0.065 C 
BRANCH   2   3
HETATM    3  C   UNL     1      40.444 -12.336   4.894  1.00  0.00    -0.056 A 
HETATM    4  C   UNL     1      39.440 -12.830   5.733  1.00  0.00     0.008 A 
HETATM    5  C   UNL     1      39.233 -12.261   6.995  1.00  0.00     0.014 A 
HETATM    6  C   UNL     1      40.025 -11.195   7.447  1.00  0.00    -0.006 A 
HETATM    7  C   UNL     1      41.008 -10.688   6.589  1.00  0.00     0.014 A 
HETATM    8  C   UNL     1      41.219 -11.253   5.328  1.00  0.00     0.008 A 
BRANCH   6   9
HETATM    9  C   UNL     1      39.836 -10.673   8.793  1.00  0.00     0.085 A 
HETATM   10  C   UNL     1      38.745  -9.959   9.242  1.00  0.00     0.130 A 
HETATM   11  N   UNL     1      39.024  -9.630  10.543  1.00  0.00    -0.315 N 
HETATM   12  C   UNL     1      40.273 -10.162  10.837  1.00  0.00     0.143 A 
HETATM   13  C   UNL     1      38.258  -8.901  11.445  1.00  0.00     0.098 A 
HETATM   14  C   UNL     1      40.806  -9.945  12.160  1.00  0.00     0.017 A 
HETATM   15  N   UNL     1      40.775 -10.798   9.793  1.00  0.00    -0.228 NA
HETATM   16  C   UNL     1      40.038  -9.240  13.030  1.00  0.00     0.015 A 
HETATM   17  C   UNL     1      38.737  -8.694  12.680  1.00  0.00     0.018 A 
BRANCH  14  18
HETATM   18  C   UNL     1      42.162 -10.500  12.571  1.00  0.00     0.150 C 
HETATM   19  C   UNL     1      42.385 -10.375  14.075  1.00  0.00     0.044 C 
BRANCH  18  20
HETATM   20  O   UNL     1      42.279 -11.878  12.209  1.00  0.00    -0.391 OA
HETATM   21  H   UNL     1      41.680 -12.028  11.458  1.00  0.00     0.210 HD
ENDBRANCH  18  20
ENDBRANCH  14  18
ENDBRANCH   6   9
ENDBRANCH   2   3
ENDBRANCH   1   2
BRANCH   1  22
HETATM   22  N   UNL     1      40.643 -15.360   3.084  1.00  0.00    -0.350 N 
HETATM   23  C   UNL     1      41.058 -16.130   4.147  1.00  0.00     0.252 C 
HETATM   24  O   UNL     1      40.688 -15.905   5.295  1.00  0.00    -0.268 OA
HETATM   25  H   UNL     1      41.214 -15.444   2.247  1.00  0.00     0.163 HD
BRANCH  23  26
HETATM   26  C   UNL     1      41.978 -17.262   3.837  1.00  0.00     0.033 A 
HETATM   27  C   UNL     1      42.625 -17.908   4.892  1.00  0.00     0.043 A 
HETATM   28  C   UNL     1      43.496 -18.972   4.632  1.00  0.00     0.068 A 
HETATM   29 CL   UNL     1      44.274 -19.720   5.982  1.00  0.00    -0.081 Cl
HETATM   30  C   UNL     1      43.737 -19.406   3.317  1.00  0.00     0.091 A 
HETATM   31  C   UNL     1      43.059 -18.777   2.271  1.00  0.00     0.039 A 
HETATM   32  C   UNL     1      42.182 -17.715   2.527  1.00  0.00     0.020 A 
BRANCH  30  33
HETATM   33  O   UNL     1      44.609 -20.448   3.160  1.00  0.00    -0.345 OA
BRANCH  33  34
HETATM   34  C   UNL     1      44.115 -21.759   2.858  1.00  0.00     0.121 C 
HETATM   35  C   UNL     1      44.485 -22.154   1.430  1.00  0.00     0.040 C 
HETATM   36  C   UNL     1      44.777 -22.714   3.849  1.00  0.00     0.040 C 
ENDBRANCH  33  34
ENDBRANCH  30  33
ENDBRANCH  23  26
ENDBRANCH   1  22
BRANCH   1  37
HETATM   37  C   UNL     1      39.060 -13.800   1.827  1.00  0.00     0.254 C 
BRANCH  37  38
HETATM   38  N   UNL     1      39.221 -14.872   0.811  1.00  0.00    -0.077 N 
HETATM   39  H   UNL     1      39.449 -14.442  -0.112  1.00  0.00     0.274 HD
HETATM   40  H   UNL     1      39.995 -15.512   1.018  1.00  0.00     0.274 HD
HETATM   41  H   UNL     1      38.366 -15.420   0.670  1.00  0.00     0.274 HD
ENDBRANCH  37  38
ENDBRANCH   1  37
TORSDOF 11
ENDMDL
MODEL 5
REMARK VINA RESULT:      -8.1      2.397      3.039
REMARK  11 active torsions:
REMARK  status: ('A' for Active; 'I' for Inactive)
REMARK    1  A    between atoms: C_2  and  O_3 
REMARK    2  A    between atoms: C_2  and  C_4 
REMARK    3  A    between atoms: C_8  and  C_9 
REMARK    4  A    between atoms: C_12  and  C_13 
REMARK    5  A    between atoms: C_13  and  C_14 
REMARK    6  A    between atoms: C_14  and  N_15 
REMARK    7  A    between atoms: C_14  and  C_29 
REMARK       I    between atoms: N_15  and  C_16 
REMARK    8  A    between atoms: C_16  and  C_17 
REMARK    9  A    between atoms: C_21  and  O_22 
REMARK   10  A    between atoms: O_22  and  C_23 
REMARK   11  A    between atoms: C_29  and  N_30 
ROOT
HETATM    1  C   UNL     1      39.667 -12.015   2.372  1.00  0.00     0.114 C 
ENDROOT
BRANCH   1   2
HETATM    2  C   UNL     1      38.985 -11.085   3.403  1.00  0.00     0.065 C 
BRANCH   2   3
HETATM    3  C   UNL     1      39.672 -10.962   4.736  1.00  0.00    -0.056 A 
HETATM    4  C   UNL     1      40.701 -10.036   4.940  1.00  0.00     0.008 A 
HETATM    5  C   UNL     1      41.278  -9.890   6.208  1.00  0.00     0.014 A 
HETATM    6  C   UNL     1      40.836 -10.657   7.295  1.00  0.00    -0.006 A 
HETATM    7  C   UNL     1      39.826 -11.601   7.076  1.00  0.00     0.014 A 
HETATM    8  C   UNL     1      39.247 -11.750   5.813  1.00  0.00     0.008 A 
BRANCH   6   9
HETATM    9  C   UNL     1      41.402 -10.430   8.618  1.00  0.00     0.085 A 
HETATM   10  C   UNL     1      40.745  -9.886   9.701  1.00  0.00     0.130 A 
HETATM   11  N   UNL     1      41.675  -9.814  10.705  1.00  0.00    -0.315 N 
HETATM   12  C   UNL     1      42.863 -10.323  10.194  1.00  0.00     0.143 A 
HETATM   13  C   UNL     1      41.531  -9.328  11.999  1.00  0.00     0.098 A 
HETATM   14  C   UNL     1      44.016 -10.350  11.062  1.00  0.00     0.017 A 
HETATM   15  N   UNL     1      42.714 -10.703   8.938  1.00  0.00    -0.228 NA
HETATM   16  C   UNL     1      43.851  -9.881  12.325  1.00  0.00     0.015 A 
HETATM   17  C   UNL     1      42.591  -9.349  12.820  1.00  0.00     0.018 A 
BRANCH  14  18
HETATM   18  C   UNL     1      45.353 -10.899  10.589  1.00  0.00     0.150 C 
HETATM   19  C   UNL     1      45.380 -12.424  10.636  1.00  0.00     0.044 C 
BRANCH  18  20
HETATM   20  O   UNL     1      45.630 -10.482   9.250  1.00  0.00    -0.391 OA
HETATM   21  H   UNL     1      46.584 -10.598   9.107  1.00  0.00     0.210 HD
ENDBRANCH  18  20
ENDBRANCH  14  18
ENDBRANCH   6   9
ENDBRANCH   2   3
ENDBRANCH   1   2
BRANCH   1  22
HETATM   22  N   UNL     1      40.267 -13.134   3.138  1.00  0.00    -0.350 N 
HETATM   23  C   UNL     1      39.918 -14.463   3.059  1.00  0.00     0.252 C 
HETATM   24  O   UNL     1      39.088 -14.869   2.252  1.00  0.00    -0.268 OA
HETATM   25  H   UNL     1      40.729 -12.864   4.002  1.00  0.00     0.163 HD
BRANCH  23  26
HETATM   26  C   UNL     1      40.604 -15.394   4.000  1.00  0.00     0.033 A 
HETATM   27  C   UNL     1      41.313 -16.477   3.473  1.00  0.00     0.043 A 
HETATM   28  C   UNL     1      41.965 -17.369   4.333  1.00  0.00     0.068 A 
HETATM   29 CL   UNL     1      42.814 -18.694   3.617  1.00  0.00    -0.081 Cl
HETATM   30  C   UNL     1      41.918 -17.198   5.726  1.00  0.00     0.091 A 
HETATM   31  C   UNL     1      41.237 -16.093   6.242  1.00  0.00     0.039 A 
HETATM   32  C   UNL     1      40.587 -15.194   5.386  1.00  0.00     0.020 A 
BRANCH  30  33
HETATM   33  O   UNL     1      42.580 -18.124   6.485  1.00  0.00    -0.345 OA
BRANCH  33  34
HETATM   34  C   UNL     1      43.594 -17.706   7.407  1.00  0.00     0.121 C 
HETATM   35  C   UNL     1      44.098 -18.894   8.223  1.00  0.00     0.040 C 
HETATM   36  C   UNL     1      44.734 -17.128   6.571  1.00  0.00     0.040 C 
ENDBRANCH  33  34
ENDBRANCH  30  33
ENDBRANCH  23  26
ENDBRANCH   1  22
BRANCH   1  37
HETATM   37  C   UNL     1      40.681 -11.217   1.502  1.00  0.00     0.254 C 
BRANCH  37  38
HETATM   38  N   UNL     1      42.058 -11.764   1.615  1.00  0.00    -0.077 N 
HETATM   39  H   UNL     1      42.612 -11.481   0.778  1.00  0.00     0.274 HD
HETATM   40  H   UNL     1      42.572 -11.399   2.424  1.00  0.00     0.274 HD
HETATM   41  H   UNL     1      42.080 -12.788   1.644  1.00  0.00     0.274 HD
ENDBRANCH  37  38
ENDBRANCH   1  37
TORSDOF 11
ENDMDL
MODEL 6
REMARK VINA RESULT:      -8.0      2.236      3.196
REMARK  11 active torsions:
REMARK  status: ('A' for Active; 'I' for Inactive)
REMARK    1  A    between atoms: C_2  and  O_3 
REMARK    2  A    between atoms: C_2  and  C_4 
REMARK    3  A    between atoms: C_8  and  C_9 
REMARK    4  A    between atoms: C_12  and  C_13 
REMARK    5  A    between atoms: C_13  and  C_14 
REMARK    6  A    between atoms: C_14  and  N_15 
REMARK    7  A    between atoms: C_14  and  C_29 
REMARK       I    between atoms: N_15  and  C_16 
REMARK    8  A    between atoms: C_16  and  C_17 
REMARK    9  A    between atoms: C_21  and  O_22 
REMARK   10  A    between atoms: O_22  and  C_23 
REMARK   11  A    between atoms: C_29  and  N_30 
ROOT
HETATM    1  C   UNL     1      39.361 -12.157   2.083  1.00  0.00     0.114 C 
ENDROOT
BRANCH   1   2
HETATM    2  C   UNL     1      38.595 -11.591   3.302  1.00  0.00     0.065 C 
BRANCH   2   3
HETATM    3  C   UNL     1      39.386 -11.458   4.575  1.00  0.00    -0.056 A 
HETATM    4  C   UNL     1      40.295 -10.411   4.759  1.00  0.00     0.008 A 
HETATM    5  C   UNL     1      40.968 -10.267   5.978  1.00  0.00     0.014 A 
HETATM    6  C   UNL     1      40.742 -11.157   7.038  1.00  0.00    -0.006 A 
HETATM    7  C   UNL     1      39.852 -12.218   6.836  1.00  0.00     0.014 A 
HETATM    8  C   UNL     1      39.178 -12.366   5.621  1.00  0.00     0.008 A 
BRANCH   6   9
HETATM    9  C   UNL     1      41.398 -10.938   8.319  1.00  0.00     0.085 A 
HETATM   10  C   UNL     1      42.736 -10.665   8.511  1.00  0.00     0.130 A 
HETATM   11  N   UNL     1      42.912 -10.591   9.868  1.00  0.00    -0.315 N 
HETATM   12  C   UNL     1      41.671 -10.817  10.451  1.00  0.00     0.143 A 
HETATM   13  C   UNL     1      44.076 -10.352  10.588  1.00  0.00     0.098 A 
HETATM   14  C   UNL     1      41.587 -10.801  11.891  1.00  0.00     0.017 A 
HETATM   15  N   UNL     1      40.746 -11.025   9.529  1.00  0.00    -0.228 NA
HETATM   16  C   UNL     1      42.732 -10.555  12.576  1.00  0.00     0.015 A 
HETATM   17  C   UNL     1      44.015 -10.329  11.928  1.00  0.00     0.018 A 
BRANCH  14  18
HETATM   18  C   UNL     1      40.267 -11.030  12.611  1.00  0.00     0.150 C 
HETATM   19  C   UNL     1      39.268  -9.915  12.317  1.00  0.00     0.044 C 
BRANCH  18  20
HETATM   20  O   UNL     1      39.683 -12.276  12.223  1.00  0.00    -0.391 OA
HETATM   21  H   UNL     1      40.269 -12.669  11.555  1.00  0.00     0.210 HD
ENDBRANCH  18  20
ENDBRANCH  14  18
ENDBRANCH   6   9
ENDBRANCH   2   3
ENDBRANCH   1   2
BRANCH   1  22
HETATM   22  N   UNL     1      40.087 -13.361   2.557  1.00  0.00    -0.350 N 
HETATM   23  C   UNL     1      39.709 -14.672   2.376  1.00  0.00     0.252 C 
HETATM   24  O   UNL     1      38.726 -14.978   1.708  1.00  0.00    -0.268 OA
HETATM   25  H   UNL     1      40.719 -13.202   3.338  1.00  0.00     0.163 HD
BRANCH  23  26
HETATM   26  C   UNL     1      40.557 -15.710   3.027  1.00  0.00     0.033 A 
HETATM   27  C   UNL     1      40.834 -15.590   4.391  1.00  0.00     0.043 A 
HETATM   28  C   UNL     1      41.631 -16.549   5.029  1.00  0.00     0.068 A 
HETATM   29 CL   UNL     1      41.945 -16.335   6.716  1.00  0.00    -0.081 Cl
HETATM   30  C   UNL     1      42.163 -17.637   4.319  1.00  0.00     0.091 A 
HETATM   31  C   UNL     1      41.852 -17.768   2.964  1.00  0.00     0.039 A 
HETATM   32  C   UNL     1      41.052 -16.815   2.322  1.00  0.00     0.020 A 
BRANCH  30  33
HETATM   33  O   UNL     1      42.935 -18.519   5.026  1.00  0.00    -0.345 OA
BRANCH  33  34
HETATM   34  C   UNL     1      44.359 -18.515   4.869  1.00  0.00     0.121 C 
HETATM   35  C   UNL     1      45.043 -18.234   6.205  1.00  0.00     0.040 C 
HETATM   36  C   UNL     1      44.748 -19.904   4.369  1.00  0.00     0.040 C 
ENDBRANCH  33  34
ENDBRANCH  30  33
ENDBRANCH  23  26
ENDBRANCH   1  22
BRANCH   1  37
HETATM   37  C   UNL     1      40.273 -11.065   1.454  1.00  0.00     0.254 C 
BRANCH  37  38
HETATM   38  N   UNL     1      41.714 -11.405   1.582  1.00  0.00    -0.077 N 
HETATM   39  H   UNL     1      41.887 -11.823   2.522  1.00  0.00     0.274 HD
HETATM   40  H   UNL     1      42.024 -12.110   0.904  1.00  0.00     0.274 HD
HETATM   41  H   UNL     1      42.325 -10.586   1.512  1.00  0.00     0.274 HD
ENDBRANCH  37  38
ENDBRANCH   1  37
TORSDOF 11
ENDMDL
MODEL 7
REMARK VINA RESULT:      -8.0      2.136      2.768
REMARK  11 active torsions:
REMARK  status: ('A' for Active; 'I' for Inactive)
REMARK    1  A    between atoms: C_2  and  O_3 
REMARK    2  A    between atoms: C_2  and  C_4 
REMARK    3  A    between atoms: C_8  and  C_9 
REMARK    4  A    between atoms: C_12  and  C_13 
REMARK    5  A    between atoms: C_13  and  C_14 
REMARK    6  A    between atoms: C_14  and  N_15 
REMARK    7  A    between atoms: C_14  and  C_29 
REMARK       I    between atoms: N_15  and  C_16 
REMARK    8  A    between atoms: C_16  and  C_17 
REMARK    9  A    between atoms: C_21  and  O_22 
REMARK   10  A    between atoms: O_22  and  C_23 
REMARK   11  A    between atoms: C_29  and  N_30 
ROOT
HETATM    1  C   UNL     1      40.461 -14.311   0.612  1.00  0.00     0.114 C 
ENDROOT
BRANCH   1   2
HETATM    2  C   UNL     1      39.512 -13.389   1.414  1.00  0.00     0.065 C 
BRANCH   2   3
HETATM    3  C   UNL     1      40.018 -12.928   2.755  1.00  0.00    -0.056 A 
HETATM    4  C   UNL     1      40.834 -11.797   2.874  1.00  0.00     0.008 A 
HETATM    5  C   UNL     1      41.234 -11.346   4.137  1.00  0.00     0.014 A 
HETATM    6  C   UNL     1      40.823 -12.006   5.304  1.00  0.00    -0.006 A 
HETATM    7  C   UNL     1      40.031 -13.153   5.175  1.00  0.00     0.014 A 
HETATM    8  C   UNL     1      39.629 -13.607   3.916  1.00  0.00     0.008 A 
BRANCH   6   9
HETATM    9  C   UNL     1      41.192 -11.470   6.607  1.00  0.00     0.085 A 
HETATM   10  C   UNL     1      40.450 -10.588   7.363  1.00  0.00     0.130 A 
HETATM   11  N   UNL     1      41.206 -10.321   8.475  1.00  0.00    -0.315 N 
HETATM   12  C   UNL     1      42.378 -11.058   8.355  1.00  0.00     0.143 A 
HETATM   13  C   UNL     1      40.922  -9.482   9.545  1.00  0.00     0.098 A 
HETATM   14  C   UNL     1      43.359 -10.944   9.407  1.00  0.00     0.017 A 
HETATM   15  N   UNL     1      42.384 -11.759   7.235  1.00  0.00    -0.228 NA
HETATM   16  C   UNL     1      43.058 -10.127  10.449  1.00  0.00     0.015 A 
HETATM   17  C   UNL     1      41.821  -9.368  10.534  1.00  0.00     0.018 A 
BRANCH  14  18
HETATM   18  C   UNL     1      44.666 -11.721   9.361  1.00  0.00     0.150 C 
HETATM   19  C   UNL     1      45.472 -11.535  10.643  1.00  0.00     0.044 C 
BRANCH  18  20
HETATM   20  O   UNL     1      44.422 -13.117   9.178  1.00  0.00    -0.391 OA
HETATM   21  H   UNL     1      44.490 -13.536  10.053  1.00  0.00     0.210 HD
ENDBRANCH  18  20
ENDBRANCH  14  18
ENDBRANCH   6   9
ENDBRANCH   2   3
ENDBRANCH   1   2
BRANCH   1  22
HETATM   22  N   UNL     1      41.263 -15.066   1.606  1.00  0.00    -0.350 N 
HETATM   23  C   UNL     1      41.787 -16.329   1.448  1.00  0.00     0.252 C 
HETATM   24  O   UNL     1      41.694 -16.943   0.390  1.00  0.00    -0.268 OA
HETATM   25  H   UNL     1      41.140 -14.771   2.571  1.00  0.00     0.163 HD
BRANCH  23  26
HETATM   26  C   UNL     1      42.483 -16.918   2.628  1.00  0.00     0.033 A 
HETATM   27  C   UNL     1      42.579 -16.159   3.797  1.00  0.00     0.043 A 
HETATM   28  C   UNL     1      43.229 -16.685   4.920  1.00  0.00     0.068 A 
HETATM   29 CL   UNL     1      43.323 -15.689   6.330  1.00  0.00    -0.081 Cl
HETATM   30  C   UNL     1      43.794 -17.970   4.894  1.00  0.00     0.091 A 
HETATM   31  C   UNL     1      43.662 -18.736   3.733  1.00  0.00     0.039 A 
HETATM   32  C   UNL     1      43.008 -18.216   2.608  1.00  0.00     0.020 A 
BRANCH  30  33
HETATM   33  O   UNL     1      44.414 -18.397   6.036  1.00  0.00    -0.345 OA
BRANCH  33  34
HETATM   34  C   UNL     1      43.671 -19.102   7.038  1.00  0.00     0.121 C 
HETATM   35  C   UNL     1      43.802 -20.610   6.840  1.00  0.00     0.040 C 
HETATM   36  C   UNL     1      44.266 -18.702   8.386  1.00  0.00     0.040 C 
ENDBRANCH  33  34
ENDBRANCH  30  33
ENDBRANCH  23  26
ENDBRANCH   1  22
BRANCH   1  37
HETATM   37  C   UNL     1      41.307 -13.481  -0.397  1.00  0.00     0.254 C 
BRANCH  37  38
HETATM   38  N   UNL     1      41.887 -14.334  -1.466  1.00  0.00    -0.077 N 
HETATM   39  H   UNL     1      41.278 -14.290  -2.312  1.00  0.00     0.274 HD
HETATM   40  H   UNL     1      42.814 -14.021  -1.775  1.00  0.00     0.274 HD
HETATM   41  H   UNL     1      41.943 -15.322  -1.201  1.00  0.00     0.274 HD
ENDBRANCH  37  38
ENDBRANCH   1  37
TORSDOF 11
ENDMDL
MODEL 8
REMARK VINA RESULT:      -7.8      2.242      7.371
REMARK  11 active torsions:
REMARK  status: ('A' for Active; 'I' for Inactive)
REMARK    1  A    between atoms: C_2  and  O_3 
REMARK    2  A    between atoms: C_2  and  C_4 
REMARK    3  A    between atoms: C_8  and  C_9 
REMARK    4  A    between atoms: C_12  and  C_13 
REMARK    5  A    between atoms: C_13  and  C_14 
REMARK    6  A    between atoms: C_14  and  N_15 
REMARK    7  A    between atoms: C_14  and  C_29 
REMARK       I    between atoms: N_15  and  C_16 
REMARK    8  A    between atoms: C_16  and  C_17 
REMARK    9  A    between atoms: C_21  and  O_22 
REMARK   10  A    between atoms: O_22  and  C_23 
REMARK   11  A    between atoms: C_29  and  N_30 
ROOT
HETATM    1  C   UNL     1      43.382 -11.011   9.371  1.00  0.00     0.114 C 
ENDROOT
BRANCH   1   2
HETATM    2  C   UNL     1      42.084 -10.192   9.176  1.00  0.00     0.065 C 
BRANCH   2   3
HETATM    3  C   UNL     1      41.322 -10.456   7.906  1.00  0.00    -0.056 A 
HETATM    4  C   UNL     1      41.721  -9.892   6.689  1.00  0.00     0.008 A 
HETATM    5  C   UNL     1      41.039 -10.207   5.508  1.00  0.00     0.014 A 
HETATM    6  C   UNL     1      39.953 -11.094   5.515  1.00  0.00    -0.006 A 
HETATM    7  C   UNL     1      39.542 -11.631   6.741  1.00  0.00     0.014 A 
HETATM    8  C   UNL     1      40.220 -11.320   7.923  1.00  0.00     0.008 A 
BRANCH   6   9
HETATM    9  C   UNL     1      39.310 -11.462   4.261  1.00  0.00     0.085 A 
HETATM   10  C   UNL     1      38.389 -10.706   3.567  1.00  0.00     0.130 A 
HETATM   11  N   UNL     1      38.021 -11.465   2.487  1.00  0.00    -0.315 N 
HETATM   12  C   UNL     1      38.737 -12.653   2.563  1.00  0.00     0.143 A 
HETATM   13  C   UNL     1      37.108 -11.171   1.481  1.00  0.00     0.098 A 
HETATM   14  C   UNL     1      38.520 -13.640   1.534  1.00  0.00     0.017 A 
HETATM   15  N   UNL     1      39.522 -12.666   3.626  1.00  0.00    -0.228 NA
HETATM   16  C   UNL     1      37.633 -13.330   0.554  1.00  0.00     0.015 A 
HETATM   17  C   UNL     1      36.898 -12.075   0.515  1.00  0.00     0.018 A 
BRANCH  14  18
HETATM   18  C   UNL     1      39.268 -14.965   1.533  1.00  0.00     0.150 C 
HETATM   19  C   UNL     1      40.682 -14.808   0.982  1.00  0.00     0.044 C 
BRANCH  18  20
HETATM   20  O   UNL     1      39.354 -15.502   2.855  1.00  0.00    -0.391 OA
HETATM   21  H   UNL     1      38.962 -14.846   3.456  1.00  0.00     0.210 HD
ENDBRANCH  18  20
ENDBRANCH  14  18
ENDBRANCH   6   9
ENDBRANCH   2   3
ENDBRANCH   1   2
BRANCH   1  22
HETATM   22  N   UNL     1      43.325 -12.136   8.406  1.00  0.00    -0.350 N 
HETATM   23  C   UNL     1      44.363 -12.970   8.055  1.00  0.00     0.252 C 
HETATM   24  O   UNL     1      45.463 -12.899   8.593  1.00  0.00    -0.268 OA
HETATM   25  H   UNL     1      42.572 -12.080   7.725  1.00  0.00     0.163 HD
BRANCH  23  26
HETATM   26  C   UNL     1      44.085 -13.974   6.989  1.00  0.00     0.033 A 
HETATM   27  C   UNL     1      44.542 -15.282   7.166  1.00  0.00     0.043 A 
HETATM   28  C   UNL     1      44.299 -16.247   6.180  1.00  0.00     0.068 A 
HETATM   29 CL   UNL     1      44.903 -17.843   6.456  1.00  0.00    -0.081 Cl
HETATM   30  C   UNL     1      43.600 -15.922   5.006  1.00  0.00     0.091 A 
HETATM   31  C   UNL     1      43.116 -14.621   4.854  1.00  0.00     0.039 A 
HETATM   32  C   UNL     1      43.352 -13.653   5.839  1.00  0.00     0.020 A 
BRANCH  30  33
HETATM   33  O   UNL     1      43.416 -16.928   4.098  1.00  0.00    -0.345 OA
BRANCH  33  34
HETATM   34  C   UNL     1      42.104 -17.215   3.598  1.00  0.00     0.121 C 
HETATM   35  C   UNL     1      42.182 -18.152   2.395  1.00  0.00     0.040 C 
HETATM   36  C   UNL     1      41.342 -17.893   4.735  1.00  0.00     0.040 C 
ENDBRANCH  33  34
ENDBRANCH  30  33
ENDBRANCH  23  26
ENDBRANCH   1  22
BRANCH   1  37
HETATM   37  C   UNL     1      43.535 -11.449  10.857  1.00  0.00     0.254 C 
BRANCH  37  38
HETATM   38  N   UNL     1      42.224 -11.776  11.475  1.00  0.00    -0.077 N 
HETATM   39  H   UNL     1      41.513 -11.077  11.168  1.00  0.00     0.274 HD
HETATM   40  H   UNL     1      41.857 -12.689  11.187  1.00  0.00     0.274 HD
HETATM   41  H   UNL     1      42.244 -11.736  12.499  1.00  0.00     0.274 HD
ENDBRANCH  37  38
ENDBRANCH   1  37
TORSDOF 11
ENDMDL
MODEL 9
REMARK VINA RESULT:      -7.7      3.389      8.783
REMARK  11 active torsions:
REMARK  status: ('A' for Active; 'I' for Inactive)
REMARK    1  A    between atoms: C_2  and  O_3 
REMARK    2  A    between atoms: C_2  and  C_4 
REMARK    3  A    between atoms: C_8  and  C_9 
REMARK    4  A    between atoms: C_12  and  C_13 
REMARK    5  A    between atoms: C_13  and  C_14 
REMARK    6  A    between atoms: C_14  and  N_15 
REMARK    7  A    between atoms: C_14  and  C_29 
REMARK       I    between atoms: N_15  and  C_16 
REMARK    8  A    between atoms: C_16  and  C_17 
REMARK    9  A    between atoms: C_21  and  O_22 
REMARK   10  A    between atoms: O_22  and  C_23 
REMARK   11  A    between atoms: C_29  and  N_30 
ROOT
HETATM    1  C   UNL     1      40.650 -11.406   6.466  1.00  0.00     0.114 C 
ENDROOT
BRANCH   1   2
HETATM    2  C   UNL     1      39.957 -10.594   5.346  1.00  0.00     0.065 C 
BRANCH   2   3
HETATM    3  C   UNL     1      39.900 -11.251   3.994  1.00  0.00    -0.056 A 
HETATM    4  C   UNL     1      41.013 -11.267   3.146  1.00  0.00     0.008 A 
HETATM    5  C   UNL     1      40.958 -11.944   1.923  1.00  0.00     0.014 A 
HETATM    6  C   UNL     1      39.798 -12.624   1.524  1.00  0.00    -0.006 A 
HETATM    7  C   UNL     1      38.680 -12.579   2.365  1.00  0.00     0.014 A 
HETATM    8  C   UNL     1      38.729 -11.904   3.588  1.00  0.00     0.008 A 
BRANCH   6   9
HETATM    9  C   UNL     1      39.795 -13.384   0.282  1.00  0.00     0.085 A 
HETATM   10  C   UNL     1      40.695 -14.367  -0.073  1.00  0.00     0.130 A 
HETATM   11  N   UNL     1      40.340 -14.760  -1.337  1.00  0.00    -0.315 N 
HETATM   12  C   UNL     1      39.233 -14.003  -1.702  1.00  0.00     0.143 A 
HETATM   13  C   UNL     1      40.933 -15.712  -2.156  1.00  0.00     0.098 A 
HETATM   14  C   UNL     1      38.665 -14.222  -3.009  1.00  0.00     0.017 A 
HETATM   15  N   UNL     1      38.889 -13.171  -0.734  1.00  0.00    -0.228 NA
HETATM   16  C   UNL     1      39.252 -15.165  -3.790  1.00  0.00     0.015 A 
HETATM   17  C   UNL     1      40.415 -15.932  -3.373  1.00  0.00     0.018 A 
BRANCH  14  18
HETATM   18  C   UNL     1      37.447 -13.445  -3.486  1.00  0.00     0.150 C 
HETATM   19  C   UNL     1      37.792 -11.988  -3.780  1.00  0.00     0.044 C 
BRANCH  18  20
HETATM   20  O   UNL     1      36.902 -14.029  -4.672  1.00  0.00    -0.391 OA
HETATM   21  H   UNL     1      37.176 -14.962  -4.682  1.00  0.00     0.210 HD
ENDBRANCH  18  20
ENDBRANCH  14  18
ENDBRANCH   6   9
ENDBRANCH   2   3
ENDBRANCH   1   2
BRANCH   1  22
HETATM   22  N   UNL     1      40.917 -12.755   5.912  1.00  0.00    -0.350 N 
HETATM   23  C   UNL     1      42.126 -13.412   5.896  1.00  0.00     0.252 C 
HETATM   24  O   UNL     1      43.126 -12.944   6.433  1.00  0.00    -0.268 OA
HETATM   25  H   UNL     1      40.249 -13.074   5.215  1.00  0.00     0.163 HD
BRANCH  23  26
HETATM   26  C   UNL     1      42.166 -14.728   5.197  1.00  0.00     0.033 A 
HETATM   27  C   UNL     1      43.106 -15.676   5.608  1.00  0.00     0.043 A 
HETATM   28  C   UNL     1      43.169 -16.920   4.969  1.00  0.00     0.068 A 
HETATM   29 CL   UNL     1      44.363 -18.043   5.518  1.00  0.00    -0.081 Cl
HETATM   30  C   UNL     1      42.300 -17.236   3.912  1.00  0.00     0.091 A 
HETATM   31  C   UNL     1      41.340 -16.296   3.531  1.00  0.00     0.039 A 
HETATM   32  C   UNL     1      41.269 -15.051   4.171  1.00  0.00     0.020 A 
BRANCH  30  33
HETATM   33  O   UNL     1      42.440 -18.473   3.345  1.00  0.00    -0.345 OA
BRANCH  33  34
HETATM   34  C   UNL     1      42.941 -18.599   2.008  1.00  0.00     0.121 C 
HETATM   35  C   UNL     1      44.053 -17.583   1.756  1.00  0.00     0.040 C 
HETATM   36  C   UNL     1      43.495 -20.017   1.880  1.00  0.00     0.040 C 
ENDBRANCH  33  34
ENDBRANCH  30  33
ENDBRANCH  23  26
ENDBRANCH   1  22
BRANCH   1  37
HETATM   37  C   UNL     1      39.784 -11.404   7.760  1.00  0.00     0.254 C 
BRANCH  37  38
HETATM   38  N   UNL     1      39.087 -12.700   7.961  1.00  0.00    -0.077 N 
HETATM   39  H   UNL     1      39.671 -13.471   7.569  1.00  0.00     0.274 HD
HETATM   40  H   UNL     1      38.945 -12.934   8.949  1.00  0.00     0.274 HD
HETATM   41  H   UNL     1      38.184 -12.748   7.477  1.00  0.00     0.274 HD
ENDBRANCH  37  38
ENDBRANCH   1  37
TORSDOF 11
ENDMDL
MODEL 10
REMARK VINA RESULT:      -7.5      3.719      8.831
REMARK  11 active torsions:
REMARK  status: ('A' for Active; 'I' for Inactive)
REMARK    1  A    between atoms: C_2  and  O_3 
REMARK    2  A    between atoms: C_2  and  C_4 
REMARK    3  A    between atoms: C_8  and  C_9 
REMARK    4  A    between atoms: C_12  and  C_13 
REMARK    5  A    between atoms: C_13  and  C_14 
REMARK    6  A    between atoms: C_14  and  N_15 
REMARK    7  A    between atoms: C_14  and  C_29 
REMARK       I    between atoms: N_15  and  C_16 
REMARK    8  A    between atoms: C_16  and  C_17 
REMARK    9  A    between atoms: C_21  and  O_22 
REMARK   10  A    between atoms: O_22  and  C_23 
REMARK   11  A    between atoms: C_29  and  N_30 
ROOT
HETATM    1  C   UNL     1      39.946 -13.111  -1.207  1.00  0.00     0.114 C 
ENDROOT
BRANCH   1   2
HETATM    2  C   UNL     1      41.268 -13.913  -1.266  1.00  0.00     0.065 C 
BRANCH   2   3
HETATM    3  C   UNL     1      41.564 -14.786  -0.076  1.00  0.00    -0.056 A 
HETATM    4  C   UNL     1      41.173 -16.129  -0.046  1.00  0.00     0.008 A 
HETATM    5  C   UNL     1      41.520 -16.940   1.041  1.00  0.00     0.014 A 
HETATM    6  C   UNL     1      42.269 -16.433   2.112  1.00  0.00    -0.006 A 
HETATM    7  C   UNL     1      42.631 -15.081   2.088  1.00  0.00     0.014 A 
HETATM    8  C   UNL     1      42.287 -14.266   1.005  1.00  0.00     0.008 A 
BRANCH   6   9
HETATM    9  C   UNL     1      42.680 -17.319   3.192  1.00  0.00     0.085 A 
HETATM   10  C   UNL     1      42.536 -17.076   4.542  1.00  0.00     0.130 A 
HETATM   11  N   UNL     1      43.108 -18.147   5.178  1.00  0.00    -0.315 N 
HETATM   12  C   UNL     1      43.574 -19.004   4.188  1.00  0.00     0.143 A 
HETATM   13  C   UNL     1      43.241 -18.388   6.539  1.00  0.00     0.098 A 
HETATM   14  C   UNL     1      44.234 -20.219   4.601  1.00  0.00     0.017 A 
HETATM   15  N   UNL     1      43.320 -18.520   2.985  1.00  0.00    -0.228 NA
HETATM   16  C   UNL     1      44.344 -20.441   5.935  1.00  0.00     0.015 A 
HETATM   17  C   UNL     1      43.849 -19.514   6.940  1.00  0.00     0.018 A 
BRANCH  14  18
HETATM   18  C   UNL     1      44.766 -21.218   3.585  1.00  0.00     0.150 C 
HETATM   19  C   UNL     1      44.725 -22.644   4.128  1.00  0.00     0.044 C 
BRANCH  18  20
HETATM   20  O   UNL     1      44.004 -21.171   2.376  1.00  0.00    -0.391 OA
HETATM   21  H   UNL     1      43.100 -20.911   2.620  1.00  0.00     0.210 HD
ENDBRANCH  18  20
ENDBRANCH  14  18
ENDBRANCH   6   9
ENDBRANCH   2   3
ENDBRANCH   1   2
BRANCH   1  22
HETATM   22  N   UNL     1      39.673 -12.844   0.227  1.00  0.00    -0.350 N 
HETATM   23  C   UNL     1      39.737 -11.624   0.861  1.00  0.00     0.252 C 
HETATM   24  O   UNL     1      39.965 -10.585   0.250  1.00  0.00    -0.268 OA
HETATM   25  H   UNL     1      39.766 -13.650   0.839  1.00  0.00     0.163 HD
BRANCH  23  26
HETATM   26  C   UNL     1      39.508 -11.622   2.335  1.00  0.00     0.033 A 
HETATM   27  C   UNL     1      39.825 -12.770   3.063  1.00  0.00     0.043 A 
HETATM   28  C   UNL     1      39.618 -12.799   4.448  1.00  0.00     0.068 A 
HETATM   29 CL   UNL     1      40.021 -14.255   5.288  1.00  0.00    -0.081 Cl
HETATM   30  C   UNL     1      39.091 -11.687   5.125  1.00  0.00     0.091 A 
HETATM   31  C   UNL     1      38.809 -10.530   4.393  1.00  0.00     0.039 A 
HETATM   32  C   UNL     1      39.019 -10.495   3.008  1.00  0.00     0.020 A 
BRANCH  30  33
HETATM   33  O   UNL     1      38.918 -11.809   6.476  1.00  0.00    -0.345 OA
BRANCH  33  34
HETATM   34  C   UNL     1      39.602 -10.925   7.372  1.00  0.00     0.121 C 
HETATM   35  C   UNL     1      39.270 -11.270   8.822  1.00  0.00     0.040 C 
HETATM   36  C   UNL     1      41.096 -11.118   7.121  1.00  0.00     0.040 C 
ENDBRANCH  33  34
ENDBRANCH  30  33
ENDBRANCH  23  26
ENDBRANCH   1  22
BRANCH   1  37
HETATM   37  C   UNL     1      38.809 -13.874  -1.945  1.00  0.00     0.254 C 
BRANCH  37  38
HETATM   38  N   UNL     1      37.771 -14.367  -1.003  1.00  0.00    -0.077 N 
HETATM   39  H   UNL     1      37.259 -15.164  -1.440  1.00  0.00     0.274 HD
HETATM   40  H   UNL     1      38.161 -14.735  -0.128  1.00  0.00     0.274 HD
HETATM   41  H   UNL     1      37.066 -13.659  -0.779  1.00  0.00     0.274 HD
ENDBRANCH  37  38
ENDBRANCH   1  37
TORSDOF 11
ENDMDL
