MODEL 1
REMARK VINA RESULT:     -10.4      0.000      0.000
REMARK  7 active torsions:
REMARK  status: ('A' for Active; 'I' for Inactive)
REMARK    1  A    between atoms: C_3  and  N_4 
REMARK    2  A    between atoms: N_7  and  C_9 
REMARK    3  A    between atoms: C_9  and  C_10 
REMARK    4  A    between atoms: C_10  and  C_11 
REMARK    5  A    between atoms: C_11  and  N_12 
REMARK       I    between atoms: N_12  and  C_13 
REMARK    6  A    between atoms: C_13  and  C_14 
REMARK    7  A    between atoms: C_14  and  N_15 
ROOT
HETATM    1  N   UNL     1      43.256 -12.894   6.909  1.00  0.00    -0.360 N 
HETATM    2  C   UNL     1      44.240 -13.497   7.666  1.00  0.00     0.237 C 
HETATM    3  O   UNL     1      44.365 -14.722   7.691  1.00  0.00    -0.272 OA
HETATM    4  H   UNL     1      43.214 -11.876   6.943  1.00  0.00     0.162 HD
ENDROOT
BRANCH   1   5
HETATM    5  C   UNL     1      42.500 -13.637   5.931  1.00  0.00     0.124 C 
BRANCH   5   6
HETATM    6  C   UNL     1      42.499 -12.956   4.561  1.00  0.00     0.047 C 
BRANCH   6   7
HETATM    7  C   UNL     1      41.411 -13.553   3.679  1.00  0.00     0.236 C 
BRANCH   7   8
HETATM    8  N   UNL     1      41.808 -14.906   3.115  1.00  0.00    -0.068 N 
HETATM    9  C   UNL     1      43.329 -15.114   3.063  1.00  0.00     0.254 C 
HETATM   10  C   UNL     1      43.700 -16.554   2.651  1.00  0.00     0.150 C 
HETATM   11  N   UNL     1      43.032 -17.497   3.567  1.00  0.00    -0.377 N 
HETATM   12  C   UNL     1      41.564 -17.428   3.485  1.00  0.00     0.150 C 
HETATM   13  C   UNL     1      41.109 -16.020   3.921  1.00  0.00     0.254 C 
HETATM   14  H   UNL     1      41.457 -14.967   2.151  1.00  0.00     0.280 HD
BRANCH  11  15
HETATM   15  C   UNL     1      43.636 -18.761   3.628  1.00  0.00     0.037 A 
HETATM   16  C   UNL     1      44.307 -19.170   4.808  1.00  0.00    -0.035 A 
HETATM   17  C   UNL     1      44.391 -18.297   6.033  1.00  0.00     0.050 C 
HETATM   18  C   UNL     1      44.932 -20.430   4.864  1.00  0.00     0.011 A 
HETATM   19  C   UNL     1      44.868 -21.306   3.784  1.00  0.00     0.024 A 
HETATM   20  C   UNL     1      44.190 -20.921   2.636  1.00  0.00     0.036 A 
HETATM   21  C   UNL     1      43.584 -19.663   2.553  1.00  0.00     0.053 A 
HETATM   22 CL   UNL     1      44.097 -21.998   1.298  1.00  0.00    -0.084 Cl
ENDBRANCH  11  15
ENDBRANCH   7   8
ENDBRANCH   6   7
ENDBRANCH   5   6
ENDBRANCH   1   5
BRANCH   2  23
HETATM   23  C   UNL     1      45.040 -12.571   8.578  1.00  0.00     0.257 C 
BRANCH  23  24
HETATM   24  N   UNL     1      44.272 -12.092   9.724  1.00  0.00    -0.224 N 
HETATM   25  N   UNL     1      44.484 -12.757  10.947  1.00  0.00    -0.180 NA
HETATM   26  C   UNL     1      43.952 -12.277  12.038  1.00  0.00     0.153 A 
HETATM   27  C   UNL     1      43.129 -11.102  12.003  1.00  0.00     0.028 A 
HETATM   28  C   UNL     1      42.889 -10.498  10.794  1.00  0.00     0.116 A 
HETATM   29  C   UNL     1      42.467 -10.351  13.009  1.00  0.00     0.005 A 
HETATM   30  N   UNL     1      42.086  -9.414  11.007  1.00  0.00    -0.350 N 
HETATM   31  C   UNL     1      43.446 -10.962   9.560  1.00  0.00     0.291 A 
HETATM   32  H   UNL     1      41.763  -8.778  10.289  1.00  0.00     0.166 HD
HETATM   33  C   UNL     1      41.818  -9.296  12.356  1.00  0.00     0.044 A 
HETATM   34  C   UNL     1      41.064  -8.336  13.041  1.00  0.00     0.030 A 
HETATM   35  C   UNL     1      40.977  -8.453  14.432  1.00  0.00     0.002 A 
HETATM   36  C   UNL     1      41.614  -9.491  15.108  1.00  0.00     0.001 A 
HETATM   37  C   UNL     1      42.359 -10.448  14.410  1.00  0.00     0.014 A 
HETATM   38  O   UNL     1      43.219 -10.430   8.478  1.00  0.00    -0.264 OA
ENDBRANCH  23  24
ENDBRANCH   2  23
TORSDOF 7
ENDMDL
MODEL 2
REMARK VINA RESULT:     -10.3      3.998     11.455
REMARK  7 active torsions:
REMARK  status: ('A' for Active; 'I' for Inactive)
REMARK    1  A    between atoms: C_3  and  N_4 
REMARK    2  A    between atoms: N_7  and  C_9 
REMARK    3  A    between atoms: C_9  and  C_10 
REMARK    4  A    between atoms: C_10  and  C_11 
REMARK    5  A    between atoms: C_11  and  N_12 
REMARK       I    between atoms: N_12  and  C_13 
REMARK    6  A    between atoms: C_13  and  C_14 
REMARK    7  A    between atoms: C_14  and  N_15 
ROOT
HETATM    1  N   UNL     1      41.055 -14.084   5.812  1.00  0.00    -0.360 N 
HETATM    2  C   UNL     1      42.359 -13.760   5.497  1.00  0.00     0.237 C 
HETATM    3  O   UNL     1      42.621 -12.812   4.755  1.00  0.00    -0.272 OA
HETATM    4  H   UNL     1      40.920 -14.884   6.429  1.00  0.00     0.162 HD
ENDROOT
BRANCH   1   5
HETATM    5  C   UNL     1      39.965 -13.192   5.500  1.00  0.00     0.124 C 
BRANCH   5   6
HETATM    6  C   UNL     1      39.454 -12.448   6.736  1.00  0.00     0.047 C 
BRANCH   6   7
HETATM    7  C   UNL     1      39.829 -10.976   6.655  1.00  0.00     0.236 C 
BRANCH   7   8
HETATM    8  N   UNL     1      39.795 -10.299   8.014  1.00  0.00    -0.068 N 
HETATM    9  C   UNL     1      39.701 -11.295   9.180  1.00  0.00     0.254 C 
HETATM   10  C   UNL     1      39.843 -10.595  10.548  1.00  0.00     0.150 C 
HETATM   11  N   UNL     1      41.102  -9.828  10.562  1.00  0.00    -0.377 N 
HETATM   12  C   UNL     1      41.122  -8.749   9.561  1.00  0.00     0.150 C 
HETATM   13  C   UNL     1      41.021  -9.374   8.154  1.00  0.00     0.254 C 
HETATM   14  H   UNL     1      38.960  -9.701   8.054  1.00  0.00     0.280 HD
BRANCH  11  15
HETATM   15  C   UNL     1      41.592  -9.554  11.846  1.00  0.00     0.037 A 
HETATM   16  C   UNL     1      42.947  -9.824  12.161  1.00  0.00    -0.035 A 
HETATM   17  C   UNL     1      43.912 -10.391  11.152  1.00  0.00     0.050 C 
HETATM   18  C   UNL     1      43.436  -9.569  13.456  1.00  0.00     0.011 A 
HETATM   19  C   UNL     1      42.613  -9.014  14.432  1.00  0.00     0.024 A 
HETATM   20  C   UNL     1      41.292  -8.723  14.121  1.00  0.00     0.036 A 
HETATM   21  C   UNL     1      40.783  -8.992  12.848  1.00  0.00     0.053 A 
HETATM   22 CL   UNL     1      40.268  -8.028  15.316  1.00  0.00    -0.084 Cl
ENDBRANCH  11  15
ENDBRANCH   7   8
ENDBRANCH   6   7
ENDBRANCH   5   6
ENDBRANCH   1   5
BRANCH   2  23
HETATM   23  C   UNL     1      43.424 -14.738   5.986  1.00  0.00     0.257 C 
BRANCH  23  24
HETATM   24  N   UNL     1      43.373 -16.028   5.307  1.00  0.00    -0.224 N 
HETATM   25  N   UNL     1      42.771 -16.048   4.034  1.00  0.00    -0.180 NA
HETATM   26  C   UNL     1      42.837 -17.132   3.310  1.00  0.00     0.153 A 
HETATM   27  C   UNL     1      43.486 -18.312   3.806  1.00  0.00     0.028 A 
HETATM   28  C   UNL     1      44.020 -18.293   5.069  1.00  0.00     0.116 A 
HETATM   29  C   UNL     1      43.736 -19.590   3.242  1.00  0.00     0.005 A 
HETATM   30  N   UNL     1      44.574 -19.515   5.321  1.00  0.00    -0.350 N 
HETATM   31  C   UNL     1      43.994 -17.138   5.916  1.00  0.00     0.291 A 
HETATM   32  H   UNL     1      45.050 -19.775   6.177  1.00  0.00     0.166 HD
HETATM   33  C   UNL     1      44.421 -20.327   4.216  1.00  0.00     0.044 A 
HETATM   34  C   UNL     1      44.844 -21.645   4.004  1.00  0.00     0.030 A 
HETATM   35  C   UNL     1      44.566 -22.223   2.761  1.00  0.00     0.002 A 
HETATM   36  C   UNL     1      43.888 -21.513   1.773  1.00  0.00     0.001 A 
HETATM   37  C   UNL     1      43.465 -20.198   2.001  1.00  0.00     0.014 A 
HETATM   38  O   UNL     1      44.458 -17.126   7.050  1.00  0.00    -0.264 OA
ENDBRANCH  23  24
ENDBRANCH   2  23
TORSDOF 7
ENDMDL
MODEL 3
REMARK VINA RESULT:      -9.8      2.279      2.782
REMARK  7 active torsions:
REMARK  status: ('A' for Active; 'I' for Inactive)
REMARK    1  A    between atoms: C_3  and  N_4 
REMARK    2  A    between atoms: N_7  and  C_9 
REMARK    3  A    between atoms: C_9  and  C_10 
REMARK    4  A    between atoms: C_10  and  C_11 
REMARK    5  A    between atoms: C_11  and  N_12 
REMARK       I    between atoms: N_12  and  C_13 
REMARK    6  A    between atoms: C_13  and  C_14 
REMARK    7  A    between atoms: C_14  and  N_15 
ROOT
HETATM    1  N   UNL     1      41.021 -11.700   5.562  1.00  0.00    -0.360 N 
HETATM    2  C   UNL     1      39.736 -11.458   6.004  1.00  0.00     0.237 C 
HETATM    3  O   UNL     1      38.794 -12.164   5.644  1.00  0.00    -0.272 OA
HETATM    4  H   UNL     1      41.747 -11.069   5.903  1.00  0.00     0.162 HD
ENDROOT
BRANCH   1   5
HETATM    5  C   UNL     1      41.360 -12.920   4.872  1.00  0.00     0.124 C 
BRANCH   5   6
HETATM    6  C   UNL     1      41.734 -12.672   3.409  1.00  0.00     0.047 C 
BRANCH   6   7
HETATM    7  C   UNL     1      40.838 -13.493   2.492  1.00  0.00     0.236 C 
BRANCH   7   8
HETATM    8  N   UNL     1      41.472 -14.818   2.106  1.00  0.00    -0.068 N 
HETATM    9  C   UNL     1      42.967 -14.894   2.453  1.00  0.00     0.254 C 
HETATM   10  C   UNL     1      43.544 -16.305   2.211  1.00  0.00     0.150 C 
HETATM   11  N   UNL     1      42.739 -17.283   2.966  1.00  0.00    -0.377 N 
HETATM   12  C   UNL     1      41.341 -17.343   2.511  1.00  0.00     0.150 C 
HETATM   13  C   UNL     1      40.679 -15.972   2.755  1.00  0.00     0.254 C 
HETATM   14  H   UNL     1      41.387 -14.930   1.088  1.00  0.00     0.280 HD
BRANCH  11  15
HETATM   15  C   UNL     1      43.405 -18.487   3.233  1.00  0.00     0.037 A 
HETATM   16  C   UNL     1      44.024 -18.691   4.493  1.00  0.00    -0.035 A 
HETATM   17  C   UNL     1      43.987 -17.657   5.587  1.00  0.00     0.050 C 
HETATM   18  C   UNL     1      44.710 -19.892   4.755  1.00  0.00     0.011 A 
HETATM   19  C   UNL     1      44.759 -20.908   3.805  1.00  0.00     0.024 A 
HETATM   20  C   UNL     1      44.132 -20.723   2.581  1.00  0.00     0.036 A 
HETATM   21  C   UNL     1      43.467 -19.528   2.293  1.00  0.00     0.053 A 
HETATM   22 CL   UNL     1      44.177 -21.976   1.402  1.00  0.00    -0.084 Cl
ENDBRANCH  11  15
ENDBRANCH   7   8
ENDBRANCH   6   7
ENDBRANCH   5   6
ENDBRANCH   1   5
BRANCH   2  23
HETATM   23  C   UNL     1      39.542 -10.183   6.820  1.00  0.00     0.257 C 
BRANCH  23  24
HETATM   24  N   UNL     1      40.226 -10.218   8.109  1.00  0.00    -0.224 N 
HETATM   25  N   UNL     1      41.633 -10.237   8.077  1.00  0.00    -0.180 NA
HETATM   26  C   UNL     1      42.302 -10.107   9.191  1.00  0.00     0.153 A 
HETATM   27  C   UNL     1      41.623  -9.978  10.448  1.00  0.00     0.028 A 
HETATM   28  C   UNL     1      40.252 -10.015  10.467  1.00  0.00     0.116 A 
HETATM   29  C   UNL     1      42.077  -9.789  11.780  1.00  0.00     0.005 A 
HETATM   30  N   UNL     1      39.836  -9.879  11.761  1.00  0.00    -0.350 N 
HETATM   31  C   UNL     1      39.453 -10.145   9.287  1.00  0.00     0.291 A 
HETATM   32  H   UNL     1      38.870  -9.860  12.064  1.00  0.00     0.166 HD
HETATM   33  C   UNL     1      40.933  -9.732  12.585  1.00  0.00     0.044 A 
HETATM   34  C   UNL     1      40.996  -9.542  13.971  1.00  0.00     0.030 A 
HETATM   35  C   UNL     1      42.262  -9.401  14.549  1.00  0.00     0.002 A 
HETATM   36  C   UNL     1      43.417  -9.452  13.771  1.00  0.00     0.001 A 
HETATM   37  C   UNL     1      43.340  -9.648  12.387  1.00  0.00     0.014 A 
HETATM   38  O   UNL     1      38.228 -10.194   9.306  1.00  0.00    -0.264 OA
ENDBRANCH  23  24
ENDBRANCH   2  23
TORSDOF 7
ENDMDL
MODEL 4
REMARK VINA RESULT:      -9.7      2.572      3.490
REMARK  7 active torsions:
REMARK  status: ('A' for Active; 'I' for Inactive)
REMARK    1  A    between atoms: C_3  and  N_4 
REMARK    2  A    between atoms: N_7  and  C_9 
REMARK    3  A    between atoms: C_9  and  C_10 
REMARK    4  A    between atoms: C_10  and  C_11 
REMARK    5  A    between atoms: C_11  and  N_12 
REMARK       I    between atoms: N_12  and  C_13 
REMARK    6  A    between atoms: C_13  and  C_14 
REMARK    7  A    between atoms: C_14  and  N_15 
ROOT
HETATM    1  N   UNL     1      40.788 -11.079   4.936  1.00  0.00    -0.360 N 
HETATM    2  C   UNL     1      39.558 -10.971   5.554  1.00  0.00     0.237 C 
HETATM    3  O   UNL     1      38.616 -11.697   5.234  1.00  0.00    -0.272 OA
HETATM    4  H   UNL     1      41.516 -10.440   5.254  1.00  0.00     0.162 HD
ENDROOT
BRANCH   1   5
HETATM    5  C   UNL     1      41.099 -12.196   4.078  1.00  0.00     0.124 C 
BRANCH   5   6
HETATM    6  C   UNL     1      42.177 -13.103   4.678  1.00  0.00     0.047 C 
BRANCH   6   7
HETATM    7  C   UNL     1      41.644 -13.799   5.921  1.00  0.00     0.236 C 
BRANCH   7   8
HETATM    8  N   UNL     1      42.039 -15.265   5.971  1.00  0.00    -0.068 N 
HETATM    9  C   UNL     1      41.180 -16.152   5.057  1.00  0.00     0.254 C 
HETATM   10  C   UNL     1      41.711 -17.599   4.994  1.00  0.00     0.150 C 
HETATM   11  N   UNL     1      43.126 -17.569   4.583  1.00  0.00    -0.377 N 
HETATM   12  C   UNL     1      43.987 -16.874   5.554  1.00  0.00     0.150 C 
HETATM   13  C   UNL     1      43.541 -15.400   5.646  1.00  0.00     0.254 C 
HETATM   14  H   UNL     1      41.908 -15.600   6.934  1.00  0.00     0.280 HD
BRANCH  11  15
HETATM   15  C   UNL     1      43.587 -18.771   4.027  1.00  0.00     0.037 A 
HETATM   16  C   UNL     1      43.542 -18.966   2.623  1.00  0.00    -0.035 A 
HETATM   17  C   UNL     1      43.024 -17.913   1.678  1.00  0.00     0.050 C 
HETATM   18  C   UNL     1      43.984 -20.179   2.065  1.00  0.00     0.011 A 
HETATM   19  C   UNL     1      44.508 -21.186   2.870  1.00  0.00     0.024 A 
HETATM   20  C   UNL     1      44.579 -20.990   4.242  1.00  0.00     0.036 A 
HETATM   21  C   UNL     1      44.121 -19.801   4.817  1.00  0.00     0.053 A 
HETATM   22 CL   UNL     1      45.232 -22.224   5.248  1.00  0.00    -0.084 Cl
ENDBRANCH  11  15
ENDBRANCH   7   8
ENDBRANCH   6   7
ENDBRANCH   5   6
ENDBRANCH   1   5
BRANCH   2  23
HETATM   23  C   UNL     1      39.402  -9.803   6.525  1.00  0.00     0.257 C 
BRANCH  23  24
HETATM   24  N   UNL     1      40.142  -9.990   7.769  1.00  0.00    -0.224 N 
HETATM   25  N   UNL     1      41.517  -9.693   7.737  1.00  0.00    -0.180 NA
HETATM   26  C   UNL     1      42.199  -9.685   8.850  1.00  0.00     0.153 A 
HETATM   27  C   UNL     1      41.572 -10.006  10.101  1.00  0.00     0.028 A 
HETATM   28  C   UNL     1      40.243 -10.346  10.107  1.00  0.00     0.116 A 
HETATM   29  C   UNL     1      42.042 -10.041  11.439  1.00  0.00     0.005 A 
HETATM   30  N   UNL     1      39.874 -10.612  11.395  1.00  0.00    -0.350 N 
HETATM   31  C   UNL     1      39.432 -10.366   8.928  1.00  0.00     0.291 A 
HETATM   32  H   UNL     1      38.942 -10.875  11.691  1.00  0.00     0.166 HD
HETATM   33  C   UNL     1      40.954 -10.426  12.233  1.00  0.00     0.044 A 
HETATM   34  C   UNL     1      41.046 -10.558  13.623  1.00  0.00     0.030 A 
HETATM   35  C   UNL     1      42.280 -10.283  14.221  1.00  0.00     0.002 A 
HETATM   36  C   UNL     1      43.379  -9.897  13.456  1.00  0.00     0.001 A 
HETATM   37  C   UNL     1      43.275  -9.774  12.066  1.00  0.00     0.014 A 
HETATM   38  O   UNL     1      38.248 -10.684   8.932  1.00  0.00    -0.264 OA
ENDBRANCH  23  24
ENDBRANCH   2  23
TORSDOF 7
ENDMDL
MODEL 5
REMARK VINA RESULT:      -9.7      4.152     11.524
REMARK  7 active torsions:
REMARK  status: ('A' for Active; 'I' for Inactive)
REMARK    1  A    between atoms: C_3  and  N_4 
REMARK    2  A    between atoms: N_7  and  C_9 
REMARK    3  A    between atoms: C_9  and  C_10 
REMARK    4  A    between atoms: C_10  and  C_11 
REMARK    5  A    between atoms: C_11  and  N_12 
REMARK       I    between atoms: N_12  and  C_13 
REMARK    6  A    between atoms: C_13  and  C_14 
REMARK    7  A    between atoms: C_14  and  N_15 
ROOT
HETATM    1  N   UNL     1      41.853 -13.483   4.974  1.00  0.00    -0.360 N 
HETATM    2  C   UNL     1      41.519 -14.303   3.915  1.00  0.00     0.237 C 
HETATM    3  O   UNL     1      40.387 -14.773   3.802  1.00  0.00    -0.272 OA
HETATM    4  H   UNL     1      42.811 -13.136   4.998  1.00  0.00     0.162 HD
ENDROOT
BRANCH   1   5
HETATM    5  C   UNL     1      40.842 -12.940   5.848  1.00  0.00     0.124 C 
BRANCH   5   6
HETATM    6  C   UNL     1      41.030 -11.440   6.088  1.00  0.00     0.047 C 
BRANCH   6   7
HETATM    7  C   UNL     1      39.699 -10.796   6.450  1.00  0.00     0.236 C 
BRANCH   7   8
HETATM    8  N   UNL     1      39.724 -10.166   7.831  1.00  0.00    -0.068 N 
HETATM    9  C   UNL     1      39.657 -11.199   8.966  1.00  0.00     0.254 C 
HETATM   10  C   UNL     1      39.858 -10.549  10.351  1.00  0.00     0.150 C 
HETATM   11  N   UNL     1      41.128  -9.799  10.344  1.00  0.00    -0.377 N 
HETATM   12  C   UNL     1      41.127  -8.687   9.380  1.00  0.00     0.150 C 
HETATM   13  C   UNL     1      40.967  -9.262   7.958  1.00  0.00     0.254 C 
HETATM   14  H   UNL     1      38.899  -9.558   7.922  1.00  0.00     0.280 HD
BRANCH  11  15
HETATM   15  C   UNL     1      41.668  -9.575  11.618  1.00  0.00     0.037 A 
HETATM   16  C   UNL     1      43.018  -9.913  11.886  1.00  0.00    -0.035 A 
HETATM   17  C   UNL     1      43.926 -10.501  10.837  1.00  0.00     0.050 C 
HETATM   18  C   UNL     1      43.556  -9.708  13.170  1.00  0.00     0.011 A 
HETATM   19  C   UNL     1      42.789  -9.137  14.182  1.00  0.00     0.024 A 
HETATM   20  C   UNL     1      41.474  -8.781  13.918  1.00  0.00     0.036 A 
HETATM   21  C   UNL     1      40.916  -8.999  12.655  1.00  0.00     0.053 A 
HETATM   22 CL   UNL     1      40.518  -8.066  15.157  1.00  0.00    -0.084 Cl
ENDBRANCH  11  15
ENDBRANCH   7   8
ENDBRANCH   6   7
ENDBRANCH   5   6
ENDBRANCH   1   5
BRANCH   2  23
HETATM   23  C   UNL     1      42.673 -14.712   3.002  1.00  0.00     0.257 C 
BRANCH  23  24
HETATM   24  N   UNL     1      43.216 -16.029   3.321  1.00  0.00    -0.224 N 
HETATM   25  N   UNL     1      43.490 -16.286   4.678  1.00  0.00    -0.180 NA
HETATM   26  C   UNL     1      43.825 -17.493   5.048  1.00  0.00     0.153 A 
HETATM   27  C   UNL     1      43.949 -18.551   4.086  1.00  0.00     0.028 A 
HETATM   28  C   UNL     1      43.730 -18.270   2.761  1.00  0.00     0.116 A 
HETATM   29  C   UNL     1      44.252 -19.932   4.198  1.00  0.00     0.005 A 
HETATM   30  N   UNL     1      43.908 -19.418   2.043  1.00  0.00    -0.350 N 
HETATM   31  C   UNL     1      43.351 -16.974   2.284  1.00  0.00     0.291 A 
HETATM   32  H   UNL     1      43.797 -19.501   1.040  1.00  0.00     0.166 HD
HETATM   33  C   UNL     1      44.221 -20.454   2.899  1.00  0.00     0.044 A 
HETATM   34  C   UNL     1      44.466 -21.804   2.624  1.00  0.00     0.030 A 
HETATM   35  C   UNL     1      44.744 -22.647   3.705  1.00  0.00     0.002 A 
HETATM   36  C   UNL     1      44.780 -22.156   5.008  1.00  0.00     0.001 A 
HETATM   37  C   UNL     1      44.538 -20.802   5.269  1.00  0.00     0.014 A 
HETATM   38  O   UNL     1      43.172 -16.720   1.099  1.00  0.00    -0.264 OA
ENDBRANCH  23  24
ENDBRANCH   2  23
TORSDOF 7
ENDMDL
MODEL 6
REMARK VINA RESULT:      -9.7      5.064      9.642
REMARK  7 active torsions:
REMARK  status: ('A' for Active; 'I' for Inactive)
REMARK    1  A    between atoms: C_3  and  N_4 
REMARK    2  A    between atoms: N_7  and  C_9 
REMARK    3  A    between atoms: C_9  and  C_10 
REMARK    4  A    between atoms: C_10  and  C_11 
REMARK    5  A    between atoms: C_11  and  N_12 
REMARK       I    between atoms: N_12  and  C_13 
REMARK    6  A    between atoms: C_13  and  C_14 
REMARK    7  A    between atoms: C_14  and  N_15 
ROOT
HETATM    1  N   UNL     1      42.270 -13.869   6.225  1.00  0.00    -0.360 N 
HETATM    2  C   UNL     1      43.608 -14.207   6.218  1.00  0.00     0.237 C 
HETATM    3  O   UNL     1      44.434 -13.535   5.599  1.00  0.00    -0.272 OA
HETATM    4  H   UNL     1      41.648 -14.477   6.757  1.00  0.00     0.162 HD
ENDROOT
BRANCH   1   5
HETATM    5  C   UNL     1      41.817 -12.594   5.727  1.00  0.00     0.124 C 
BRANCH   5   6
HETATM    6  C   UNL     1      41.316 -12.680   4.284  1.00  0.00     0.047 C 
BRANCH   6   7
HETATM    7  C   UNL     1      39.921 -12.082   4.175  1.00  0.00     0.236 C 
BRANCH   7   8
HETATM    8  N   UNL     1      39.205 -12.520   2.909  1.00  0.00    -0.068 N 
HETATM    9  C   UNL     1      39.590 -11.684   1.679  1.00  0.00     0.254 C 
HETATM   10  C   UNL     1      38.986 -12.257   0.381  1.00  0.00     0.150 C 
HETATM   11  N   UNL     1      39.389 -13.670   0.251  1.00  0.00    -0.377 N 
HETATM   12  C   UNL     1      38.865 -14.513   1.337  1.00  0.00     0.150 C 
HETATM   13  C   UNL     1      39.457 -14.025   2.676  1.00  0.00     0.254 C 
HETATM   14  H   UNL     1      38.194 -12.403   3.055  1.00  0.00     0.280 HD
BRANCH  11  15
HETATM   15  C   UNL     1      39.334 -14.163  -1.060  1.00  0.00     0.037 A 
HETATM   16  C   UNL     1      40.444 -14.858  -1.603  1.00  0.00    -0.035 A 
HETATM   17  C   UNL     1      41.703 -15.110  -0.814  1.00  0.00     0.050 C 
HETATM   18  C   UNL     1      40.399 -15.336  -2.926  1.00  0.00     0.011 A 
HETATM   19  C   UNL     1      39.258 -15.172  -3.705  1.00  0.00     0.024 A 
HETATM   20  C   UNL     1      38.159 -14.515  -3.169  1.00  0.00     0.036 A 
HETATM   21  C   UNL     1      38.194 -14.012  -1.866  1.00  0.00     0.053 A 
HETATM   22 CL   UNL     1      36.739 -14.313  -4.120  1.00  0.00    -0.084 Cl
ENDBRANCH  11  15
ENDBRANCH   7   8
ENDBRANCH   6   7
ENDBRANCH   5   6
ENDBRANCH   1   5
BRANCH   2  23
HETATM   23  C   UNL     1      43.961 -15.537   6.879  1.00  0.00     0.257 C 
BRANCH  23  24
HETATM   24  N   UNL     1      43.803 -16.681   5.986  1.00  0.00    -0.224 N 
HETATM   25  N   UNL     1      43.178 -16.434   4.749  1.00  0.00    -0.180 NA
HETATM   26  C   UNL     1      43.151 -17.375   3.844  1.00  0.00     0.153 A 
HETATM   27  C   UNL     1      43.720 -18.666   4.106  1.00  0.00     0.028 A 
HETATM   28  C   UNL     1      44.278 -18.907   5.336  1.00  0.00     0.116 A 
HETATM   29  C   UNL     1      43.866 -19.838   3.320  1.00  0.00     0.005 A 
HETATM   30  N   UNL     1      44.745 -20.190   5.353  1.00  0.00    -0.350 N 
HETATM   31  C   UNL     1      44.352 -17.921   6.372  1.00  0.00     0.291 A 
HETATM   32  H   UNL     1      45.216 -20.628   6.134  1.00  0.00     0.166 HD
HETATM   33  C   UNL     1      44.513 -20.781   4.128  1.00  0.00     0.044 A 
HETATM   34  C   UNL     1      44.834 -22.067   3.676  1.00  0.00     0.030 A 
HETATM   35  C   UNL     1      44.491 -22.396   2.360  1.00  0.00     0.002 A 
HETATM   36  C   UNL     1      43.849 -21.477   1.533  1.00  0.00     0.001 A 
HETATM   37  C   UNL     1      43.528 -20.197   2.000  1.00  0.00     0.014 A 
HETATM   38  O   UNL     1      44.837 -18.141   7.476  1.00  0.00    -0.264 OA
ENDBRANCH  23  24
ENDBRANCH   2  23
TORSDOF 7
ENDMDL
MODEL 7
REMARK VINA RESULT:      -9.4      2.426      4.082
REMARK  7 active torsions:
REMARK  status: ('A' for Active; 'I' for Inactive)
REMARK    1  A    between atoms: C_3  and  N_4 
REMARK    2  A    between atoms: N_7  and  C_9 
REMARK    3  A    between atoms: C_9  and  C_10 
REMARK    4  A    between atoms: C_10  and  C_11 
REMARK    5  A    between atoms: C_11  and  N_12 
REMARK       I    between atoms: N_12  and  C_13 
REMARK    6  A    between atoms: C_13  and  C_14 
REMARK    7  A    between atoms: C_14  and  N_15 
ROOT
HETATM    1  N   UNL     1      43.986 -15.150   7.621  1.00  0.00    -0.360 N 
HETATM    2  C   UNL     1      44.113 -13.891   7.069  1.00  0.00     0.237 C 
HETATM    3  O   UNL     1      43.684 -13.640   5.943  1.00  0.00    -0.272 OA
HETATM    4  H   UNL     1      44.369 -15.279   8.556  1.00  0.00     0.162 HD
ENDROOT
BRANCH   1   5
HETATM    5  C   UNL     1      43.136 -16.148   7.020  1.00  0.00     0.124 C 
BRANCH   5   6
HETATM    6  C   UNL     1      43.909 -17.073   6.076  1.00  0.00     0.047 C 
BRANCH   6   7
HETATM    7  C   UNL     1      43.007 -18.199   5.590  1.00  0.00     0.236 C 
BRANCH   7   8
HETATM    8  N   UNL     1      42.563 -17.997   4.152  1.00  0.00    -0.068 N 
HETATM    9  C   UNL     1      41.253 -17.202   4.032  1.00  0.00     0.254 C 
HETATM   10  C   UNL     1      40.918 -16.863   2.564  1.00  0.00     0.150 C 
HETATM   11  N   UNL     1      42.064 -16.155   1.965  1.00  0.00    -0.377 N 
HETATM   12  C   UNL     1      43.279 -16.983   1.912  1.00  0.00     0.150 C 
HETATM   13  C   UNL     1      43.704 -17.335   3.352  1.00  0.00     0.254 C 
HETATM   14  H   UNL     1      42.399 -18.922   3.733  1.00  0.00     0.280 HD
BRANCH  11  15
HETATM   15  C   UNL     1      41.737 -15.381   0.843  1.00  0.00     0.037 A 
HETATM   16  C   UNL     1      41.820 -13.967   0.909  1.00  0.00    -0.035 A 
HETATM   17  C   UNL     1      42.269 -13.242   2.151  1.00  0.00     0.050 C 
HETATM   18  C   UNL     1      41.472 -13.187  -0.210  1.00  0.00     0.011 A 
HETATM   19  C   UNL     1      41.081 -13.787  -1.403  1.00  0.00     0.024 A 
HETATM   20  C   UNL     1      41.023 -15.171  -1.481  1.00  0.00     0.036 A 
HETATM   21  C   UNL     1      41.341 -15.961  -0.373  1.00  0.00     0.053 A 
HETATM   22 CL   UNL     1      40.550 -15.924  -2.953  1.00  0.00    -0.084 Cl
ENDBRANCH  11  15
ENDBRANCH   7   8
ENDBRANCH   6   7
ENDBRANCH   5   6
ENDBRANCH   1   5
BRANCH   2  23
HETATM   23  C   UNL     1      44.951 -12.896   7.869  1.00  0.00     0.257 C 
BRANCH  23  24
HETATM   24  N   UNL     1      44.274 -12.410   9.067  1.00  0.00    -0.224 N 
HETATM   25  N   UNL     1      44.651 -13.001  10.288  1.00  0.00    -0.180 NA
HETATM   26  C   UNL     1      44.203 -12.501  11.408  1.00  0.00     0.153 A 
HETATM   27  C   UNL     1      43.306 -11.381  11.410  1.00  0.00     0.028 A 
HETATM   28  C   UNL     1      42.907 -10.851  10.209  1.00  0.00     0.116 A 
HETATM   29  C   UNL     1      42.703 -10.624  12.447  1.00  0.00     0.005 A 
HETATM   30  N   UNL     1      42.062  -9.808  10.458  1.00  0.00    -0.350 N 
HETATM   31  C   UNL     1      43.365 -11.340   8.943  1.00  0.00     0.291 A 
HETATM   32  H   UNL     1      41.627  -9.228   9.751  1.00  0.00     0.166 HD
HETATM   33  C   UNL     1      41.925  -9.642  11.822  1.00  0.00     0.044 A 
HETATM   34  C   UNL     1      41.184  -8.696  12.541  1.00  0.00     0.030 A 
HETATM   35  C   UNL     1      41.246  -8.751  13.937  1.00  0.00     0.002 A 
HETATM   36  C   UNL     1      42.013  -9.715  14.586  1.00  0.00     0.001 A 
HETATM   37  C   UNL     1      42.744 -10.659  13.854  1.00  0.00     0.014 A 
HETATM   38  O   UNL     1      42.996 -10.876   7.870  1.00  0.00    -0.264 OA
ENDBRANCH  23  24
ENDBRANCH   2  23
TORSDOF 7
ENDMDL
MODEL 8
REMARK VINA RESULT:      -9.4      1.820      2.376
REMARK  7 active torsions:
REMARK  status: ('A' for Active; 'I' for Inactive)
REMARK    1  A    between atoms: C_3  and  N_4 
REMARK    2  A    between atoms: N_7  and  C_9 
REMARK    3  A    between atoms: C_9  and  C_10 
REMARK    4  A    between atoms: C_10  and  C_11 
REMARK    5  A    between atoms: C_11  and  N_12 
REMARK       I    between atoms: N_12  and  C_13 
REMARK    6  A    between atoms: C_13  and  C_14 
REMARK    7  A    between atoms: C_14  and  N_15 
ROOT
HETATM    1  N   UNL     1      43.739 -13.292   7.598  1.00  0.00    -0.360 N 
HETATM    2  C   UNL     1      44.979 -12.881   8.044  1.00  0.00     0.237 C 
HETATM    3  O   UNL     1      46.006 -13.158   7.422  1.00  0.00    -0.272 OA
HETATM    4  H   UNL     1      42.938 -13.026   8.170  1.00  0.00     0.162 HD
ENDROOT
BRANCH   1   5
HETATM    5  C   UNL     1      43.561 -13.837   6.275  1.00  0.00     0.124 C 
BRANCH   5   6
HETATM    6  C   UNL     1      42.482 -13.094   5.484  1.00  0.00     0.047 C 
BRANCH   6   7
HETATM    7  C   UNL     1      41.213 -13.931   5.413  1.00  0.00     0.236 C 
BRANCH   7   8
HETATM    8  N   UNL     1      41.427 -15.235   4.663  1.00  0.00    -0.068 N 
HETATM    9  C   UNL     1      42.758 -15.277   3.897  1.00  0.00     0.254 C 
HETATM   10  C   UNL     1      43.029 -16.670   3.289  1.00  0.00     0.150 C 
HETATM   11  N   UNL     1      42.963 -17.678   4.363  1.00  0.00    -0.377 N 
HETATM   12  C   UNL     1      41.629 -17.767   4.979  1.00  0.00     0.150 C 
HETATM   13  C   UNL     1      41.298 -16.416   5.646  1.00  0.00     0.254 C 
HETATM   14  H   UNL     1      40.672 -15.335   3.972  1.00  0.00     0.280 HD
BRANCH  11  15
HETATM   15  C   UNL     1      43.643 -18.869   4.073  1.00  0.00     0.037 A 
HETATM   16  C   UNL     1      44.622 -19.363   4.971  1.00  0.00    -0.035 A 
HETATM   17  C   UNL     1      44.964 -18.660   6.259  1.00  0.00     0.050 C 
HETATM   18  C   UNL     1      45.321 -20.547   4.671  1.00  0.00     0.011 A 
HETATM   19  C   UNL     1      45.037 -21.271   3.516  1.00  0.00     0.024 A 
HETATM   20  C   UNL     1      44.060 -20.805   2.647  1.00  0.00     0.036 A 
HETATM   21  C   UNL     1      43.373 -19.618   2.916  1.00  0.00     0.053 A 
HETATM   22 CL   UNL     1      43.693 -21.695   1.221  1.00  0.00    -0.084 Cl
ENDBRANCH  11  15
ENDBRANCH   7   8
ENDBRANCH   6   7
ENDBRANCH   5   6
ENDBRANCH   1   5
BRANCH   2  23
HETATM   23  C   UNL     1      45.006 -12.217   9.418  1.00  0.00     0.257 C 
BRANCH  23  24
HETATM   24  N   UNL     1      43.815 -11.419   9.692  1.00  0.00    -0.224 N 
HETATM   25  N   UNL     1      43.312 -10.649   8.626  1.00  0.00    -0.180 NA
HETATM   26  C   UNL     1      42.164 -10.042   8.758  1.00  0.00     0.153 A 
HETATM   27  C   UNL     1      41.425 -10.122   9.985  1.00  0.00     0.028 A 
HETATM   28  C   UNL     1      41.955 -10.832  11.032  1.00  0.00     0.116 A 
HETATM   29  C   UNL     1      40.166  -9.610  10.393  1.00  0.00     0.005 A 
HETATM   30  N   UNL     1      41.085 -10.763  12.083  1.00  0.00    -0.350 N 
HETATM   31  C   UNL     1      43.202 -11.530  10.957  1.00  0.00     0.291 A 
HETATM   32  H   UNL     1      41.220 -11.209  12.982  1.00  0.00     0.166 HD
HETATM   33  C   UNL     1      39.977 -10.027  11.716  1.00  0.00     0.044 A 
HETATM   34  C   UNL     1      38.826  -9.710  12.448  1.00  0.00     0.030 A 
HETATM   35  C   UNL     1      37.839  -8.953  11.809  1.00  0.00     0.002 A 
HETATM   36  C   UNL     1      37.999  -8.527  10.493  1.00  0.00     0.001 A 
HETATM   37  C   UNL     1      39.158  -8.845   9.774  1.00  0.00     0.014 A 
HETATM   38  O   UNL     1      43.682 -12.152  11.898  1.00  0.00    -0.264 OA
ENDBRANCH  23  24
ENDBRANCH   2  23
TORSDOF 7
ENDMDL
MODEL 9
REMARK VINA RESULT:      -9.2      5.817     10.304
REMARK  7 active torsions:
REMARK  status: ('A' for Active; 'I' for Inactive)
REMARK    1  A    between atoms: C_3  and  N_4 
REMARK    2  A    between atoms: N_7  and  C_9 
REMARK    3  A    between atoms: C_9  and  C_10 
REMARK    4  A    between atoms: C_10  and  C_11 
REMARK    5  A    between atoms: C_11  and  N_12 
REMARK       I    between atoms: N_12  and  C_13 
REMARK    6  A    between atoms: C_13  and  C_14 
REMARK    7  A    between atoms: C_14  and  N_15 
ROOT
HETATM    1  N   UNL     1      41.268 -14.628   5.183  1.00  0.00    -0.360 N 
HETATM    2  C   UNL     1      42.482 -14.002   5.385  1.00  0.00     0.237 C 
HETATM    3  O   UNL     1      42.653 -12.824   5.069  1.00  0.00    -0.272 OA
HETATM    4  H   UNL     1      41.206 -15.605   5.468  1.00  0.00     0.162 HD
ENDROOT
BRANCH   1   5
HETATM    5  C   UNL     1      40.087 -13.878   4.833  1.00  0.00     0.124 C 
BRANCH   5   6
HETATM    6  C   UNL     1      39.466 -14.357   3.519  1.00  0.00     0.047 C 
BRANCH   6   7
HETATM    7  C   UNL     1      40.540 -14.490   2.449  1.00  0.00     0.236 C 
BRANCH   7   8
HETATM    8  N   UNL     1      40.636 -13.253   1.574  1.00  0.00    -0.068 N 
HETATM    9  C   UNL     1      42.084 -12.844   1.265  1.00  0.00     0.254 C 
HETATM   10  C   UNL     1      42.152 -11.694   0.239  1.00  0.00     0.150 C 
HETATM   11  N   UNL     1      41.408 -12.091  -0.970  1.00  0.00    -0.377 N 
HETATM   12  C   UNL     1      39.975 -12.307  -0.712  1.00  0.00     0.150 C 
HETATM   13  C   UNL     1      39.821 -13.475   0.284  1.00  0.00     0.254 C 
HETATM   14  H   UNL     1      40.197 -12.470   2.076  1.00  0.00     0.280 HD
BRANCH  11  15
HETATM   15  C   UNL     1      41.777 -11.389  -2.127  1.00  0.00     0.037 A 
HETATM   16  C   UNL     1      41.888 -12.071  -3.365  1.00  0.00    -0.035 A 
HETATM   17  C   UNL     1      41.608 -13.545  -3.502  1.00  0.00     0.050 C 
HETATM   18  C   UNL     1      42.279 -11.373  -4.522  1.00  0.00     0.011 A 
HETATM   19  C   UNL     1      42.523 -10.003  -4.481  1.00  0.00     0.024 A 
HETATM   20  C   UNL     1      42.389  -9.326  -3.277  1.00  0.00     0.036 A 
HETATM   21  C   UNL     1      42.026 -10.007  -2.112  1.00  0.00     0.053 A 
HETATM   22 CL   UNL     1      42.678  -7.631  -3.214  1.00  0.00    -0.084 Cl
ENDBRANCH  11  15
ENDBRANCH   7   8
ENDBRANCH   6   7
ENDBRANCH   5   6
ENDBRANCH   1   5
BRANCH   2  23
HETATM   23  C   UNL     1      43.621 -14.898   5.863  1.00  0.00     0.257 C 
BRANCH  23  24
HETATM   24  N   UNL     1      43.606 -16.222   5.248  1.00  0.00    -0.224 N 
HETATM   25  N   UNL     1      43.300 -16.276   3.875  1.00  0.00    -0.180 NA
HETATM   26  C   UNL     1      43.426 -17.406   3.234  1.00  0.00     0.153 A 
HETATM   27  C   UNL     1      43.842 -18.599   3.915  1.00  0.00     0.028 A 
HETATM   28  C   UNL     1      44.085 -18.540   5.264  1.00  0.00     0.116 A 
HETATM   29  C   UNL     1      44.095 -19.925   3.480  1.00  0.00     0.005 A 
HETATM   30  N   UNL     1      44.458 -19.783   5.689  1.00  0.00    -0.350 N 
HETATM   31  C   UNL     1      43.976 -17.335   6.030  1.00  0.00     0.291 A 
HETATM   32  H   UNL     1      44.709 -20.023   6.640  1.00  0.00     0.166 HD
HETATM   33  C   UNL     1      44.480 -20.649   4.615  1.00  0.00     0.044 A 
HETATM   34  C   UNL     1      44.820 -22.007   4.563  1.00  0.00     0.030 A 
HETATM   35  C   UNL     1      44.772 -22.639   3.316  1.00  0.00     0.002 A 
HETATM   36  C   UNL     1      44.394 -21.943   2.170  1.00  0.00     0.001 A 
HETATM   37  C   UNL     1      44.051 -20.588   2.238  1.00  0.00     0.014 A 
HETATM   38  O   UNL     1      44.178 -17.286   7.238  1.00  0.00    -0.264 OA
ENDBRANCH  23  24
ENDBRANCH   2  23
TORSDOF 7
ENDMDL
MODEL 10
REMARK VINA RESULT:      -9.1      2.780      4.260
REMARK  7 active torsions:
REMARK  status: ('A' for Active; 'I' for Inactive)
REMARK    1  A    between atoms: C_3  and  N_4 
REMARK    2  A    between atoms: N_7  and  C_9 
REMARK    3  A    between atoms: C_9  and  C_10 
REMARK    4  A    between atoms: C_10  and  C_11 
REMARK    5  A    between atoms: C_11  and  N_12 
REMARK       I    between atoms: N_12  and  C_13 
REMARK    6  A    between atoms: C_13  and  C_14 
REMARK    7  A    between atoms: C_14  and  N_15 
ROOT
HETATM    1  N   UNL     1      38.835 -11.522   3.564  1.00  0.00    -0.360 N 
HETATM    2  C   UNL     1      39.302 -10.288   3.970  1.00  0.00     0.237 C 
HETATM    3  O   UNL     1      40.015  -9.602   3.236  1.00  0.00    -0.272 OA
HETATM    4  H   UNL     1      38.254 -12.031   4.229  1.00  0.00     0.162 HD
ENDROOT
BRANCH   1   5
HETATM    5  C   UNL     1      38.946 -11.951   2.192  1.00  0.00     0.124 C 
BRANCH   5   6
HETATM    6  C   UNL     1      39.013 -13.475   2.066  1.00  0.00     0.047 C 
BRANCH   6   7
HETATM    7  C   UNL     1      39.703 -13.864   0.766  1.00  0.00     0.236 C 
BRANCH   7   8
HETATM    8  N   UNL     1      40.257 -15.277   0.811  1.00  0.00    -0.068 N 
HETATM    9  C   UNL     1      41.762 -15.345   0.513  1.00  0.00     0.254 C 
HETATM   10  C   UNL     1      42.331 -16.762   0.736  1.00  0.00     0.150 C 
HETATM   11  N   UNL     1      42.007 -17.194   2.107  1.00  0.00    -0.377 N 
HETATM   12  C   UNL     1      40.559 -17.308   2.341  1.00  0.00     0.150 C 
HETATM   13  C   UNL     1      39.917 -15.915   2.174  1.00  0.00     0.254 C 
HETATM   14  H   UNL     1      39.777 -15.833   0.091  1.00  0.00     0.280 HD
BRANCH  11  15
HETATM   15  C   UNL     1      42.842 -18.207   2.601  1.00  0.00     0.037 A 
HETATM   16  C   UNL     1      43.502 -18.038   3.845  1.00  0.00    -0.035 A 
HETATM   17  C   UNL     1      43.331 -16.801   4.687  1.00  0.00     0.050 C 
HETATM   18  C   UNL     1      44.357 -19.044   4.332  1.00  0.00     0.011 A 
HETATM   19  C   UNL     1      44.538 -20.230   3.626  1.00  0.00     0.024 A 
HETATM   20  C   UNL     1      43.875 -20.410   2.421  1.00  0.00     0.036 A 
HETATM   21  C   UNL     1      43.040 -19.412   1.909  1.00  0.00     0.053 A 
HETATM   22 CL   UNL     1      44.083 -21.876   1.543  1.00  0.00    -0.084 Cl
ENDBRANCH  11  15
ENDBRANCH   7   8
ENDBRANCH   6   7
ENDBRANCH   5   6
ENDBRANCH   1   5
BRANCH   2  23
HETATM   23  C   UNL     1      39.018  -9.914   5.422  1.00  0.00     0.257 C 
BRANCH  23  24
HETATM   24  N   UNL     1      40.051 -10.373   6.345  1.00  0.00    -0.224 N 
HETATM   25  N   UNL     1      40.896 -11.401   5.885  1.00  0.00    -0.180 NA
HETATM   26  C   UNL     1      41.936 -11.743   6.597  1.00  0.00     0.153 A 
HETATM   27  C   UNL     1      42.210 -11.110   7.855  1.00  0.00     0.028 A 
HETATM   28  C   UNL     1      41.346 -10.147   8.313  1.00  0.00     0.116 A 
HETATM   29  C   UNL     1      43.258 -11.247   8.801  1.00  0.00     0.005 A 
HETATM   30  N   UNL     1      41.804  -9.696   9.518  1.00  0.00    -0.350 N 
HETATM   31  C   UNL     1      40.193  -9.714   7.583  1.00  0.00     0.291 A 
HETATM   32  H   UNL     1      41.366  -8.974  10.075  1.00  0.00     0.166 HD
HETATM   33  C   UNL     1      42.978 -10.347   9.838  1.00  0.00     0.044 A 
HETATM   34  C   UNL     1      43.812 -10.200  10.953  1.00  0.00     0.030 A 
HETATM   35  C   UNL     1      44.966 -10.989  11.008  1.00  0.00     0.002 A 
HETATM   36  C   UNL     1      45.270 -11.890   9.990  1.00  0.00     0.001 A 
HETATM   37  C   UNL     1      44.425 -12.032   8.883  1.00  0.00     0.014 A 
HETATM   38  O   UNL     1      39.413  -8.865   8.000  1.00  0.00    -0.264 OA
ENDBRANCH  23  24
ENDBRANCH   2  23
TORSDOF 7
ENDMDL
