MODEL 1
REMARK VINA RESULT:      -8.7      0.000      0.000
REMARK  10 active torsions:
REMARK  status: ('A' for Active; 'I' for Inactive)
REMARK    1  A    between atoms: C_2  and  C_3 
REMARK    2  A    between atoms: C_3  and  C_4 
REMARK    3  A    between atoms: N_7  and  C_9 
REMARK    4  A    between atoms: C_9  and  C_10 
REMARK    5  A    between atoms: C_12  and  O_13 
REMARK    6  A    between atoms: O_13  and  C_14 
REMARK    7  A    between atoms: C_16  and  O_17 
REMARK    8  A    between atoms: N_25  and  C_26 
REMARK    9  A    between atoms: C_26  and  C_27 
REMARK   10  A    between atoms: C_27  and  C_28 
ROOT
HETATM    1  C   UNL     1      40.118 -15.030   3.383  1.00  0.00     0.026 C 
HETATM    2  C   UNL     1      39.536 -15.870   2.224  1.00  0.00     0.035 C 
HETATM    3  C   UNL     1      39.940 -15.403   0.830  1.00  0.00     0.235 C 
HETATM    4  N   UNL     1      39.607 -13.943   0.646  1.00  0.00    -0.067 N 
HETATM    5  H   UNL     1      38.581 -13.875   0.656  1.00  0.00     0.280 HD
HETATM    6  C   UNL     1      40.144 -13.053   1.740  1.00  0.00     0.235 C 
HETATM    7  C   UNL     1      39.745 -13.560   3.117  1.00  0.00     0.035 C 
ENDROOT
BRANCH   1   8
HETATM    8  C   UNL     1      41.631 -15.304   3.725  1.00  0.00     0.119 A 
HETATM    9  N   UNL     1      42.488 -15.182   2.571  1.00  0.00    -0.324 N 
HETATM   10  C   UNL     1      43.024 -16.393   2.187  1.00  0.00     0.326 A 
HETATM   11  H   UNL     1      42.945 -14.338   2.244  1.00  0.00     0.165 HD
HETATM   12  O   UNL     1      43.715 -16.508   1.191  1.00  0.00    -0.247 OA
HETATM   13  N   UNL     1      42.596 -17.357   3.042  1.00  0.00    -0.268 N 
HETATM   14  C   UNL     1      41.794 -16.815   4.011  1.00  0.00     0.256 A 
HETATM   15  O   UNL     1      41.222 -17.416   4.908  1.00  0.00    -0.270 OA
BRANCH   8  16
HETATM   16  C   UNL     1      42.142 -14.463   4.909  1.00  0.00     0.037 C 
HETATM   17  C   UNL     1      43.319 -13.544   4.587  1.00  0.00     0.008 C 
ENDBRANCH   8  16
BRANCH  13  18
HETATM   18  C   UNL     1      42.795 -18.785   2.851  1.00  0.00     0.142 C 
BRANCH  18  19
HETATM   19  C   UNL     1      44.265 -19.211   2.798  1.00  0.00     0.068 C 
BRANCH  19  20
HETATM   20  C   UNL     1      44.437 -20.589   3.358  1.00  0.00     0.010 A 
HETATM   21  S   UNL     1      44.771 -20.819   5.029  1.00  0.00    -0.085 SA
HETATM   22  C   UNL     1      44.842 -22.509   4.769  1.00  0.00     0.166 A 
HETATM   23  N   UNL     1      44.630 -22.910   3.537  1.00  0.00    -0.258 NA
HETATM   24  C   UNL     1      44.383 -21.819   2.719  1.00  0.00     0.044 A 
HETATM   25  C   UNL     1      44.102 -22.070   1.281  1.00  0.00     0.071 C 
ENDBRANCH  19  20
ENDBRANCH  18  19
ENDBRANCH  13  18
ENDBRANCH   1   8
BRANCH   4  26
HETATM   26  C   UNL     1      40.055 -13.406  -0.709  1.00  0.00     0.273 C 
BRANCH  26  27
HETATM   27  C   UNL     1      39.752 -14.283  -1.893  1.00  0.00    -0.030 A 
HETATM   28  C   UNL     1      38.487 -14.205  -2.514  1.00  0.00     0.048 A 
HETATM   29  C   UNL     1      38.181 -15.012  -3.610  1.00  0.00     0.102 A 
HETATM   30  C   UNL     1      39.162 -15.871  -4.105  1.00  0.00     0.099 A 
HETATM   31  C   UNL     1      40.412 -15.969  -3.507  1.00  0.00     0.040 A 
HETATM   32  C   UNL     1      40.706 -15.185  -2.391  1.00  0.00     0.012 A 
BRANCH  29  33
HETATM   33  O   UNL     1      36.988 -15.036  -4.282  1.00  0.00    -0.349 OA
BRANCH  33  34
HETATM   34  C   UNL     1      36.302 -13.789  -4.417  1.00  0.00     0.171 C 
HETATM   35  C   UNL     1      35.325 -13.911  -5.572  1.00  0.00     0.034 C 
ENDBRANCH  33  34
ENDBRANCH  29  33
BRANCH  30  36
HETATM   36  O   UNL     1      38.911 -16.657  -5.194  1.00  0.00    -0.358 OA
HETATM   37  H   UNL     1      39.188 -17.561  -4.942  1.00  0.00     0.218 HD
ENDBRANCH  30  36
ENDBRANCH  26  27
ENDBRANCH   4  26
TORSDOF 10
ENDMDL
MODEL 2
REMARK VINA RESULT:      -8.6      3.647      8.816
REMARK  10 active torsions:
REMARK  status: ('A' for Active; 'I' for Inactive)
REMARK    1  A    between atoms: C_2  and  C_3 
REMARK    2  A    between atoms: C_3  and  C_4 
REMARK    3  A    between atoms: N_7  and  C_9 
REMARK    4  A    between atoms: C_9  and  C_10 
REMARK    5  A    between atoms: C_12  and  O_13 
REMARK    6  A    between atoms: O_13  and  C_14 
REMARK    7  A    between atoms: C_16  and  O_17 
REMARK    8  A    between atoms: N_25  and  C_26 
REMARK    9  A    between atoms: C_26  and  C_27 
REMARK   10  A    between atoms: C_27  and  C_28 
ROOT
HETATM    1  C   UNL     1      41.189 -15.251   4.559  1.00  0.00     0.026 C 
HETATM    2  C   UNL     1      42.138 -14.436   5.466  1.00  0.00     0.035 C 
HETATM    3  C   UNL     1      43.395 -15.178   5.906  1.00  0.00     0.235 C 
HETATM    4  N   UNL     1      43.032 -16.489   6.560  1.00  0.00    -0.067 N 
HETATM    5  H   UNL     1      42.549 -16.253   7.437  1.00  0.00     0.280 HD
HETATM    6  C   UNL     1      42.106 -17.346   5.733  1.00  0.00     0.235 C 
HETATM    7  C   UNL     1      40.875 -16.570   5.289  1.00  0.00     0.035 C 
ENDROOT
BRANCH   1   8
HETATM    8  C   UNL     1      41.640 -15.388   3.056  1.00  0.00     0.119 A 
HETATM    9  N   UNL     1      42.534 -14.332   2.650  1.00  0.00    -0.324 N 
HETATM   10  C   UNL     1      41.959 -13.485   1.727  1.00  0.00     0.326 A 
HETATM   11  H   UNL     1      43.545 -14.336   2.722  1.00  0.00     0.165 HD
HETATM   12  O   UNL     1      42.529 -12.490   1.318  1.00  0.00    -0.247 OA
HETATM   13  N   UNL     1      40.702 -13.920   1.451  1.00  0.00    -0.268 N 
HETATM   14  C   UNL     1      40.425 -15.060   2.157  1.00  0.00     0.256 A 
HETATM   15  O   UNL     1      39.372 -15.680   2.161  1.00  0.00    -0.270 OA
BRANCH   8  16
HETATM   16  C   UNL     1      42.208 -16.780   2.723  1.00  0.00     0.037 C 
HETATM   17  C   UNL     1      43.680 -16.795   2.315  1.00  0.00     0.008 C 
ENDBRANCH   8  16
BRANCH  13  18
HETATM   18  C   UNL     1      39.720 -13.182   0.672  1.00  0.00     0.142 C 
BRANCH  18  19
HETATM   19  C   UNL     1      39.358 -13.840  -0.662  1.00  0.00     0.068 C 
BRANCH  19  20
HETATM   20  C   UNL     1      40.369 -13.498  -1.713  1.00  0.00     0.010 A 
HETATM   21  S   UNL     1      40.930 -11.882  -1.894  1.00  0.00    -0.085 SA
HETATM   22  C   UNL     1      41.906 -12.382  -3.207  1.00  0.00     0.166 A 
HETATM   23  N   UNL     1      41.849 -13.658  -3.513  1.00  0.00    -0.258 NA
HETATM   24  C   UNL     1      40.981 -14.312  -2.654  1.00  0.00     0.044 A 
HETATM   25  C   UNL     1      40.791 -15.777  -2.830  1.00  0.00     0.071 C 
ENDBRANCH  19  20
ENDBRANCH  18  19
ENDBRANCH  13  18
ENDBRANCH   1   8
BRANCH   4  26
HETATM   26  C   UNL     1      44.257 -17.305   6.957  1.00  0.00     0.273 C 
BRANCH  26  27
HETATM   27  C   UNL     1      44.291 -18.723   6.454  1.00  0.00    -0.030 A 
HETATM   28  C   UNL     1      44.736 -18.987   5.141  1.00  0.00     0.048 A 
HETATM   29  C   UNL     1      44.770 -20.293   4.651  1.00  0.00     0.102 A 
HETATM   30  C   UNL     1      44.391 -21.337   5.495  1.00  0.00     0.099 A 
HETATM   31  C   UNL     1      43.944 -21.100   6.789  1.00  0.00     0.040 A 
HETATM   32  C   UNL     1      43.879 -19.790   7.267  1.00  0.00     0.012 A 
BRANCH  29  33
HETATM   33  O   UNL     1      45.166 -20.669   3.395  1.00  0.00    -0.349 OA
BRANCH  33  34
HETATM   34  C   UNL     1      44.209 -20.509   2.345  1.00  0.00     0.171 C 
HETATM   35  C   UNL     1      44.069 -21.838   1.627  1.00  0.00     0.034 C 
ENDBRANCH  33  34
ENDBRANCH  29  33
BRANCH  30  36
HETATM   36  O   UNL     1      44.437 -22.632   5.062  1.00  0.00    -0.358 OA
HETATM   37  H   UNL     1      44.747 -23.159   5.825  1.00  0.00     0.218 HD
ENDBRANCH  30  36
ENDBRANCH  26  27
ENDBRANCH   4  26
TORSDOF 10
ENDMDL
MODEL 3
REMARK VINA RESULT:      -8.3      3.389      8.597
REMARK  10 active torsions:
REMARK  status: ('A' for Active; 'I' for Inactive)
REMARK    1  A    between atoms: C_2  and  C_3 
REMARK    2  A    between atoms: C_3  and  C_4 
REMARK    3  A    between atoms: N_7  and  C_9 
REMARK    4  A    between atoms: C_9  and  C_10 
REMARK    5  A    between atoms: C_12  and  O_13 
REMARK    6  A    between atoms: O_13  and  C_14 
REMARK    7  A    between atoms: C_16  and  O_17 
REMARK    8  A    between atoms: N_25  and  C_26 
REMARK    9  A    between atoms: C_26  and  C_27 
REMARK   10  A    between atoms: C_27  and  C_28 
ROOT
HETATM    1  C   UNL     1      42.176 -14.758   5.080  1.00  0.00     0.026 C 
HETATM    2  C   UNL     1      43.321 -14.611   4.053  1.00  0.00     0.035 C 
HETATM    3  C   UNL     1      43.268 -15.594   2.890  1.00  0.00     0.235 C 
HETATM    4  N   UNL     1      43.192 -17.012   3.400  1.00  0.00    -0.067 N 
HETATM    5  H   UNL     1      44.091 -17.204   3.861  1.00  0.00     0.280 HD
HETATM    6  C   UNL     1      42.092 -17.238   4.409  1.00  0.00     0.235 C 
HETATM    7  C   UNL     1      42.159 -16.226   5.543  1.00  0.00     0.035 C 
ENDROOT
BRANCH   1   8
HETATM    8  C   UNL     1      40.787 -14.162   4.635  1.00  0.00     0.119 A 
HETATM    9  N   UNL     1      39.979 -15.121   3.922  1.00  0.00    -0.324 N 
HETATM   10  C   UNL     1      39.819 -14.785   2.594  1.00  0.00     0.326 A 
HETATM   11  H   UNL     1      39.318 -15.773   4.326  1.00  0.00     0.165 HD
HETATM   12  O   UNL     1      39.231 -15.507   1.810  1.00  0.00    -0.247 OA
HETATM   13  N   UNL     1      40.465 -13.615   2.353  1.00  0.00    -0.268 N 
HETATM   14  C   UNL     1      41.042 -13.142   3.501  1.00  0.00     0.256 A 
HETATM   15  O   UNL     1      41.722 -12.133   3.616  1.00  0.00    -0.270 OA
BRANCH   8  16
HETATM   16  C   UNL     1      40.012 -13.510   5.795  1.00  0.00     0.037 C 
HETATM   17  C   UNL     1      39.092 -12.360   5.390  1.00  0.00     0.008 C 
ENDBRANCH   8  16
BRANCH  13  18
HETATM   18  C   UNL     1      40.682 -13.042   1.034  1.00  0.00     0.142 C 
BRANCH  18  19
HETATM   19  C   UNL     1      41.856 -13.659   0.269  1.00  0.00     0.068 C 
BRANCH  19  20
HETATM   20  C   UNL     1      41.600 -13.633  -1.207  1.00  0.00     0.010 A 
HETATM   21  S   UNL     1      40.626 -14.842  -1.947  1.00  0.00    -0.085 SA
HETATM   22  C   UNL     1      40.899 -14.111  -3.470  1.00  0.00     0.166 A 
HETATM   23  N   UNL     1      41.652 -13.035  -3.464  1.00  0.00    -0.258 NA
HETATM   24  C   UNL     1      42.050 -12.742  -2.170  1.00  0.00     0.044 A 
HETATM   25  C   UNL     1      42.901 -11.542  -1.952  1.00  0.00     0.071 C 
ENDBRANCH  19  20
ENDBRANCH  18  19
ENDBRANCH  13  18
ENDBRANCH   1   8
BRANCH   4  26
HETATM   26  C   UNL     1      43.065 -18.034   2.276  1.00  0.00     0.273 C 
BRANCH  26  27
HETATM   27  C   UNL     1      43.552 -19.421   2.594  1.00  0.00    -0.030 A 
HETATM   28  C   UNL     1      44.035 -19.711   3.887  1.00  0.00     0.048 A 
HETATM   29  C   UNL     1      44.498 -20.989   4.205  1.00  0.00     0.102 A 
HETATM   30  C   UNL     1      44.440 -21.985   3.228  1.00  0.00     0.099 A 
HETATM   31  C   UNL     1      43.975 -21.720   1.946  1.00  0.00     0.040 A 
HETATM   32  C   UNL     1      43.543 -20.434   1.621  1.00  0.00     0.012 A 
BRANCH  29  33
HETATM   33  O   UNL     1      45.001 -21.384   5.415  1.00  0.00    -0.349 OA
BRANCH  33  34
HETATM   34  C   UNL     1      44.052 -21.626   6.457  1.00  0.00     0.171 C 
HETATM   35  C   UNL     1      43.779 -20.310   7.162  1.00  0.00     0.034 C 
ENDBRANCH  33  34
ENDBRANCH  29  33
BRANCH  30  36
HETATM   36  O   UNL     1      44.857 -23.255   3.508  1.00  0.00    -0.358 OA
HETATM   37  H   UNL     1      44.646 -23.787   2.715  1.00  0.00     0.218 HD
ENDBRANCH  30  36
ENDBRANCH  26  27
ENDBRANCH   4  26
TORSDOF 10
ENDMDL
MODEL 4
REMARK VINA RESULT:      -8.2      1.547      2.313
REMARK  10 active torsions:
REMARK  status: ('A' for Active; 'I' for Inactive)
REMARK    1  A    between atoms: C_2  and  C_3 
REMARK    2  A    between atoms: C_3  and  C_4 
REMARK    3  A    between atoms: N_7  and  C_9 
REMARK    4  A    between atoms: C_9  and  C_10 
REMARK    5  A    between atoms: C_12  and  O_13 
REMARK    6  A    between atoms: O_13  and  C_14 
REMARK    7  A    between atoms: C_16  and  O_17 
REMARK    8  A    between atoms: N_25  and  C_26 
REMARK    9  A    between atoms: C_26  and  C_27 
REMARK   10  A    between atoms: C_27  and  C_28 
ROOT
HETATM    1  C   UNL     1      40.121 -14.623   3.712  1.00  0.00     0.026 C 
HETATM    2  C   UNL     1      39.282 -15.254   2.579  1.00  0.00     0.035 C 
HETATM    3  C   UNL     1      39.318 -14.496   1.257  1.00  0.00     0.235 C 
HETATM    4  N   UNL     1      38.927 -13.054   1.466  1.00  0.00    -0.067 N 
HETATM    5  H   UNL     1      37.935 -13.057   1.736  1.00  0.00     0.280 HD
HETATM    6  C   UNL     1      39.706 -12.363   2.559  1.00  0.00     0.235 C 
HETATM    7  C   UNL     1      39.670 -13.157   3.856  1.00  0.00     0.035 C 
ENDROOT
BRANCH   1   8
HETATM    8  C   UNL     1      41.675 -14.857   3.616  1.00  0.00     0.119 A 
HETATM    9  N   UNL     1      42.125 -15.021   2.255  1.00  0.00    -0.324 N 
HETATM   10  C   UNL     1      42.567 -16.302   2.001  1.00  0.00     0.326 A 
HETATM   11  H   UNL     1      42.421 -14.286   1.624  1.00  0.00     0.165 HD
HETATM   12  O   UNL     1      42.918 -16.658   0.891  1.00  0.00    -0.247 OA
HETATM   13  N   UNL     1      42.467 -17.038   3.138  1.00  0.00    -0.268 N 
HETATM   14  C   UNL     1      41.985 -16.270   4.164  1.00  0.00     0.256 A 
HETATM   15  O   UNL     1      41.746 -16.638   5.304  1.00  0.00    -0.270 OA
BRANCH   8  16
HETATM   16  C   UNL     1      42.493 -13.788   4.364  1.00  0.00     0.037 C 
HETATM   17  C   UNL     1      44.009 -13.971   4.296  1.00  0.00     0.008 C 
ENDBRANCH   8  16
BRANCH  13  18
HETATM   18  C   UNL     1      42.658 -18.478   3.216  1.00  0.00     0.142 C 
BRANCH  18  19
HETATM   19  C   UNL     1      44.099 -18.932   2.967  1.00  0.00     0.068 C 
BRANCH  19  20
HETATM   20  C   UNL     1      44.341 -20.281   3.573  1.00  0.00     0.010 A 
HETATM   21  S   UNL     1      44.658 -20.440   5.256  1.00  0.00    -0.085 SA
HETATM   22  C   UNL     1      44.831 -22.130   5.050  1.00  0.00     0.166 A 
HETATM   23  N   UNL     1      44.664 -22.580   3.828  1.00  0.00    -0.258 NA
HETATM   24  C   UNL     1      44.369 -21.531   2.972  1.00  0.00     0.044 A 
HETATM   25  C   UNL     1      44.128 -21.841   1.538  1.00  0.00     0.071 C 
ENDBRANCH  19  20
ENDBRANCH  18  19
ENDBRANCH  13  18
ENDBRANCH   1   8
BRANCH   4  26
HETATM   26  C   UNL     1      39.015 -12.231   0.185  1.00  0.00     0.273 C 
BRANCH  26  27
HETATM   27  C   UNL     1      40.162 -12.565  -0.729  1.00  0.00    -0.030 A 
HETATM   28  C   UNL     1      39.994 -13.546  -1.730  1.00  0.00     0.048 A 
HETATM   29  C   UNL     1      41.045 -13.876  -2.586  1.00  0.00     0.102 A 
HETATM   30  C   UNL     1      42.254 -13.192  -2.459  1.00  0.00     0.099 A 
HETATM   31  C   UNL     1      42.444 -12.227  -1.478  1.00  0.00     0.040 A 
HETATM   32  C   UNL     1      41.403 -11.921  -0.601  1.00  0.00     0.012 A 
BRANCH  29  33
HETATM   33  O   UNL     1      41.006 -14.818  -3.580  1.00  0.00    -0.349 OA
BRANCH  33  34
HETATM   34  C   UNL     1      40.271 -16.013  -3.304  1.00  0.00     0.171 C 
HETATM   35  C   UNL     1      39.073 -16.056  -4.235  1.00  0.00     0.034 C 
ENDBRANCH  33  34
ENDBRANCH  29  33
BRANCH  30  36
HETATM   36  O   UNL     1      43.298 -13.467  -3.297  1.00  0.00    -0.358 OA
HETATM   37  H   UNL     1      43.543 -12.615  -3.709  1.00  0.00     0.218 HD
ENDBRANCH  30  36
ENDBRANCH  26  27
ENDBRANCH   4  26
TORSDOF 10
ENDMDL
MODEL 5
REMARK VINA RESULT:      -8.2      2.654      3.694
REMARK  10 active torsions:
REMARK  status: ('A' for Active; 'I' for Inactive)
REMARK    1  A    between atoms: C_2  and  C_3 
REMARK    2  A    between atoms: C_3  and  C_4 
REMARK    3  A    between atoms: N_7  and  C_9 
REMARK    4  A    between atoms: C_9  and  C_10 
REMARK    5  A    between atoms: C_12  and  O_13 
REMARK    6  A    between atoms: O_13  and  C_14 
REMARK    7  A    between atoms: C_16  and  O_17 
REMARK    8  A    between atoms: N_25  and  C_26 
REMARK    9  A    between atoms: C_26  and  C_27 
REMARK   10  A    between atoms: C_27  and  C_28 
ROOT
HETATM    1  C   UNL     1      41.774 -14.292   5.566  1.00  0.00     0.026 C 
HETATM    2  C   UNL     1      40.475 -14.990   5.105  1.00  0.00     0.035 C 
HETATM    3  C   UNL     1      39.922 -14.497   3.772  1.00  0.00     0.235 C 
HETATM    4  N   UNL     1      39.740 -13.000   3.798  1.00  0.00    -0.067 N 
HETATM    5  H   UNL     1      38.991 -12.809   4.475  1.00  0.00     0.280 HD
HETATM    6  C   UNL     1      40.970 -12.244   4.237  1.00  0.00     0.235 C 
HETATM    7  C   UNL     1      41.509 -12.775   5.556  1.00  0.00     0.035 C 
ENDROOT
BRANCH   1   8
HETATM    8  C   UNL     1      43.090 -14.764   4.841  1.00  0.00     0.119 A 
HETATM    9  N   UNL     1      43.033 -14.572   3.413  1.00  0.00    -0.324 N 
HETATM   10  C   UNL     1      42.994 -15.766   2.725  1.00  0.00     0.326 A 
HETATM   11  H   UNL     1      43.315 -13.743   2.903  1.00  0.00     0.165 HD
HETATM   12  O   UNL     1      42.871 -15.813   1.515  1.00  0.00    -0.247 OA
HETATM   13  N   UNL     1      43.046 -16.791   3.615  1.00  0.00    -0.268 N 
HETATM   14  C   UNL     1      43.141 -16.309   4.894  1.00  0.00     0.256 A 
HETATM   15  O   UNL     1      43.171 -16.967   5.923  1.00  0.00    -0.270 OA
BRANCH   8  16
HETATM   16  C   UNL     1      44.365 -14.153   5.451  1.00  0.00     0.037 C 
HETATM   17  C   UNL     1      44.398 -14.119   6.978  1.00  0.00     0.008 C 
ENDBRANCH   8  16
BRANCH  13  18
HETATM   18  C   UNL     1      42.837 -18.191   3.283  1.00  0.00     0.142 C 
BRANCH  18  19
HETATM   19  C   UNL     1      44.069 -18.886   2.698  1.00  0.00     0.068 C 
BRANCH  19  20
HETATM   20  C   UNL     1      44.339 -20.176   3.411  1.00  0.00     0.010 A 
HETATM   21  S   UNL     1      44.676 -20.188   5.097  1.00  0.00    -0.085 SA
HETATM   22  C   UNL     1      44.874 -21.886   5.032  1.00  0.00     0.166 A 
HETATM   23  N   UNL     1      44.702 -22.440   3.854  1.00  0.00    -0.258 NA
HETATM   24  C   UNL     1      44.381 -21.471   2.917  1.00  0.00     0.044 A 
HETATM   25  C   UNL     1      44.131 -21.904   1.517  1.00  0.00     0.071 C 
ENDBRANCH  19  20
ENDBRANCH  18  19
ENDBRANCH  13  18
ENDBRANCH   1   8
BRANCH   4  26
HETATM   26  C   UNL     1      39.255 -12.445   2.462  1.00  0.00     0.273 C 
BRANCH  26  27
HETATM   27  C   UNL     1      40.037 -12.878   1.252  1.00  0.00    -0.030 A 
HETATM   28  C   UNL     1      41.160 -12.129   0.842  1.00  0.00     0.048 A 
HETATM   29  C   UNL     1      41.897 -12.507  -0.281  1.00  0.00     0.102 A 
HETATM   30  C   UNL     1      41.525 -13.663  -0.969  1.00  0.00     0.099 A 
HETATM   31  C   UNL     1      40.420 -14.412  -0.587  1.00  0.00     0.040 A 
HETATM   32  C   UNL     1      39.664 -14.015   0.516  1.00  0.00     0.012 A 
BRANCH  29  33
HETATM   33  O   UNL     1      42.991 -11.853  -0.781  1.00  0.00    -0.349 OA
BRANCH  33  34
HETATM   34  C   UNL     1      42.751 -10.603  -1.431  1.00  0.00     0.171 C 
HETATM   35  C   UNL     1      43.920  -9.683  -1.131  1.00  0.00     0.034 C 
ENDBRANCH  33  34
ENDBRANCH  29  33
BRANCH  30  36
HETATM   36  O   UNL     1      42.239 -14.082  -2.057  1.00  0.00    -0.358 OA
HETATM   37  H   UNL     1      41.690 -14.766  -2.490  1.00  0.00     0.218 HD
ENDBRANCH  30  36
ENDBRANCH  26  27
ENDBRANCH   4  26
TORSDOF 10
ENDMDL
MODEL 6
REMARK VINA RESULT:      -8.1      4.362      9.056
REMARK  10 active torsions:
REMARK  status: ('A' for Active; 'I' for Inactive)
REMARK    1  A    between atoms: C_2  and  C_3 
REMARK    2  A    between atoms: C_3  and  C_4 
REMARK    3  A    between atoms: N_7  and  C_9 
REMARK    4  A    between atoms: C_9  and  C_10 
REMARK    5  A    between atoms: C_12  and  O_13 
REMARK    6  A    between atoms: O_13  and  C_14 
REMARK    7  A    between atoms: C_16  and  O_17 
REMARK    8  A    between atoms: N_25  and  C_26 
REMARK    9  A    between atoms: C_26  and  C_27 
REMARK   10  A    between atoms: C_27  and  C_28 
ROOT
HETATM    1  C   UNL     1      40.508 -15.338   1.844  1.00  0.00     0.026 C 
HETATM    2  C   UNL     1      40.728 -16.406   2.940  1.00  0.00     0.035 C 
HETATM    3  C   UNL     1      42.124 -17.017   2.967  1.00  0.00     0.235 C 
HETATM    4  N   UNL     1      42.484 -17.568   1.610  1.00  0.00    -0.067 N 
HETATM    5  H   UNL     1      41.856 -18.364   1.442  1.00  0.00     0.280 HD
HETATM    6  C   UNL     1      42.300 -16.582   0.483  1.00  0.00     0.235 C 
HETATM    7  C   UNL     1      40.906 -15.972   0.499  1.00  0.00     0.035 C 
ENDROOT
BRANCH   1   8
HETATM    8  C   UNL     1      41.127 -13.922   2.146  1.00  0.00     0.119 A 
HETATM    9  N   UNL     1      42.553 -13.977   2.360  1.00  0.00    -0.324 N 
HETATM   10  C   UNL     1      42.897 -13.691   3.664  1.00  0.00     0.326 A 
HETATM   11  H   UNL     1      43.274 -13.895   1.653  1.00  0.00     0.165 HD
HETATM   12  O   UNL     1      44.047 -13.758   4.060  1.00  0.00    -0.247 OA
HETATM   13  N   UNL     1      41.770 -13.413   4.369  1.00  0.00    -0.268 N 
HETATM   14  C   UNL     1      40.669 -13.487   3.558  1.00  0.00     0.256 A 
HETATM   15  O   UNL     1      39.504 -13.327   3.889  1.00  0.00    -0.270 OA
BRANCH   8  16
HETATM   16  C   UNL     1      40.747 -12.862   1.095  1.00  0.00     0.037 C 
HETATM   17  C   UNL     1      41.901 -12.382   0.216  1.00  0.00     0.008 C 
ENDBRANCH   8  16
BRANCH  13  18
HETATM   18  C   UNL     1      41.711 -13.253   5.813  1.00  0.00     0.142 C 
BRANCH  18  19
HETATM   19  C   UNL     1      42.050 -11.841   6.300  1.00  0.00     0.068 C 
BRANCH  19  20
HETATM   20  C   UNL     1      40.889 -10.917   6.096  1.00  0.00     0.010 A 
HETATM   21  S   UNL     1      40.848  -9.848   4.750  1.00  0.00    -0.085 SA
HETATM   22  C   UNL     1      39.351  -9.230   5.302  1.00  0.00     0.166 A 
HETATM   23  N   UNL     1      38.882  -9.764   6.406  1.00  0.00    -0.258 NA
HETATM   24  C   UNL     1      39.747 -10.744   6.865  1.00  0.00     0.044 A 
HETATM   25  C   UNL     1      39.381 -11.481   8.103  1.00  0.00     0.071 C 
ENDBRANCH  19  20
ENDBRANCH  18  19
ENDBRANCH  13  18
ENDBRANCH   1   8
BRANCH   4  26
HETATM   26  C   UNL     1      43.902 -18.130   1.563  1.00  0.00     0.273 C 
BRANCH  26  27
HETATM   27  C   UNL     1      44.105 -19.452   2.250  1.00  0.00    -0.030 A 
HETATM   28  C   UNL     1      44.393 -19.484   3.632  1.00  0.00     0.048 A 
HETATM   29  C   UNL     1      44.590 -20.698   4.290  1.00  0.00     0.102 A 
HETATM   30  C   UNL     1      44.462 -21.883   3.564  1.00  0.00     0.099 A 
HETATM   31  C   UNL     1      44.185 -21.876   2.203  1.00  0.00     0.040 A 
HETATM   32  C   UNL     1      44.020 -20.660   1.539  1.00  0.00     0.012 A 
BRANCH  29  33
HETATM   33  O   UNL     1      44.889 -20.853   5.617  1.00  0.00    -0.349 OA
BRANCH  33  34
HETATM   34  C   UNL     1      44.106 -20.097   6.544  1.00  0.00     0.171 C 
HETATM   35  C   UNL     1      43.439 -21.068   7.501  1.00  0.00     0.034 C 
ENDBRANCH  33  34
ENDBRANCH  29  33
BRANCH  30  36
HETATM   36  O   UNL     1      44.620 -23.093   4.179  1.00  0.00    -0.358 OA
HETATM   37  H   UNL     1      45.544 -23.363   4.006  1.00  0.00     0.218 HD
ENDBRANCH  30  36
ENDBRANCH  26  27
ENDBRANCH   4  26
TORSDOF 10
ENDMDL
MODEL 7
REMARK VINA RESULT:      -8.1      3.760      9.425
REMARK  10 active torsions:
REMARK  status: ('A' for Active; 'I' for Inactive)
REMARK    1  A    between atoms: C_2  and  C_3 
REMARK    2  A    between atoms: C_3  and  C_4 
REMARK    3  A    between atoms: N_7  and  C_9 
REMARK    4  A    between atoms: C_9  and  C_10 
REMARK    5  A    between atoms: C_12  and  O_13 
REMARK    6  A    between atoms: O_13  and  C_14 
REMARK    7  A    between atoms: C_16  and  O_17 
REMARK    8  A    between atoms: N_25  and  C_26 
REMARK    9  A    between atoms: C_26  and  C_27 
REMARK   10  A    between atoms: C_27  and  C_28 
ROOT
HETATM    1  C   UNL     1      40.661 -14.088   1.955  1.00  0.00     0.026 C 
HETATM    2  C   UNL     1      42.183 -14.352   1.920  1.00  0.00     0.035 C 
HETATM    3  C   UNL     1      42.583 -15.721   1.382  1.00  0.00     0.235 C 
HETATM    4  N   UNL     1      41.872 -16.814   2.142  1.00  0.00    -0.067 N 
HETATM    5  H   UNL     1      42.245 -16.792   3.100  1.00  0.00     0.280 HD
HETATM    6  C   UNL     1      40.377 -16.629   2.219  1.00  0.00     0.235 C 
HETATM    7  C   UNL     1      40.012 -15.246   2.735  1.00  0.00     0.035 C 
ENDROOT
BRANCH   1   8
HETATM    8  C   UNL     1      40.001 -13.741   0.567  1.00  0.00     0.119 A 
HETATM    9  N   UNL     1      39.983 -14.868  -0.332  1.00  0.00    -0.324 N 
HETATM   10  C   UNL     1      40.819 -14.688  -1.414  1.00  0.00     0.326 A 
HETATM   11  H   UNL     1      39.252 -15.565  -0.412  1.00  0.00     0.165 HD
HETATM   12  O   UNL     1      40.997 -15.558  -2.247  1.00  0.00    -0.247 OA
HETATM   13  N   UNL     1      41.407 -13.467  -1.320  1.00  0.00    -0.268 N 
HETATM   14  C   UNL     1      40.965 -12.808  -0.204  1.00  0.00     0.256 A 
HETATM   15  O   UNL     1      41.324 -11.707   0.187  1.00  0.00    -0.270 OA
BRANCH   8  16
HETATM   16  C   UNL     1      38.610 -13.096   0.707  1.00  0.00     0.037 C 
HETATM   17  C   UNL     1      37.435 -14.068   0.603  1.00  0.00     0.008 C 
ENDBRANCH   8  16
BRANCH  13  18
HETATM   18  C   UNL     1      42.491 -12.999  -2.169  1.00  0.00     0.142 C 
BRANCH  18  19
HETATM   19  C   UNL     1      42.031 -12.433  -3.516  1.00  0.00     0.068 C 
BRANCH  19  20
HETATM   20  C   UNL     1      41.409 -11.081  -3.338  1.00  0.00     0.010 A 
HETATM   21  S   UNL     1      42.392  -9.674  -3.233  1.00  0.00    -0.085 SA
HETATM   22  C   UNL     1      40.985  -8.724  -3.017  1.00  0.00     0.166 A 
HETATM   23  N   UNL     1      39.845  -9.376  -3.024  1.00  0.00    -0.258 NA
HETATM   24  C   UNL     1      40.073 -10.728  -3.221  1.00  0.00     0.044 A 
HETATM   25  C   UNL     1      38.898 -11.637  -3.276  1.00  0.00     0.071 C 
ENDBRANCH  19  20
ENDBRANCH  18  19
ENDBRANCH  13  18
ENDBRANCH   1   8
BRANCH   4  26
HETATM   26  C   UNL     1      42.183 -18.204   1.597  1.00  0.00     0.273 C 
BRANCH  26  27
HETATM   27  C   UNL     1      43.047 -19.072   2.471  1.00  0.00    -0.030 A 
HETATM   28  C   UNL     1      43.261 -18.711   3.819  1.00  0.00     0.048 A 
HETATM   29  C   UNL     1      44.062 -19.497   4.647  1.00  0.00     0.102 A 
HETATM   30  C   UNL     1      44.619 -20.667   4.129  1.00  0.00     0.099 A 
HETATM   31  C   UNL     1      44.427 -21.039   2.804  1.00  0.00     0.040 A 
HETATM   32  C   UNL     1      43.651 -20.235   1.968  1.00  0.00     0.012 A 
BRANCH  29  33
HETATM   33  O   UNL     1      44.354 -19.242   5.960  1.00  0.00    -0.349 OA
BRANCH  33  34
HETATM   34  C   UNL     1      45.277 -18.181   6.219  1.00  0.00     0.171 C 
HETATM   35  C   UNL     1      44.495 -16.996   6.756  1.00  0.00     0.034 C 
ENDBRANCH  33  34
ENDBRANCH  29  33
BRANCH  30  36
HETATM   36  O   UNL     1      45.386 -21.478   4.916  1.00  0.00    -0.358 OA
HETATM   37  H   UNL     1      46.192 -21.671   4.397  1.00  0.00     0.218 HD
ENDBRANCH  30  36
ENDBRANCH  26  27
ENDBRANCH   4  26
TORSDOF 10
ENDMDL
MODEL 8
REMARK VINA RESULT:      -7.9      3.395      8.394
REMARK  10 active torsions:
REMARK  status: ('A' for Active; 'I' for Inactive)
REMARK    1  A    between atoms: C_2  and  C_3 
REMARK    2  A    between atoms: C_3  and  C_4 
REMARK    3  A    between atoms: N_7  and  C_9 
REMARK    4  A    between atoms: C_9  and  C_10 
REMARK    5  A    between atoms: C_12  and  O_13 
REMARK    6  A    between atoms: O_13  and  C_14 
REMARK    7  A    between atoms: C_16  and  O_17 
REMARK    8  A    between atoms: N_25  and  C_26 
REMARK    9  A    between atoms: C_26  and  C_27 
REMARK   10  A    between atoms: C_27  and  C_28 
ROOT
HETATM    1  C   UNL     1      42.007 -12.761   4.074  1.00  0.00     0.026 C 
HETATM    2  C   UNL     1      43.107 -13.801   3.764  1.00  0.00     0.035 C 
HETATM    3  C   UNL     1      42.688 -15.253   3.962  1.00  0.00     0.235 C 
HETATM    4  N   UNL     1      42.139 -15.459   5.352  1.00  0.00    -0.067 N 
HETATM    5  H   UNL     1      42.927 -15.327   5.999  1.00  0.00     0.280 HD
HETATM    6  C   UNL     1      41.055 -14.481   5.730  1.00  0.00     0.235 C 
HETATM    7  C   UNL     1      41.495 -13.044   5.498  1.00  0.00     0.035 C 
ENDROOT
BRANCH   1   8
HETATM    8  C   UNL     1      40.899 -12.596   2.966  1.00  0.00     0.119 A 
HETATM    9  N   UNL     1      39.944 -13.677   2.977  1.00  0.00    -0.324 N 
HETATM   10  C   UNL     1      40.038 -14.468   1.852  1.00  0.00     0.326 A 
HETATM   11  H   UNL     1      39.086 -13.719   3.514  1.00  0.00     0.165 HD
HETATM   12  O   UNL     1      39.366 -15.474   1.710  1.00  0.00    -0.247 OA
HETATM   13  N   UNL     1      41.006 -13.971   1.040  1.00  0.00    -0.268 N 
HETATM   14  C   UNL     1      41.556 -12.843   1.588  1.00  0.00     0.256 A 
HETATM   15  O   UNL     1      42.472 -12.177   1.128  1.00  0.00    -0.270 OA
BRANCH   8  16
HETATM   16  C   UNL     1      40.208 -11.220   3.006  1.00  0.00     0.037 C 
HETATM   17  C   UNL     1      38.768 -11.237   3.516  1.00  0.00     0.008 C 
ENDBRANCH   8  16
BRANCH  13  18
HETATM   18  C   UNL     1      41.524 -14.640  -0.143  1.00  0.00     0.142 C 
BRANCH  18  19
HETATM   19  C   UNL     1      41.299 -13.869  -1.447  1.00  0.00     0.068 C 
BRANCH  19  20
HETATM   20  C   UNL     1      40.083 -14.376  -2.159  1.00  0.00     0.010 A 
HETATM   21  S   UNL     1      40.224 -15.563  -3.395  1.00  0.00    -0.085 SA
HETATM   22  C   UNL     1      38.531 -15.499  -3.632  1.00  0.00     0.166 A 
HETATM   23  N   UNL     1      37.873 -14.667  -2.857  1.00  0.00    -0.258 NA
HETATM   24  C   UNL     1      38.750 -14.027  -1.997  1.00  0.00     0.044 A 
HETATM   25  C   UNL     1      38.191 -13.052  -1.023  1.00  0.00     0.071 C 
ENDBRANCH  19  20
ENDBRANCH  18  19
ENDBRANCH  13  18
ENDBRANCH   1   8
BRANCH   4  26
HETATM   26  C   UNL     1      41.639 -16.882   5.580  1.00  0.00     0.273 C 
BRANCH  26  27
HETATM   27  C   UNL     1      42.649 -17.974   5.360  1.00  0.00    -0.030 A 
HETATM   28  C   UNL     1      43.034 -18.315   4.046  1.00  0.00     0.048 A 
HETATM   29  C   UNL     1      43.966 -19.328   3.817  1.00  0.00     0.102 A 
HETATM   30  C   UNL     1      44.537 -19.974   4.914  1.00  0.00     0.099 A 
HETATM   31  C   UNL     1      44.169 -19.660   6.216  1.00  0.00     0.040 A 
HETATM   32  C   UNL     1      43.213 -18.669   6.442  1.00  0.00     0.012 A 
BRANCH  29  33
HETATM   33  O   UNL     1      44.404 -19.755   2.592  1.00  0.00    -0.349 OA
BRANCH  33  34
HETATM   34  C   UNL     1      43.466 -20.478   1.791  1.00  0.00     0.171 C 
HETATM   35  C   UNL     1      43.974 -21.900   1.637  1.00  0.00     0.034 C 
ENDBRANCH  33  34
ENDBRANCH  29  33
BRANCH  30  36
HETATM   36  O   UNL     1      45.474 -20.953   4.732  1.00  0.00    -0.358 OA
HETATM   37  H   UNL     1      45.800 -21.181   5.626  1.00  0.00     0.218 HD
ENDBRANCH  30  36
ENDBRANCH  26  27
ENDBRANCH   4  26
TORSDOF 10
ENDMDL
MODEL 9
REMARK VINA RESULT:      -7.9      2.366      3.759
REMARK  10 active torsions:
REMARK  status: ('A' for Active; 'I' for Inactive)
REMARK    1  A    between atoms: C_2  and  C_3 
REMARK    2  A    between atoms: C_3  and  C_4 
REMARK    3  A    between atoms: N_7  and  C_9 
REMARK    4  A    between atoms: C_9  and  C_10 
REMARK    5  A    between atoms: C_12  and  O_13 
REMARK    6  A    between atoms: O_13  and  C_14 
REMARK    7  A    between atoms: C_16  and  O_17 
REMARK    8  A    between atoms: N_25  and  C_26 
REMARK    9  A    between atoms: C_26  and  C_27 
REMARK   10  A    between atoms: C_27  and  C_28 
ROOT
HETATM    1  C   UNL     1      43.241 -14.817   4.346  1.00  0.00     0.026 C 
HETATM    2  C   UNL     1      43.284 -13.343   4.807  1.00  0.00     0.035 C 
HETATM    3  C   UNL     1      42.172 -12.464   4.245  1.00  0.00     0.235 C 
HETATM    4  N   UNL     1      42.144 -12.549   2.739  1.00  0.00    -0.067 N 
HETATM    5  H   UNL     1      43.013 -12.112   2.406  1.00  0.00     0.280 HD
HETATM    6  C   UNL     1      42.098 -13.961   2.209  1.00  0.00     0.235 C 
HETATM    7  C   UNL     1      43.204 -14.817   2.807  1.00  0.00     0.035 C 
ENDROOT
BRANCH   1   8
HETATM    8  C   UNL     1      42.163 -15.718   5.059  1.00  0.00     0.119 A 
HETATM    9  N   UNL     1      42.376 -15.811   6.482  1.00  0.00    -0.324 N 
HETATM   10  C   UNL     1      42.754 -17.078   6.872  1.00  0.00     0.326 A 
HETATM   11  H   UNL     1      42.002 -15.191   7.191  1.00  0.00     0.165 HD
HETATM   12  O   UNL     1      43.051 -17.340   8.024  1.00  0.00    -0.247 OA
HETATM   13  N   UNL     1      42.792 -17.885   5.781  1.00  0.00    -0.268 N 
HETATM   14  C   UNL     1      42.425 -17.189   4.660  1.00  0.00     0.256 A 
HETATM   15  O   UNL     1      42.389 -17.613   3.514  1.00  0.00    -0.270 OA
BRANCH   8  16
HETATM   16  C   UNL     1      40.717 -15.307   4.722  1.00  0.00     0.037 C 
HETATM   17  C   UNL     1      39.950 -14.650   5.868  1.00  0.00     0.008 C 
ENDBRANCH   8  16
BRANCH  13  18
HETATM   18  C   UNL     1      43.329 -19.236   5.764  1.00  0.00     0.142 C 
BRANCH  18  19
HETATM   19  C   UNL     1      44.647 -19.376   4.998  1.00  0.00     0.068 C 
BRANCH  19  20
HETATM   20  C   UNL     1      44.547 -20.455   3.963  1.00  0.00     0.010 A 
HETATM   21  S   UNL     1      44.140 -20.072   2.337  1.00  0.00    -0.085 SA
HETATM   22  C   UNL     1      44.208 -21.735   1.941  1.00  0.00     0.166 A 
HETATM   23  N   UNL     1      44.517 -22.547   2.926  1.00  0.00    -0.258 NA
HETATM   24  C   UNL     1      44.728 -21.825   4.089  1.00  0.00     0.044 A 
HETATM   25  C   UNL     1      45.105 -22.569   5.319  1.00  0.00     0.071 C 
ENDBRANCH  19  20
ENDBRANCH  18  19
ENDBRANCH  13  18
ENDBRANCH   1   8
BRANCH   4  26
HETATM   26  C   UNL     1      41.003 -11.742   2.128  1.00  0.00     0.273 C 
BRANCH  26  27
HETATM   27  C   UNL     1      40.115 -12.487   1.169  1.00  0.00    -0.030 A 
HETATM   28  C   UNL     1      40.444 -12.522  -0.203  1.00  0.00     0.048 A 
HETATM   29  C   UNL     1      39.633 -13.202  -1.112  1.00  0.00     0.102 A 
HETATM   30  C   UNL     1      38.509 -13.878  -0.634  1.00  0.00     0.099 A 
HETATM   31  C   UNL     1      38.163 -13.852   0.711  1.00  0.00     0.040 A 
HETATM   32  C   UNL     1      38.957 -13.145   1.614  1.00  0.00     0.012 A 
BRANCH  29  33
HETATM   33  O   UNL     1      39.840 -13.292  -2.462  1.00  0.00    -0.349 OA
BRANCH  33  34
HETATM   34  C   UNL     1      41.146 -13.689  -2.887  1.00  0.00     0.171 C 
HETATM   35  C   UNL     1      41.159 -15.201  -3.024  1.00  0.00     0.034 C 
ENDBRANCH  33  34
ENDBRANCH  29  33
BRANCH  30  36
HETATM   36  O   UNL     1      37.706 -14.578  -1.489  1.00  0.00    -0.358 OA
HETATM   37  H   UNL     1      37.153 -13.912  -1.943  1.00  0.00     0.218 HD
ENDBRANCH  30  36
ENDBRANCH  26  27
ENDBRANCH   4  26
TORSDOF 10
ENDMDL
MODEL 10
REMARK VINA RESULT:      -7.9      3.486      8.859
REMARK  10 active torsions:
REMARK  status: ('A' for Active; 'I' for Inactive)
REMARK    1  A    between atoms: C_2  and  C_3 
REMARK    2  A    between atoms: C_3  and  C_4 
REMARK    3  A    between atoms: N_7  and  C_9 
REMARK    4  A    between atoms: C_9  and  C_10 
REMARK    5  A    between atoms: C_12  and  O_13 
REMARK    6  A    between atoms: O_13  and  C_14 
REMARK    7  A    between atoms: C_16  and  O_17 
REMARK    8  A    between atoms: N_25  and  C_26 
REMARK    9  A    between atoms: C_26  and  C_27 
REMARK   10  A    between atoms: C_27  and  C_28 
ROOT
HETATM    1  C   UNL     1      41.270 -15.001   1.138  1.00  0.00     0.026 C 
HETATM    2  C   UNL     1      40.925 -16.479   1.427  1.00  0.00     0.035 C 
HETATM    3  C   UNL     1      41.150 -16.919   2.869  1.00  0.00     0.235 C 
HETATM    4  N   UNL     1      42.563 -16.611   3.299  1.00  0.00    -0.067 N 
HETATM    5  H   UNL     1      43.176 -17.220   2.743  1.00  0.00     0.280 HD
HETATM    6  C   UNL     1      42.977 -15.181   3.052  1.00  0.00     0.235 C 
HETATM    7  C   UNL     1      42.716 -14.766   1.612  1.00  0.00     0.035 C 
ENDROOT
BRANCH   1   8
HETATM    8  C   UNL     1      40.207 -13.948   1.630  1.00  0.00     0.119 A 
HETATM    9  N   UNL     1      38.896 -14.526   1.799  1.00  0.00    -0.324 N 
HETATM   10  C   UNL     1      37.991 -14.048   0.875  1.00  0.00     0.326 A 
HETATM   11  H   UNL     1      38.529 -14.958   2.639  1.00  0.00     0.165 HD
HETATM   12  O   UNL     1      36.850 -14.470   0.808  1.00  0.00    -0.247 OA
HETATM   13  N   UNL     1      38.609 -13.138   0.079  1.00  0.00    -0.268 N 
HETATM   14  C   UNL     1      39.914 -12.977   0.462  1.00  0.00     0.256 A 
HETATM   15  O   UNL     1      40.750 -12.261  -0.068  1.00  0.00    -0.270 OA
BRANCH   8  16
HETATM   16  C   UNL     1      40.658 -13.177   2.885  1.00  0.00     0.037 C 
HETATM   17  C   UNL     1      39.930 -13.558   4.173  1.00  0.00     0.008 C 
ENDBRANCH   8  16
BRANCH  13  18
HETATM   18  C   UNL     1      38.035 -12.561  -1.125  1.00  0.00     0.142 C 
BRANCH  18  19
HETATM   19  C   UNL     1      38.998 -12.506  -2.314  1.00  0.00     0.068 C 
BRANCH  19  20
HETATM   20  C   UNL     1      39.054 -13.830  -3.013  1.00  0.00     0.010 A 
HETATM   21  S   UNL     1      37.608 -14.632  -3.483  1.00  0.00    -0.085 SA
HETATM   22  C   UNL     1      38.541 -15.929  -4.093  1.00  0.00     0.166 A 
HETATM   23  N   UNL     1      39.843 -15.805  -3.977  1.00  0.00    -0.258 NA
HETATM   24  C   UNL     1      40.152 -14.598  -3.371  1.00  0.00     0.044 A 
HETATM   25  C   UNL     1      41.586 -14.263  -3.164  1.00  0.00     0.071 C 
ENDBRANCH  19  20
ENDBRANCH  18  19
ENDBRANCH  13  18
ENDBRANCH   1   8
BRANCH   4  26
HETATM   26  C   UNL     1      42.822 -16.967   4.760  1.00  0.00     0.273 C 
BRANCH  26  27
HETATM   27  C   UNL     1      43.386 -18.339   5.008  1.00  0.00    -0.030 A 
HETATM   28  C   UNL     1      44.017 -19.035   3.956  1.00  0.00     0.048 A 
HETATM   29  C   UNL     1      44.543 -20.311   4.161  1.00  0.00     0.102 A 
HETATM   30  C   UNL     1      44.466 -20.871   5.437  1.00  0.00     0.099 A 
HETATM   31  C   UNL     1      43.844 -20.207   6.486  1.00  0.00     0.040 A 
HETATM   32  C   UNL     1      43.290 -18.944   6.272  1.00  0.00     0.012 A 
BRANCH  29  33
HETATM   33  O   UNL     1      45.162 -21.087   3.217  1.00  0.00    -0.349 OA
BRANCH  33  34
HETATM   34  C   UNL     1      44.652 -21.005   1.884  1.00  0.00     0.171 C 
HETATM   35  C   UNL     1      43.436 -21.908   1.787  1.00  0.00     0.034 C 
ENDBRANCH  33  34
ENDBRANCH  29  33
BRANCH  30  36
HETATM   36  O   UNL     1      44.995 -22.107   5.685  1.00  0.00    -0.358 OA
HETATM   37  H   UNL     1      45.960 -22.017   5.554  1.00  0.00     0.218 HD
ENDBRANCH  30  36
ENDBRANCH  26  27
ENDBRANCH   4  26
TORSDOF 10
ENDMDL
