MODEL 1
REMARK VINA RESULT:      -9.5      0.000      0.000
REMARK  6 active torsions:
REMARK  status: ('A' for Active; 'I' for Inactive)
REMARK    1  A    between atoms: O_2  and  C_3 
REMARK    2  A    between atoms: C_3  and  C_4 
REMARK    3  A    between atoms: C_7  and  C_8 
REMARK    4  A    between atoms: C_8  and  O_9 
REMARK    5  A    between atoms: O_9  and  C_10 
REMARK    6  A    between atoms: C_11  and  C_12 
ROOT
HETATM    1  C   UNL     1      41.309 -16.977   3.193  1.00  0.00     0.079 A 
HETATM    2  C   UNL     1      42.694 -17.045   2.941  1.00  0.00    -0.002 A 
HETATM    3  C   UNL     1      43.199 -16.653   1.694  1.00  0.00     0.014 A 
HETATM    4  C   UNL     1      42.335 -16.210   0.695  1.00  0.00     0.001 A 
HETATM    5  C   UNL     1      40.963 -16.163   0.934  1.00  0.00     0.003 A 
HETATM    6  C   UNL     1      40.450 -16.549   2.175  1.00  0.00     0.037 A 
ENDROOT
BRANCH   1   7
HETATM    7  O   UNL     1      40.900 -17.362   4.445  1.00  0.00    -0.346 OA
BRANCH   7   8
HETATM    8  C   UNL     1      40.624 -16.349   5.417  1.00  0.00     0.214 C 
BRANCH   8   9
HETATM    9  C   UNL     1      41.858 -15.606   5.886  1.00  0.00    -0.034 A 
HETATM   10  C   UNL     1      42.752 -16.215   6.776  1.00  0.00     0.010 A 
HETATM   11  C   UNL     1      43.872 -15.520   7.239  1.00  0.00     0.018 A 
HETATM   12  C   UNL     1      44.116 -14.207   6.815  1.00  0.00     0.039 A 
HETATM   13  C   UNL     1      43.247 -13.610   5.894  1.00  0.00     0.018 A 
HETATM   14  C   UNL     1      42.133 -14.309   5.426  1.00  0.00     0.010 A 
BRANCH  12  15
HETATM   15  C   UNL     1      45.294 -13.493   7.378  1.00  0.00     0.292 C 
HETATM   16  O   UNL     1      46.291 -13.220   6.727  1.00  0.00    -0.259 OA
BRANCH  15  17
HETATM   17  O   UNL     1      45.110 -13.240   8.697  1.00  0.00    -0.323 OA
HETATM   18  C   UNL     1      45.600 -11.966   9.118  1.00  0.00     0.213 C 
ENDBRANCH  15  17
ENDBRANCH  12  15
ENDBRANCH   8   9
ENDBRANCH   7   8
ENDBRANCH   1   7
BRANCH   2  19
HETATM   19  C   UNL     1      43.637 -17.506   3.964  1.00  0.00     0.032 C 
HETATM   20  C   UNL     1      44.167 -18.736   4.031  1.00  0.00     0.045 A 
HETATM   21  C   UNL     1      45.101 -19.096   5.156  1.00  0.00     0.257 A 
HETATM   22  C   UNL     1      44.024 -19.925   3.188  1.00  0.00     0.006 A 
HETATM   23  O   UNL     1      45.483 -18.382   6.065  1.00  0.00    -0.267 OA
HETATM   24  N   UNL     1      45.438 -20.420   4.932  1.00  0.00    -0.322 N 
HETATM   25  C   UNL     1      44.816 -20.914   3.787  1.00  0.00     0.046 A 
HETATM   26  H   UNL     1      46.058 -20.936   5.536  1.00  0.00     0.169 HD
HETATM   27  C   UNL     1      44.934 -22.188   3.272  1.00  0.00     0.030 A 
HETATM   28  C   UNL     1      44.226 -22.477   2.104  1.00  0.00     0.002 A 
HETATM   29  C   UNL     1      43.427 -21.495   1.488  1.00  0.00     0.001 A 
HETATM   30  C   UNL     1      43.322 -20.208   2.030  1.00  0.00     0.015 A 
ENDBRANCH   2  19
TORSDOF 6
ENDMDL
MODEL 2
REMARK VINA RESULT:      -9.2      2.464      6.548
REMARK  6 active torsions:
REMARK  status: ('A' for Active; 'I' for Inactive)
REMARK    1  A    between atoms: O_2  and  C_3 
REMARK    2  A    between atoms: C_3  and  C_4 
REMARK    3  A    between atoms: C_7  and  C_8 
REMARK    4  A    between atoms: C_8  and  O_9 
REMARK    5  A    between atoms: O_9  and  C_10 
REMARK    6  A    between atoms: C_11  and  C_12 
ROOT
HETATM    1  C   UNL     1      44.403 -18.856   5.621  1.00  0.00     0.079 A 
HETATM    2  C   UNL     1      44.453 -18.081   6.796  1.00  0.00    -0.002 A 
HETATM    3  C   UNL     1      44.165 -18.669   8.035  1.00  0.00     0.014 A 
HETATM    4  C   UNL     1      43.814 -20.015   8.109  1.00  0.00     0.001 A 
HETATM    5  C   UNL     1      43.743 -20.778   6.946  1.00  0.00     0.003 A 
HETATM    6  C   UNL     1      44.031 -20.202   5.705  1.00  0.00     0.037 A 
ENDROOT
BRANCH   1   7
HETATM    7  O   UNL     1      44.718 -18.209   4.452  1.00  0.00    -0.346 OA
BRANCH   7   8
HETATM    8  C   UNL     1      43.982 -18.533   3.269  1.00  0.00     0.214 C 
BRANCH   8   9
HETATM    9  C   UNL     1      43.057 -17.426   2.808  1.00  0.00    -0.034 A 
HETATM   10  C   UNL     1      43.506 -16.099   2.775  1.00  0.00     0.010 A 
HETATM   11  C   UNL     1      42.645 -15.071   2.386  1.00  0.00     0.018 A 
HETATM   12  C   UNL     1      41.322 -15.355   2.020  1.00  0.00     0.039 A 
HETATM   13  C   UNL     1      40.881 -16.683   2.013  1.00  0.00     0.018 A 
HETATM   14  C   UNL     1      41.746 -17.711   2.395  1.00  0.00     0.010 A 
BRANCH  12  15
HETATM   15  C   UNL     1      40.431 -14.218   1.663  1.00  0.00     0.292 C 
HETATM   16  O   UNL     1      40.543 -13.099   2.139  1.00  0.00    -0.259 OA
BRANCH  15  17
HETATM   17  O   UNL     1      39.477 -14.619   0.787  1.00  0.00    -0.323 OA
HETATM   18  C   UNL     1      38.158 -14.189   1.128  1.00  0.00     0.213 C 
ENDBRANCH  15  17
ENDBRANCH  12  15
ENDBRANCH   8   9
ENDBRANCH   7   8
ENDBRANCH   1   7
BRANCH   2  19
HETATM   19  C   UNL     1      44.817 -16.662   6.763  1.00  0.00     0.032 C 
HETATM   20  C   UNL     1      43.981 -15.653   6.473  1.00  0.00     0.045 A 
HETATM   21  C   UNL     1      44.490 -14.237   6.439  1.00  0.00     0.257 A 
HETATM   22  C   UNL     1      42.556 -15.612   6.140  1.00  0.00     0.006 A 
HETATM   23  O   UNL     1      45.619 -13.845   6.666  1.00  0.00    -0.267 OA
HETATM   24  N   UNL     1      43.388 -13.470   6.096  1.00  0.00    -0.322 N 
HETATM   25  C   UNL     1      42.256 -14.262   5.919  1.00  0.00     0.046 A 
HETATM   26  H   UNL     1      43.431 -12.469   5.995  1.00  0.00     0.169 HD
HETATM   27  C   UNL     1      40.992 -13.824   5.579  1.00  0.00     0.030 A 
HETATM   28  C   UNL     1      39.990 -14.789   5.458  1.00  0.00     0.002 A 
HETATM   29  C   UNL     1      40.273 -16.150   5.679  1.00  0.00     0.001 A 
HETATM   30  C   UNL     1      41.564 -16.570   6.022  1.00  0.00     0.015 A 
ENDBRANCH   2  19
TORSDOF 6
ENDMDL
MODEL 3
REMARK VINA RESULT:      -9.0      2.447      5.917
REMARK  6 active torsions:
REMARK  status: ('A' for Active; 'I' for Inactive)
REMARK    1  A    between atoms: O_2  and  C_3 
REMARK    2  A    between atoms: C_3  and  C_4 
REMARK    3  A    between atoms: C_7  and  C_8 
REMARK    4  A    between atoms: C_8  and  O_9 
REMARK    5  A    between atoms: O_9  and  C_10 
REMARK    6  A    between atoms: C_11  and  C_12 
ROOT
HETATM    1  C   UNL     1      41.246 -12.986   3.573  1.00  0.00     0.079 A 
HETATM    2  C   UNL     1      41.419 -12.873   4.966  1.00  0.00    -0.002 A 
HETATM    3  C   UNL     1      40.351 -12.457   5.772  1.00  0.00     0.014 A 
HETATM    4  C   UNL     1      39.121 -12.141   5.200  1.00  0.00     0.001 A 
HETATM    5  C   UNL     1      38.954 -12.231   3.820  1.00  0.00     0.003 A 
HETATM    6  C   UNL     1      40.013 -12.647   3.008  1.00  0.00     0.037 A 
ENDROOT
BRANCH   1   7
HETATM    7  O   UNL     1      42.337 -13.418   2.859  1.00  0.00    -0.346 OA
BRANCH   7   8
HETATM    8  C   UNL     1      42.119 -14.187   1.673  1.00  0.00     0.214 C 
BRANCH   8   9
HETATM    9  C   UNL     1      42.459 -15.655   1.832  1.00  0.00    -0.034 A 
HETATM   10  C   UNL     1      43.683 -16.039   2.395  1.00  0.00     0.010 A 
HETATM   11  C   UNL     1      44.016 -17.390   2.509  1.00  0.00     0.018 A 
HETATM   12  C   UNL     1      43.126 -18.378   2.066  1.00  0.00     0.039 A 
HETATM   13  C   UNL     1      41.886 -18.001   1.540  1.00  0.00     0.018 A 
HETATM   14  C   UNL     1      41.552 -16.649   1.434  1.00  0.00     0.010 A 
BRANCH  12  15
HETATM   15  C   UNL     1      43.550 -19.801   2.163  1.00  0.00     0.292 C 
HETATM   16  O   UNL     1      42.874 -20.736   1.762  1.00  0.00    -0.259 OA
BRANCH  15  17
HETATM   17  O   UNL     1      44.750 -19.898   2.789  1.00  0.00    -0.323 OA
HETATM   18  C   UNL     1      44.726 -20.701   3.969  1.00  0.00     0.213 C 
ENDBRANCH  15  17
ENDBRANCH  12  15
ENDBRANCH   8   9
ENDBRANCH   7   8
ENDBRANCH   1   7
BRANCH   2  19
HETATM   19  C   UNL     1      42.696 -13.196   5.610  1.00  0.00     0.032 C 
HETATM   20  C   UNL     1      43.124 -14.431   5.908  1.00  0.00     0.045 A 
HETATM   21  C   UNL     1      44.445 -14.626   6.604  1.00  0.00     0.257 A 
HETATM   22  C   UNL     1      42.540 -15.759   5.703  1.00  0.00     0.006 A 
HETATM   23  O   UNL     1      45.240 -13.771   6.944  1.00  0.00    -0.267 OA
HETATM   24  N   UNL     1      44.561 -15.996   6.772  1.00  0.00    -0.322 N 
HETATM   25  C   UNL     1      43.457 -16.666   6.250  1.00  0.00     0.046 A 
HETATM   26  H   UNL     1      45.356 -16.426   7.217  1.00  0.00     0.169 HD
HETATM   27  C   UNL     1      43.250 -18.030   6.244  1.00  0.00     0.030 A 
HETATM   28  C   UNL     1      42.071 -18.498   5.661  1.00  0.00     0.002 A 
HETATM   29  C   UNL     1      41.140 -17.601   5.105  1.00  0.00     0.001 A 
HETATM   30  C   UNL     1      41.372 -16.220   5.124  1.00  0.00     0.015 A 
ENDBRANCH   2  19
TORSDOF 6
ENDMDL
MODEL 4
REMARK VINA RESULT:      -8.8      3.248      6.194
REMARK  6 active torsions:
REMARK  status: ('A' for Active; 'I' for Inactive)
REMARK    1  A    between atoms: O_2  and  C_3 
REMARK    2  A    between atoms: C_3  and  C_4 
REMARK    3  A    between atoms: C_7  and  C_8 
REMARK    4  A    between atoms: C_8  and  O_9 
REMARK    5  A    between atoms: O_9  and  C_10 
REMARK    6  A    between atoms: C_11  and  C_12 
ROOT
HETATM    1  C   UNL     1      42.610 -18.775   2.719  1.00  0.00     0.079 A 
HETATM    2  C   UNL     1      42.834 -18.776   4.109  1.00  0.00    -0.002 A 
HETATM    3  C   UNL     1      44.023 -19.307   4.627  1.00  0.00     0.014 A 
HETATM    4  C   UNL     1      44.981 -19.848   3.771  1.00  0.00     0.001 A 
HETATM    5  C   UNL     1      44.752 -19.869   2.397  1.00  0.00     0.003 A 
HETATM    6  C   UNL     1      43.570 -19.339   1.872  1.00  0.00     0.037 A 
ENDROOT
BRANCH   1   7
HETATM    7  O   UNL     1      41.429 -18.220   2.294  1.00  0.00    -0.346 OA
BRANCH   7   8
HETATM    8  C   UNL     1      41.426 -17.455   1.085  1.00  0.00     0.214 C 
BRANCH   8   9
HETATM    9  C   UNL     1      40.896 -16.047   1.260  1.00  0.00    -0.034 A 
HETATM   10  C   UNL     1      41.456 -14.988   0.535  1.00  0.00     0.010 A 
HETATM   11  C   UNL     1      40.995 -13.682   0.720  1.00  0.00     0.018 A 
HETATM   12  C   UNL     1      39.963 -13.418   1.631  1.00  0.00     0.039 A 
HETATM   13  C   UNL     1      39.373 -14.479   2.327  1.00  0.00     0.018 A 
HETATM   14  C   UNL     1      39.830 -15.784   2.134  1.00  0.00     0.010 A 
BRANCH  12  15
HETATM   15  C   UNL     1      39.543 -12.005   1.829  1.00  0.00     0.292 C 
HETATM   16  O   UNL     1      40.166 -11.049   1.392  1.00  0.00    -0.259 OA
BRANCH  15  17
HETATM   17  O   UNL     1      38.419 -11.944   2.584  1.00  0.00    -0.323 OA
HETATM   18  C   UNL     1      38.580 -11.227   3.809  1.00  0.00     0.213 C 
ENDBRANCH  15  17
ENDBRANCH  12  15
ENDBRANCH   8   9
ENDBRANCH   7   8
ENDBRANCH   1   7
BRANCH   2  19
HETATM   19  C   UNL     1      41.853 -18.217   5.045  1.00  0.00     0.032 C 
HETATM   20  C   UNL     1      41.648 -16.910   5.263  1.00  0.00     0.045 A 
HETATM   21  C   UNL     1      40.631 -16.465   6.281  1.00  0.00     0.257 A 
HETATM   22  C   UNL     1      42.251 -15.703   4.694  1.00  0.00     0.006 A 
HETATM   23  O   UNL     1      39.910 -17.163   6.968  1.00  0.00    -0.267 OA
HETATM   24  N   UNL     1      40.691 -15.081   6.263  1.00  0.00    -0.322 N 
HETATM   25  C   UNL     1      41.631 -14.627   5.342  1.00  0.00     0.046 A 
HETATM   26  H   UNL     1      40.114 -14.503   6.853  1.00  0.00     0.169 HD
HETATM   27  C   UNL     1      41.942 -13.311   5.066  1.00  0.00     0.030 A 
HETATM   28  C   UNL     1      42.917 -13.071   4.096  1.00  0.00     0.002 A 
HETATM   29  C   UNL     1      43.548 -14.141   3.433  1.00  0.00     0.001 A 
HETATM   30  C   UNL     1      43.216 -15.468   3.731  1.00  0.00     0.015 A 
ENDBRANCH   2  19
TORSDOF 6
ENDMDL
MODEL 5
REMARK VINA RESULT:      -8.7      2.910      6.156
REMARK  6 active torsions:
REMARK  status: ('A' for Active; 'I' for Inactive)
REMARK    1  A    between atoms: O_2  and  C_3 
REMARK    2  A    between atoms: C_3  and  C_4 
REMARK    3  A    between atoms: C_7  and  C_8 
REMARK    4  A    between atoms: C_8  and  O_9 
REMARK    5  A    between atoms: O_9  and  C_10 
REMARK    6  A    between atoms: C_11  and  C_12 
ROOT
HETATM    1  C   UNL     1      39.911 -14.458   1.151  1.00  0.00     0.079 A 
HETATM    2  C   UNL     1      39.847 -13.173   1.725  1.00  0.00    -0.002 A 
HETATM    3  C   UNL     1      40.140 -12.044   0.949  1.00  0.00     0.014 A 
HETATM    4  C   UNL     1      40.509 -12.187  -0.387  1.00  0.00     0.001 A 
HETATM    5  C   UNL     1      40.594 -13.458  -0.951  1.00  0.00     0.003 A 
HETATM    6  C   UNL     1      40.301 -14.590  -0.185  1.00  0.00     0.037 A 
ENDROOT
BRANCH   1   7
HETATM    7  O   UNL     1      39.591 -15.508   1.976  1.00  0.00    -0.346 OA
BRANCH   7   8
HETATM    8  C   UNL     1      40.247 -16.763   1.774  1.00  0.00     0.214 C 
BRANCH   8   9
HETATM    9  C   UNL     1      41.333 -17.049   2.789  1.00  0.00    -0.034 A 
HETATM   10  C   UNL     1      42.638 -17.335   2.366  1.00  0.00     0.010 A 
HETATM   11  C   UNL     1      43.634 -17.635   3.297  1.00  0.00     0.018 A 
HETATM   12  C   UNL     1      43.341 -17.649   4.668  1.00  0.00     0.039 A 
HETATM   13  C   UNL     1      42.050 -17.325   5.098  1.00  0.00     0.018 A 
HETATM   14  C   UNL     1      41.057 -17.017   4.165  1.00  0.00     0.010 A 
BRANCH  12  15
HETATM   15  C   UNL     1      44.425 -18.026   5.615  1.00  0.00     0.292 C 
HETATM   16  O   UNL     1      44.730 -17.357   6.590  1.00  0.00    -0.259 OA
BRANCH  15  17
HETATM   17  O   UNL     1      45.031 -19.170   5.212  1.00  0.00    -0.323 OA
HETATM   18  C   UNL     1      44.400 -20.360   5.689  1.00  0.00     0.213 C 
ENDBRANCH  15  17
ENDBRANCH  12  15
ENDBRANCH   8   9
ENDBRANCH   7   8
ENDBRANCH   1   7
BRANCH   2  19
HETATM   19  C   UNL     1      39.464 -12.977   3.127  1.00  0.00     0.032 C 
HETATM   20  C   UNL     1      40.282 -13.115   4.181  1.00  0.00     0.045 A 
HETATM   21  C   UNL     1      39.754 -12.919   5.577  1.00  0.00     0.257 A 
HETATM   22  C   UNL     1      41.702 -13.454   4.296  1.00  0.00     0.006 A 
HETATM   23  O   UNL     1      38.623 -12.620   5.911  1.00  0.00    -0.267 OA
HETATM   24  N   UNL     1      40.840 -13.151   6.405  1.00  0.00    -0.322 N 
HETATM   25  C   UNL     1      41.980 -13.463   5.669  1.00  0.00     0.046 A 
HETATM   26  H   UNL     1      40.783 -13.092   7.409  1.00  0.00     0.169 HD
HETATM   27  C   UNL     1      43.233 -13.745   6.174  1.00  0.00     0.030 A 
HETATM   28  C   UNL     1      44.246 -14.029   5.256  1.00  0.00     0.002 A 
HETATM   29  C   UNL     1      43.985 -14.022   3.873  1.00  0.00     0.001 A 
HETATM   30  C   UNL     1      42.705 -13.733   3.384  1.00  0.00     0.015 A 
ENDBRANCH   2  19
TORSDOF 6
ENDMDL
MODEL 6
REMARK VINA RESULT:      -8.5      3.220      6.746
REMARK  6 active torsions:
REMARK  status: ('A' for Active; 'I' for Inactive)
REMARK    1  A    between atoms: O_2  and  C_3 
REMARK    2  A    between atoms: C_3  and  C_4 
REMARK    3  A    between atoms: C_7  and  C_8 
REMARK    4  A    between atoms: C_8  and  O_9 
REMARK    5  A    between atoms: O_9  and  C_10 
REMARK    6  A    between atoms: C_11  and  C_12 
ROOT
HETATM    1  C   UNL     1      41.251 -14.790   4.156  1.00  0.00     0.079 A 
HETATM    2  C   UNL     1      42.622 -15.030   3.940  1.00  0.00    -0.002 A 
HETATM    3  C   UNL     1      43.579 -14.390   4.739  1.00  0.00     0.014 A 
HETATM    4  C   UNL     1      43.181 -13.505   5.738  1.00  0.00     0.001 A 
HETATM    5  C   UNL     1      41.826 -13.249   5.939  1.00  0.00     0.003 A 
HETATM    6  C   UNL     1      40.864 -13.884   5.149  1.00  0.00     0.037 A 
ENDROOT
BRANCH   1   7
HETATM    7  O   UNL     1      40.380 -15.471   3.342  1.00  0.00    -0.346 OA
BRANCH   7   8
HETATM    8  C   UNL     1      39.496 -14.721   2.504  1.00  0.00     0.214 C 
BRANCH   8   9
HETATM    9  C   UNL     1      39.858 -14.779   1.035  1.00  0.00    -0.034 A 
HETATM   10  C   UNL     1      39.181 -13.974   0.109  1.00  0.00     0.010 A 
HETATM   11  C   UNL     1      39.486 -14.051  -1.251  1.00  0.00     0.018 A 
HETATM   12  C   UNL     1      40.477 -14.931  -1.706  1.00  0.00     0.039 A 
HETATM   13  C   UNL     1      41.184 -15.707  -0.781  1.00  0.00     0.018 A 
HETATM   14  C   UNL     1      40.883 -15.623   0.580  1.00  0.00     0.010 A 
BRANCH  12  15
HETATM   15  C   UNL     1      40.729 -15.012  -3.170  1.00  0.00     0.292 C 
HETATM   16  O   UNL     1      41.263 -14.121  -3.813  1.00  0.00    -0.259 OA
BRANCH  15  17
HETATM   17  O   UNL     1      40.246 -16.176  -3.672  1.00  0.00    -0.323 OA
HETATM   18  C   UNL     1      38.938 -16.067  -4.236  1.00  0.00     0.213 C 
ENDBRANCH  15  17
ENDBRANCH  12  15
ENDBRANCH   8   9
ENDBRANCH   7   8
ENDBRANCH   1   7
BRANCH   2  19
HETATM   19  C   UNL     1      43.085 -15.953   2.900  1.00  0.00     0.032 C 
HETATM   20  C   UNL     1      43.505 -17.210   3.109  1.00  0.00     0.045 A 
HETATM   21  C   UNL     1      43.990 -18.046   1.955  1.00  0.00     0.257 A 
HETATM   22  C   UNL     1      43.620 -18.028   4.318  1.00  0.00     0.006 A 
HETATM   23  O   UNL     1      44.047 -17.734   0.780  1.00  0.00    -0.267 OA
HETATM   24  N   UNL     1      44.357 -19.256   2.520  1.00  0.00    -0.322 N 
HETATM   25  C   UNL     1      44.146 -19.256   3.897  1.00  0.00     0.046 A 
HETATM   26  H   UNL     1      44.726 -20.021   1.979  1.00  0.00     0.169 HD
HETATM   27  C   UNL     1      44.397 -20.297   4.767  1.00  0.00     0.030 A 
HETATM   28  C   UNL     1      44.106 -20.091   6.117  1.00  0.00     0.002 A 
HETATM   29  C   UNL     1      43.576 -18.863   6.557  1.00  0.00     0.001 A 
HETATM   30  C   UNL     1      43.330 -17.821   5.655  1.00  0.00     0.015 A 
ENDBRANCH   2  19
TORSDOF 6
ENDMDL
MODEL 7
REMARK VINA RESULT:      -8.5      3.058      6.965
REMARK  6 active torsions:
REMARK  status: ('A' for Active; 'I' for Inactive)
REMARK    1  A    between atoms: O_2  and  C_3 
REMARK    2  A    between atoms: C_3  and  C_4 
REMARK    3  A    between atoms: C_7  and  C_8 
REMARK    4  A    between atoms: C_8  and  O_9 
REMARK    5  A    between atoms: O_9  and  C_10 
REMARK    6  A    between atoms: C_11  and  C_12 
ROOT
HETATM    1  C   UNL     1      40.730 -14.870   0.703  1.00  0.00     0.079 A 
HETATM    2  C   UNL     1      39.728 -14.914   1.691  1.00  0.00    -0.002 A 
HETATM    3  C   UNL     1      38.425 -14.498   1.386  1.00  0.00     0.014 A 
HETATM    4  C   UNL     1      38.119 -14.025   0.112  1.00  0.00     0.001 A 
HETATM    5  C   UNL     1      39.114 -13.960  -0.861  1.00  0.00     0.003 A 
HETATM    6  C   UNL     1      40.416 -14.376  -0.567  1.00  0.00     0.037 A 
ENDROOT
BRANCH   1   7
HETATM    7  O   UNL     1      41.974 -15.313   1.079  1.00  0.00    -0.346 OA
BRANCH   7   8
HETATM    8  C   UNL     1      42.412 -16.595   0.620  1.00  0.00     0.214 C 
BRANCH   8   9
HETATM    9  C   UNL     1      42.983 -17.469   1.717  1.00  0.00    -0.034 A 
HETATM   10  C   UNL     1      43.334 -18.798   1.449  1.00  0.00     0.010 A 
HETATM   11  C   UNL     1      43.826 -19.619   2.467  1.00  0.00     0.018 A 
HETATM   12  C   UNL     1      43.979 -19.119   3.768  1.00  0.00     0.039 A 
HETATM   13  C   UNL     1      43.667 -17.780   4.031  1.00  0.00     0.018 A 
HETATM   14  C   UNL     1      43.183 -16.960   3.010  1.00  0.00     0.010 A 
BRANCH  12  15
HETATM   15  C   UNL     1      44.458 -20.048   4.826  1.00  0.00     0.292 C 
HETATM   16  O   UNL     1      44.336 -19.829   6.022  1.00  0.00    -0.259 OA
BRANCH  15  17
HETATM   17  O   UNL     1      45.073 -21.123   4.272  1.00  0.00    -0.323 OA
HETATM   18  C   UNL     1      45.096 -22.276   5.114  1.00  0.00     0.213 C 
ENDBRANCH  15  17
ENDBRANCH  12  15
ENDBRANCH   8   9
ENDBRANCH   7   8
ENDBRANCH   1   7
BRANCH   2  19
HETATM   19  C   UNL     1      40.006 -15.403   3.045  1.00  0.00     0.032 C 
HETATM   20  C   UNL     1      40.390 -14.642   4.080  1.00  0.00     0.045 A 
HETATM   21  C   UNL     1      40.680 -15.275   5.416  1.00  0.00     0.257 A 
HETATM   22  C   UNL     1      40.625 -13.204   4.220  1.00  0.00     0.006 A 
HETATM   23  O   UNL     1      40.597 -16.450   5.717  1.00  0.00    -0.267 OA
HETATM   24  N   UNL     1      41.061 -14.223   6.233  1.00  0.00    -0.322 N 
HETATM   25  C   UNL     1      41.032 -13.012   5.547  1.00  0.00     0.046 A 
HETATM   26  H   UNL     1      41.319 -14.349   7.199  1.00  0.00     0.169 HD
HETATM   27  C   UNL     1      41.346 -11.769   6.058  1.00  0.00     0.030 A 
HETATM   28  C   UNL     1      41.245 -10.676   5.196  1.00  0.00     0.002 A 
HETATM   29  C   UNL     1      40.836 -10.850   3.861  1.00  0.00     0.001 A 
HETATM   30  C   UNL     1      40.523 -12.121   3.364  1.00  0.00     0.015 A 
ENDBRANCH   2  19
TORSDOF 6
ENDMDL
MODEL 8
REMARK VINA RESULT:      -8.3      2.790      5.487
REMARK  6 active torsions:
REMARK  status: ('A' for Active; 'I' for Inactive)
REMARK    1  A    between atoms: O_2  and  C_3 
REMARK    2  A    between atoms: C_3  and  C_4 
REMARK    3  A    between atoms: C_7  and  C_8 
REMARK    4  A    between atoms: C_8  and  O_9 
REMARK    5  A    between atoms: O_9  and  C_10 
REMARK    6  A    between atoms: C_11  and  C_12 
ROOT
HETATM    1  C   UNL     1      42.376 -17.159   6.082  1.00  0.00     0.079 A 
HETATM    2  C   UNL     1      43.536 -17.504   5.361  1.00  0.00    -0.002 A 
HETATM    3  C   UNL     1      44.732 -17.765   6.043  1.00  0.00     0.014 A 
HETATM    4  C   UNL     1      44.783 -17.671   7.432  1.00  0.00     0.001 A 
HETATM    5  C   UNL     1      43.643 -17.308   8.145  1.00  0.00     0.003 A 
HETATM    6  C   UNL     1      42.445 -17.048   7.474  1.00  0.00     0.037 A 
ENDROOT
BRANCH   1   7
HETATM    7  O   UNL     1      41.243 -16.938   5.339  1.00  0.00    -0.346 OA
BRANCH   7   8
HETATM    8  C   UNL     1      40.865 -15.589   5.051  1.00  0.00     0.214 C 
BRANCH   8   9
HETATM    9  C   UNL     1      40.994 -15.223   3.587  1.00  0.00    -0.034 A 
HETATM   10  C   UNL     1      40.129 -15.787   2.640  1.00  0.00     0.010 A 
HETATM   11  C   UNL     1      40.268 -15.480   1.284  1.00  0.00     0.018 A 
HETATM   12  C   UNL     1      41.272 -14.601   0.857  1.00  0.00     0.039 A 
HETATM   13  C   UNL     1      42.112 -14.004   1.803  1.00  0.00     0.018 A 
HETATM   14  C   UNL     1      41.966 -14.306   3.159  1.00  0.00     0.010 A 
BRANCH  12  15
HETATM   15  C   UNL     1      41.410 -14.348  -0.603  1.00  0.00     0.292 C 
HETATM   16  O   UNL     1      42.140 -13.489  -1.073  1.00  0.00    -0.259 OA
BRANCH  15  17
HETATM   17  O   UNL     1      40.589 -15.167  -1.307  1.00  0.00    -0.323 OA
HETATM   18  C   UNL     1      41.067 -15.483  -2.615  1.00  0.00     0.213 C 
ENDBRANCH  15  17
ENDBRANCH  12  15
ENDBRANCH   8   9
ENDBRANCH   7   8
ENDBRANCH   1   7
BRANCH   2  19
HETATM   19  C   UNL     1      43.527 -17.614   3.899  1.00  0.00     0.032 C 
HETATM   20  C   UNL     1      43.785 -18.731   3.204  1.00  0.00     0.045 A 
HETATM   21  C   UNL     1      43.777 -18.703   1.699  1.00  0.00     0.257 A 
HETATM   22  C   UNL     1      44.113 -20.099   3.613  1.00  0.00     0.006 A 
HETATM   23  O   UNL     1      43.542 -17.756   0.973  1.00  0.00    -0.267 OA
HETATM   24  N   UNL     1      44.096 -19.996   1.316  1.00  0.00    -0.322 N 
HETATM   25  C   UNL     1      44.293 -20.818   2.424  1.00  0.00     0.046 A 
HETATM   26  H   UNL     1      44.167 -20.278   0.352  1.00  0.00     0.169 HD
HETATM   27  C   UNL     1      44.617 -22.159   2.404  1.00  0.00     0.030 A 
HETATM   28  C   UNL     1      44.765 -22.801   3.635  1.00  0.00     0.002 A 
HETATM   29  C   UNL     1      44.586 -22.095   4.839  1.00  0.00     0.001 A 
HETATM   30  C   UNL     1      44.258 -20.734   4.833  1.00  0.00     0.015 A 
ENDBRANCH   2  19
TORSDOF 6
ENDMDL
MODEL 9
REMARK VINA RESULT:      -8.3      2.256      5.654
REMARK  6 active torsions:
REMARK  status: ('A' for Active; 'I' for Inactive)
REMARK    1  A    between atoms: O_2  and  C_3 
REMARK    2  A    between atoms: C_3  and  C_4 
REMARK    3  A    between atoms: C_7  and  C_8 
REMARK    4  A    between atoms: C_8  and  O_9 
REMARK    5  A    between atoms: O_9  and  C_10 
REMARK    6  A    between atoms: C_11  and  C_12 
ROOT
HETATM    1  C   UNL     1      42.544 -15.285   6.197  1.00  0.00     0.079 A 
HETATM    2  C   UNL     1      43.738 -15.977   6.478  1.00  0.00    -0.002 A 
HETATM    3  C   UNL     1      44.886 -15.268   6.858  1.00  0.00     0.014 A 
HETATM    4  C   UNL     1      44.855 -13.878   6.944  1.00  0.00     0.001 A 
HETATM    5  C   UNL     1      43.682 -13.189   6.645  1.00  0.00     0.003 A 
HETATM    6  C   UNL     1      42.531 -13.888   6.268  1.00  0.00     0.037 A 
ENDROOT
BRANCH   1   7
HETATM    7  O   UNL     1      41.463 -16.056   5.851  1.00  0.00    -0.346 OA
BRANCH   7   8
HETATM    8  C   UNL     1      40.353 -15.429   5.201  1.00  0.00     0.214 C 
BRANCH   8   9
HETATM    9  C   UNL     1      40.496 -15.353   3.696  1.00  0.00    -0.034 A 
HETATM   10  C   UNL     1      40.857 -14.147   3.081  1.00  0.00     0.010 A 
HETATM   11  C   UNL     1      40.954 -14.063   1.690  1.00  0.00     0.018 A 
HETATM   12  C   UNL     1      40.696 -15.186   0.894  1.00  0.00     0.039 A 
HETATM   13  C   UNL     1      40.375 -16.403   1.505  1.00  0.00     0.018 A 
HETATM   14  C   UNL     1      40.286 -16.487   2.896  1.00  0.00     0.010 A 
BRANCH  12  15
HETATM   15  C   UNL     1      40.764 -15.031  -0.585  1.00  0.00     0.292 C 
HETATM   16  O   UNL     1      41.201 -15.891  -1.334  1.00  0.00    -0.259 OA
BRANCH  15  17
HETATM   17  O   UNL     1      40.318 -13.804  -0.954  1.00  0.00    -0.323 OA
HETATM   18  C   UNL     1      39.039 -13.819  -1.591  1.00  0.00     0.213 C 
ENDBRANCH  15  17
ENDBRANCH  12  15
ENDBRANCH   8   9
ENDBRANCH   7   8
ENDBRANCH   1   7
BRANCH   2  19
HETATM   19  C   UNL     1      43.814 -17.439   6.400  1.00  0.00     0.032 C 
HETATM   20  C   UNL     1      43.860 -18.153   5.266  1.00  0.00     0.045 A 
HETATM   21  C   UNL     1      43.901 -19.657   5.321  1.00  0.00     0.257 A 
HETATM   22  C   UNL     1      43.868 -17.769   3.852  1.00  0.00     0.006 A 
HETATM   23  O   UNL     1      43.916 -20.366   6.309  1.00  0.00    -0.267 OA
HETATM   24  N   UNL     1      43.923 -20.062   3.997  1.00  0.00    -0.322 N 
HETATM   25  C   UNL     1      43.904 -18.970   3.132  1.00  0.00     0.046 A 
HETATM   26  H   UNL     1      43.950 -21.032   3.723  1.00  0.00     0.169 HD
HETATM   27  C   UNL     1      43.922 -19.013   1.753  1.00  0.00     0.030 A 
HETATM   28  C   UNL     1      43.904 -17.794   1.073  1.00  0.00     0.002 A 
HETATM   29  C   UNL     1      43.870 -16.578   1.780  1.00  0.00     0.001 A 
HETATM   30  C   UNL     1      43.852 -16.560   3.180  1.00  0.00     0.015 A 
ENDBRANCH   2  19
TORSDOF 6
ENDMDL
MODEL 10
REMARK VINA RESULT:      -8.2      3.640      6.847
REMARK  6 active torsions:
REMARK  status: ('A' for Active; 'I' for Inactive)
REMARK    1  A    between atoms: O_2  and  C_3 
REMARK    2  A    between atoms: C_3  and  C_4 
REMARK    3  A    between atoms: C_7  and  C_8 
REMARK    4  A    between atoms: C_8  and  O_9 
REMARK    5  A    between atoms: O_9  and  C_10 
REMARK    6  A    between atoms: C_11  and  C_12 
ROOT
HETATM    1  C   UNL     1      41.311 -12.921  -0.435  1.00  0.00     0.079 A 
HETATM    2  C   UNL     1      41.222 -11.793   0.404  1.00  0.00    -0.002 A 
HETATM    3  C   UNL     1      42.008 -10.663   0.142  1.00  0.00     0.014 A 
HETATM    4  C   UNL     1      42.888 -10.655  -0.938  1.00  0.00     0.001 A 
HETATM    5  C   UNL     1      42.994 -11.777  -1.756  1.00  0.00     0.003 A 
HETATM    6  C   UNL     1      42.212 -12.909  -1.504  1.00  0.00     0.037 A 
ENDROOT
BRANCH   1   7
HETATM    7  O   UNL     1      40.494 -13.978  -0.119  1.00  0.00    -0.346 OA
BRANCH   7   8
HETATM    8  C   UNL     1      40.947 -15.304  -0.404  1.00  0.00     0.214 C 
BRANCH   8   9
HETATM    9  C   UNL     1      41.355 -16.083   0.829  1.00  0.00    -0.034 A 
HETATM   10  C   UNL     1      40.497 -16.154   1.935  1.00  0.00     0.010 A 
HETATM   11  C   UNL     1      40.884 -16.840   3.088  1.00  0.00     0.018 A 
HETATM   12  C   UNL     1      42.135 -17.470   3.150  1.00  0.00     0.039 A 
HETATM   13  C   UNL     1      42.978 -17.436   2.034  1.00  0.00     0.018 A 
HETATM   14  C   UNL     1      42.585 -16.756   0.880  1.00  0.00     0.010 A 
BRANCH  12  15
HETATM   15  C   UNL     1      42.520 -18.144   4.420  1.00  0.00     0.292 C 
HETATM   16  O   UNL     1      43.459 -18.920   4.514  1.00  0.00    -0.259 OA
BRANCH  15  17
HETATM   17  O   UNL     1      41.665 -17.805   5.416  1.00  0.00    -0.323 OA
HETATM   18  C   UNL     1      42.306 -17.516   6.659  1.00  0.00     0.213 C 
ENDBRANCH  15  17
ENDBRANCH  12  15
ENDBRANCH   8   9
ENDBRANCH   7   8
ENDBRANCH   1   7
BRANCH   2  19
HETATM   19  C   UNL     1      40.310 -11.759   1.550  1.00  0.00     0.032 C 
HETATM   20  C   UNL     1      40.552 -12.306   2.751  1.00  0.00     0.045 A 
HETATM   21  C   UNL     1      39.513 -12.232   3.838  1.00  0.00     0.257 A 
HETATM   22  C   UNL     1      41.699 -13.037   3.293  1.00  0.00     0.006 A 
HETATM   23  O   UNL     1      38.420 -11.700   3.790  1.00  0.00    -0.267 OA
HETATM   24  N   UNL     1      40.075 -12.900   4.914  1.00  0.00    -0.322 N 
HETATM   25  C   UNL     1      41.348 -13.374   4.607  1.00  0.00     0.046 A 
HETATM   26  H   UNL     1      39.599 -13.013   5.795  1.00  0.00     0.169 HD
HETATM   27  C   UNL     1      42.188 -14.076   5.447  1.00  0.00     0.030 A 
HETATM   28  C   UNL     1      43.433 -14.454   4.940  1.00  0.00     0.002 A 
HETATM   29  C   UNL     1      43.803 -14.123   3.623  1.00  0.00     0.001 A 
HETATM   30  C   UNL     1      42.932 -13.410   2.790  1.00  0.00     0.015 A 
ENDBRANCH   2  19
TORSDOF 6
ENDMDL
