MODEL 1
REMARK VINA RESULT:      -8.3      0.000      0.000
REMARK  11 active torsions:
REMARK  status: ('A' for Active; 'I' for Inactive)
REMARK    1  A    between atoms: N_13  and  C_14 
REMARK    2  A    between atoms: C_14  and  C_15 
REMARK    3  A    between atoms: N_20  and  C_21 
REMARK    4  A    between atoms: C_21  and  C_22 
REMARK    5  A    between atoms: C_22  and  O_23 
REMARK    6  A    between atoms: C_22  and  C_24 
REMARK    7  A    between atoms: C_24  and  N_25 
REMARK    8  A    between atoms: N_25  and  C_27 
REMARK    9  A    between atoms: N_25  and  C_34 
REMARK   10  A    between atoms: C_27  and  C_28 
REMARK   11  A    between atoms: C_34  and  C_35 
ROOT
HETATM    1  C   UNL     1      42.849 -17.800   7.438  1.00  0.00     0.163 C 
HETATM    2  N   UNL     1      42.994 -18.175   6.041  1.00  0.00    -0.285 N 
HETATM    3  C   UNL     1      43.852 -19.214   5.673  1.00  0.00     0.332 A 
HETATM    4  O   UNL     1      44.514 -19.835   6.508  1.00  0.00    -0.246 OA
HETATM    5  N   UNL     1      43.924 -19.527   4.299  1.00  0.00    -0.269 N 
HETATM    6  C   UNL     1      44.807 -20.604   3.890  1.00  0.00     0.164 C 
HETATM    7  C   UNL     1      43.211 -18.886   3.285  1.00  0.00     0.282 A 
HETATM    8  O   UNL     1      43.268 -19.191   2.096  1.00  0.00    -0.265 OA
HETATM    9  C   UNL     1      42.373 -17.841   3.756  1.00  0.00     0.166 A 
HETATM   10  C   UNL     1      42.283 -17.510   5.072  1.00  0.00     0.186 A 
HETATM   11  N   UNL     1      41.412 -16.490   5.275  1.00  0.00    -0.044 NA
HETATM   12  C   UNL     1      40.965 -16.167   4.081  1.00  0.00     0.705 A 
HETATM   13  N   UNL     1      40.084 -15.195   3.783  1.00  0.00    -0.218 N 
HETATM   14  N   UNL     1      41.496 -17.002   3.116  1.00  0.00    -0.170 N 
HETATM   15  H   UNL     1      40.020 -14.783   2.858  1.00  0.00     0.178 HD
ENDROOT
BRANCH  14  16
HETATM   16  C   UNL     1      41.128 -17.057   1.708  1.00  0.00     0.181 C 
BRANCH  16  17
HETATM   17  C   UNL     1      42.060 -16.212   0.826  1.00  0.00     0.163 C 
BRANCH  17  18
HETATM   18  O   UNL     1      43.080 -17.036   0.243  1.00  0.00    -0.392 OA
HETATM   19  H   UNL     1      42.722 -17.922   0.030  1.00  0.00     0.210 HD
ENDBRANCH  17  18
BRANCH  17  20
HETATM   20  C   UNL     1      41.351 -15.544  -0.375  1.00  0.00     0.268 C 
BRANCH  20  21
HETATM   21  N   UNL     1      41.773 -14.136  -0.743  1.00  0.00    -0.061 N 
HETATM   22  H   UNL     1      42.797 -14.109  -0.741  1.00  0.00     0.280 HD
BRANCH  21  23
HETATM   23  C   UNL     1      41.343 -13.662  -2.121  1.00  0.00     0.273 C 
BRANCH  23  24
HETATM   24  C   UNL     1      40.180 -14.383  -2.747  1.00  0.00    -0.033 A 
HETATM   25  C   UNL     1      40.353 -15.640  -3.348  1.00  0.00     0.009 A 
HETATM   26  C   UNL     1      39.276 -16.299  -3.943  1.00  0.00     0.001 A 
HETATM   27  C   UNL     1      38.013 -15.717  -3.938  1.00  0.00     0.000 A 
HETATM   28  C   UNL     1      37.819 -14.482  -3.327  1.00  0.00     0.001 A 
HETATM   29  C   UNL     1      38.894 -13.820  -2.730  1.00  0.00     0.009 A 
ENDBRANCH  23  24
ENDBRANCH  21  23
BRANCH  21  30
HETATM   30  C   UNL     1      41.364 -13.137   0.331  1.00  0.00     0.273 C 
BRANCH  30  31
HETATM   31  C   UNL     1      39.876 -12.926   0.430  1.00  0.00    -0.033 A 
HETATM   32  C   UNL     1      39.022 -13.966   0.833  1.00  0.00     0.009 A 
HETATM   33  C   UNL     1      37.643 -13.759   0.895  1.00  0.00     0.001 A 
HETATM   34  C   UNL     1      37.104 -12.519   0.561  1.00  0.00     0.000 A 
HETATM   35  C   UNL     1      37.941 -11.478   0.168  1.00  0.00     0.001 A 
HETATM   36  C   UNL     1      39.319 -11.678   0.104  1.00  0.00     0.009 A 
ENDBRANCH  30  31
ENDBRANCH  21  30
ENDBRANCH  20  21
ENDBRANCH  17  20
ENDBRANCH  16  17
ENDBRANCH  14  16
BRANCH  13  37
HETATM   37  C   UNL     1      39.807 -14.181   4.801  1.00  0.00     0.203 C 
BRANCH  37  38
HETATM   38  C   UNL     1      39.846 -12.783   4.269  1.00  0.00     0.070 A 
HETATM   39  O   UNL     1      41.070 -12.291   3.896  1.00  0.00    -0.325 OA
HETATM   40  C   UNL     1      40.870 -11.018   3.468  1.00  0.00     0.142 A 
HETATM   41  C   UNL     1      39.542 -10.679   3.567  1.00  0.00     0.027 A 
HETATM   42  C   UNL     1      38.878 -11.817   4.084  1.00  0.00     0.036 A 
ENDBRANCH  37  38
ENDBRANCH  13  37
TORSDOF 11
ENDMDL
MODEL 2
REMARK VINA RESULT:      -8.2      2.296      7.870
REMARK  11 active torsions:
REMARK  status: ('A' for Active; 'I' for Inactive)
REMARK    1  A    between atoms: N_13  and  C_14 
REMARK    2  A    between atoms: C_14  and  C_15 
REMARK    3  A    between atoms: N_20  and  C_21 
REMARK    4  A    between atoms: C_21  and  C_22 
REMARK    5  A    between atoms: C_22  and  O_23 
REMARK    6  A    between atoms: C_22  and  C_24 
REMARK    7  A    between atoms: C_24  and  N_25 
REMARK    8  A    between atoms: N_25  and  C_27 
REMARK    9  A    between atoms: N_25  and  C_34 
REMARK   10  A    between atoms: C_27  and  C_28 
REMARK   11  A    between atoms: C_34  and  C_35 
ROOT
HETATM    1  C   UNL     1      37.962 -10.246   1.998  1.00  0.00     0.163 C 
HETATM    2  N   UNL     1      38.521 -11.409   2.668  1.00  0.00    -0.285 N 
HETATM    3  C   UNL     1      38.685 -11.415   4.055  1.00  0.00     0.332 A 
HETATM    4  O   UNL     1      38.374 -10.445   4.749  1.00  0.00    -0.246 OA
HETATM    5  N   UNL     1      39.219 -12.588   4.629  1.00  0.00    -0.269 N 
HETATM    6  C   UNL     1      39.398 -12.622   6.069  1.00  0.00     0.164 C 
HETATM    7  C   UNL     1      39.593 -13.735   3.928  1.00  0.00     0.282 A 
HETATM    8  O   UNL     1      40.032 -14.757   4.450  1.00  0.00    -0.265 OA
HETATM    9  C   UNL     1      39.396 -13.630   2.525  1.00  0.00     0.166 A 
HETATM   10  C   UNL     1      38.888 -12.514   1.938  1.00  0.00     0.186 A 
HETATM   11  N   UNL     1      38.784 -12.656   0.593  1.00  0.00    -0.044 NA
HETATM   12  C   UNL     1      39.243 -13.861   0.331  1.00  0.00     0.705 A 
HETATM   13  N   UNL     1      39.347 -14.441  -0.878  1.00  0.00    -0.218 N 
HETATM   14  N   UNL     1      39.592 -14.517   1.497  1.00  0.00    -0.170 N 
HETATM   15  H   UNL     1      39.984 -15.211  -1.059  1.00  0.00     0.178 HD
ENDROOT
BRANCH  14  16
HETATM   16  C   UNL     1      39.993 -15.911   1.630  1.00  0.00     0.181 C 
BRANCH  16  17
HETATM   17  C   UNL     1      41.459 -16.138   1.230  1.00  0.00     0.163 C 
BRANCH  17  18
HETATM   18  O   UNL     1      41.966 -14.997   0.521  1.00  0.00    -0.392 OA
HETATM   19  H   UNL     1      41.778 -14.176   1.017  1.00  0.00     0.210 HD
ENDBRANCH  17  18
BRANCH  17  20
HETATM   20  C   UNL     1      42.416 -16.318   2.432  1.00  0.00     0.268 C 
BRANCH  20  21
HETATM   21  N   UNL     1      42.558 -17.709   3.013  1.00  0.00    -0.061 N 
HETATM   22  H   UNL     1      42.098 -18.361   2.372  1.00  0.00     0.280 HD
BRANCH  21  23
HETATM   23  C   UNL     1      43.983 -18.211   3.174  1.00  0.00     0.273 C 
BRANCH  23  24
HETATM   24  C   UNL     1      44.170 -19.704   3.203  1.00  0.00    -0.033 A 
HETATM   25  C   UNL     1      44.651 -20.345   4.356  1.00  0.00     0.009 A 
HETATM   26  C   UNL     1      44.840 -21.728   4.374  1.00  0.00     0.001 A 
HETATM   27  C   UNL     1      44.542 -22.488   3.248  1.00  0.00     0.000 A 
HETATM   28  C   UNL     1      44.044 -21.871   2.105  1.00  0.00     0.001 A 
HETATM   29  C   UNL     1      43.853 -20.488   2.083  1.00  0.00     0.009 A 
ENDBRANCH  23  24
ENDBRANCH  21  23
BRANCH  21  30
HETATM   30  C   UNL     1      41.780 -17.845   4.316  1.00  0.00     0.273 C 
BRANCH  30  31
HETATM   31  C   UNL     1      42.500 -17.288   5.516  1.00  0.00    -0.033 A 
HETATM   32  C   UNL     1      42.951 -15.958   5.536  1.00  0.00     0.009 A 
HETATM   33  C   UNL     1      43.639 -15.467   6.647  1.00  0.00     0.001 A 
HETATM   34  C   UNL     1      43.881 -16.290   7.744  1.00  0.00     0.000 A 
HETATM   35  C   UNL     1      43.431 -17.608   7.739  1.00  0.00     0.001 A 
HETATM   36  C   UNL     1      42.743 -18.105   6.632  1.00  0.00     0.009 A 
ENDBRANCH  30  31
ENDBRANCH  21  30
ENDBRANCH  20  21
ENDBRANCH  17  20
ENDBRANCH  16  17
ENDBRANCH  14  16
BRANCH  13  37
HETATM   37  C   UNL     1      39.244 -13.589  -2.062  1.00  0.00     0.203 C 
BRANCH  37  38
HETATM   38  C   UNL     1      40.551 -12.989  -2.475  1.00  0.00     0.070 A 
HETATM   39  O   UNL     1      41.683 -13.713  -2.205  1.00  0.00    -0.325 OA
HETATM   40  C   UNL     1      42.736 -12.977  -2.644  1.00  0.00     0.142 A 
HETATM   41  C   UNL     1      42.304 -11.789  -3.184  1.00  0.00     0.027 A 
HETATM   42  C   UNL     1      40.892 -11.795  -3.076  1.00  0.00     0.036 A 
ENDBRANCH  37  38
ENDBRANCH  13  37
TORSDOF 11
ENDMDL
MODEL 3
REMARK VINA RESULT:      -8.2      2.316      8.260
REMARK  11 active torsions:
REMARK  status: ('A' for Active; 'I' for Inactive)
REMARK    1  A    between atoms: N_13  and  C_14 
REMARK    2  A    between atoms: C_14  and  C_15 
REMARK    3  A    between atoms: N_20  and  C_21 
REMARK    4  A    between atoms: C_21  and  C_22 
REMARK    5  A    between atoms: C_22  and  O_23 
REMARK    6  A    between atoms: C_22  and  C_24 
REMARK    7  A    between atoms: C_24  and  N_25 
REMARK    8  A    between atoms: N_25  and  C_27 
REMARK    9  A    between atoms: N_25  and  C_34 
REMARK   10  A    between atoms: C_27  and  C_28 
REMARK   11  A    between atoms: C_34  and  C_35 
ROOT
HETATM    1  C   UNL     1      37.677 -10.283   2.438  1.00  0.00     0.163 C 
HETATM    2  N   UNL     1      38.358 -11.430   3.018  1.00  0.00    -0.285 N 
HETATM    3  C   UNL     1      38.715 -11.432   4.368  1.00  0.00     0.332 A 
HETATM    4  O   UNL     1      38.478 -10.471   5.104  1.00  0.00    -0.246 OA
HETATM    5  N   UNL     1      39.358 -12.589   4.857  1.00  0.00    -0.269 N 
HETATM    6  C   UNL     1      39.739 -12.618   6.258  1.00  0.00     0.164 C 
HETATM    7  C   UNL     1      39.663 -13.724   4.105  1.00  0.00     0.282 A 
HETATM    8  O   UNL     1      40.200 -14.733   4.556  1.00  0.00    -0.265 OA
HETATM    9  C   UNL     1      39.268 -13.625   2.745  1.00  0.00     0.166 A 
HETATM   10  C   UNL     1      38.651 -12.523   2.240  1.00  0.00     0.186 A 
HETATM   11  N   UNL     1      38.363 -12.668   0.921  1.00  0.00    -0.044 NA
HETATM   12  C   UNL     1      38.816 -13.859   0.592  1.00  0.00     0.705 A 
HETATM   13  N   UNL     1      38.765 -14.436  -0.621  1.00  0.00    -0.218 N 
HETATM   14  N   UNL     1      39.343 -14.505   1.695  1.00  0.00    -0.170 N 
HETATM   15  H   UNL     1      39.392 -15.187  -0.894  1.00  0.00     0.178 HD
ENDROOT
BRANCH  14  16
HETATM   16  C   UNL     1      39.799 -15.887   1.764  1.00  0.00     0.181 C 
BRANCH  16  17
HETATM   17  C   UNL     1      41.253 -16.046   1.295  1.00  0.00     0.163 C 
BRANCH  17  18
HETATM   18  O   UNL     1      42.095 -15.077   1.938  1.00  0.00    -0.392 OA
HETATM   19  H   UNL     1      41.566 -14.311   2.237  1.00  0.00     0.210 HD
ENDBRANCH  17  18
BRANCH  17  20
HETATM   20  C   UNL     1      41.880 -17.416   1.648  1.00  0.00     0.268 C 
BRANCH  20  21
HETATM   21  N   UNL     1      42.835 -17.468   2.821  1.00  0.00    -0.061 N 
HETATM   22  H   UNL     1      43.069 -16.504   3.073  1.00  0.00     0.280 HD
BRANCH  21  23
HETATM   23  C   UNL     1      42.289 -18.113   4.084  1.00  0.00     0.273 C 
BRANCH  23  24
HETATM   24  C   UNL     1      42.764 -17.538   5.391  1.00  0.00    -0.033 A 
HETATM   25  C   UNL     1      42.811 -18.332   6.549  1.00  0.00     0.009 A 
HETATM   26  C   UNL     1      43.235 -17.792   7.764  1.00  0.00     0.001 A 
HETATM   27  C   UNL     1      43.627 -16.459   7.837  1.00  0.00     0.000 A 
HETATM   28  C   UNL     1      43.607 -15.666   6.695  1.00  0.00     0.001 A 
HETATM   29  C   UNL     1      43.184 -16.202   5.477  1.00  0.00     0.009 A 
ENDBRANCH  23  24
ENDBRANCH  21  23
BRANCH  21  30
HETATM   30  C   UNL     1      44.167 -18.090   2.423  1.00  0.00     0.273 C 
BRANCH  30  31
HETATM   31  C   UNL     1      44.240 -19.576   2.660  1.00  0.00    -0.033 A 
HETATM   32  C   UNL     1      43.731 -20.485   1.719  1.00  0.00     0.009 A 
HETATM   33  C   UNL     1      43.785 -21.857   1.968  1.00  0.00     0.001 A 
HETATM   34  C   UNL     1      44.346 -22.335   3.150  1.00  0.00     0.000 A 
HETATM   35  C   UNL     1      44.861 -21.444   4.087  1.00  0.00     0.001 A 
HETATM   36  C   UNL     1      44.811 -20.071   3.844  1.00  0.00     0.009 A 
ENDBRANCH  30  31
ENDBRANCH  21  30
ENDBRANCH  20  21
ENDBRANCH  17  20
ENDBRANCH  16  17
ENDBRANCH  14  16
BRANCH  13  37
HETATM   37  C   UNL     1      38.472 -13.587  -1.776  1.00  0.00     0.203 C 
BRANCH  37  38
HETATM   38  C   UNL     1      39.701 -13.070  -2.457  1.00  0.00     0.070 A 
HETATM   39  O   UNL     1      40.180 -11.855  -2.041  1.00  0.00    -0.325 OA
HETATM   40  C   UNL     1      41.273 -11.581  -2.799  1.00  0.00     0.142 A 
HETATM   41  C   UNL     1      41.500 -12.593  -3.702  1.00  0.00     0.027 A 
HETATM   42  C   UNL     1      40.486 -13.556  -3.482  1.00  0.00     0.036 A 
ENDBRANCH  37  38
ENDBRANCH  13  37
TORSDOF 11
ENDMDL
MODEL 4
REMARK VINA RESULT:      -8.2      2.159      8.225
REMARK  11 active torsions:
REMARK  status: ('A' for Active; 'I' for Inactive)
REMARK    1  A    between atoms: N_13  and  C_14 
REMARK    2  A    between atoms: C_14  and  C_15 
REMARK    3  A    between atoms: N_20  and  C_21 
REMARK    4  A    between atoms: C_21  and  C_22 
REMARK    5  A    between atoms: C_22  and  O_23 
REMARK    6  A    between atoms: C_22  and  C_24 
REMARK    7  A    between atoms: C_24  and  N_25 
REMARK    8  A    between atoms: N_25  and  C_27 
REMARK    9  A    between atoms: N_25  and  C_34 
REMARK   10  A    between atoms: C_27  and  C_28 
REMARK   11  A    between atoms: C_34  and  C_35 
ROOT
HETATM    1  C   UNL     1      37.541 -10.602   1.739  1.00  0.00     0.163 C 
HETATM    2  N   UNL     1      38.489 -11.378   2.522  1.00  0.00    -0.285 N 
HETATM    3  C   UNL     1      38.582 -11.196   3.904  1.00  0.00     0.332 A 
HETATM    4  O   UNL     1      37.879 -10.376   4.499  1.00  0.00    -0.246 OA
HETATM    5  N   UNL     1      39.515 -12.000   4.592  1.00  0.00    -0.269 N 
HETATM    6  C   UNL     1      39.630 -11.832   6.030  1.00  0.00     0.164 C 
HETATM    7  C   UNL     1      40.347 -12.955   4.008  1.00  0.00     0.282 A 
HETATM    8  O   UNL     1      41.135 -13.665   4.630  1.00  0.00    -0.265 OA
HETATM    9  C   UNL     1      40.185 -13.062   2.601  1.00  0.00     0.166 A 
HETATM   10  C   UNL     1      39.299 -12.301   1.906  1.00  0.00     0.186 A 
HETATM   11  N   UNL     1      39.319 -12.591   0.580  1.00  0.00    -0.044 NA
HETATM   12  C   UNL     1      40.233 -13.526   0.439  1.00  0.00     0.705 A 
HETATM   13  N   UNL     1      40.612 -14.120  -0.706  1.00  0.00    -0.218 N 
HETATM   14  N   UNL     1      40.764 -13.881   1.665  1.00  0.00    -0.170 N 
HETATM   15  H   UNL     1      41.511 -14.581  -0.809  1.00  0.00     0.178 HD
ENDROOT
BRANCH  14  16
HETATM   16  C   UNL     1      41.684 -14.978   1.936  1.00  0.00     0.181 C 
BRANCH  16  17
HETATM   17  C   UNL     1      40.952 -16.272   2.325  1.00  0.00     0.163 C 
BRANCH  17  18
HETATM   18  O   UNL     1      39.810 -16.473   1.480  1.00  0.00    -0.392 OA
HETATM   19  H   UNL     1      39.847 -15.874   0.708  1.00  0.00     0.210 HD
ENDBRANCH  17  18
BRANCH  17  20
HETATM   20  C   UNL     1      41.805 -17.551   2.156  1.00  0.00     0.268 C 
BRANCH  20  21
HETATM   21  N   UNL     1      42.903 -17.800   3.169  1.00  0.00    -0.061 N 
HETATM   22  H   UNL     1      42.519 -18.405   3.900  1.00  0.00     0.280 HD
BRANCH  21  23
HETATM   23  C   UNL     1      44.136 -18.511   2.638  1.00  0.00     0.273 C 
BRANCH  23  24
HETATM   24  C   UNL     1      44.333 -19.935   3.081  1.00  0.00    -0.033 A 
HETATM   25  C   UNL     1      44.736 -20.229   4.394  1.00  0.00     0.009 A 
HETATM   26  C   UNL     1      44.935 -21.550   4.799  1.00  0.00     0.001 A 
HETATM   27  C   UNL     1      44.726 -22.593   3.903  1.00  0.00     0.000 A 
HETATM   28  C   UNL     1      44.306 -22.321   2.605  1.00  0.00     0.001 A 
HETATM   29  C   UNL     1      44.105 -21.001   2.197  1.00  0.00     0.009 A 
ENDBRANCH  23  24
ENDBRANCH  21  23
BRANCH  21  30
HETATM   30  C   UNL     1      43.284 -16.519   3.899  1.00  0.00     0.273 C 
BRANCH  30  31
HETATM   31  C   UNL     1      43.314 -16.659   5.398  1.00  0.00    -0.033 A 
HETATM   32  C   UNL     1      43.900 -15.670   6.206  1.00  0.00     0.009 A 
HETATM   33  C   UNL     1      43.942 -15.830   7.592  1.00  0.00     0.001 A 
HETATM   34  C   UNL     1      43.400 -16.968   8.184  1.00  0.00     0.000 A 
HETATM   35  C   UNL     1      42.810 -17.951   7.394  1.00  0.00     0.001 A 
HETATM   36  C   UNL     1      42.765 -17.798   6.009  1.00  0.00     0.009 A 
ENDBRANCH  30  31
ENDBRANCH  21  30
ENDBRANCH  20  21
ENDBRANCH  17  20
ENDBRANCH  16  17
ENDBRANCH  14  16
BRANCH  13  37
HETATM   37  C   UNL     1      40.228 -13.489  -1.969  1.00  0.00     0.203 C 
BRANCH  37  38
HETATM   38  C   UNL     1      39.424 -14.384  -2.858  1.00  0.00     0.070 A 
HETATM   39  O   UNL     1      38.060 -14.263  -2.795  1.00  0.00    -0.325 OA
HETATM   40  C   UNL     1      37.543 -15.173  -3.660  1.00  0.00     0.142 A 
HETATM   41  C   UNL     1      38.548 -15.883  -4.272  1.00  0.00     0.027 A 
HETATM   42  C   UNL     1      39.764 -15.375  -3.755  1.00  0.00     0.036 A 
ENDBRANCH  37  38
ENDBRANCH  13  37
TORSDOF 11
ENDMDL
MODEL 5
REMARK VINA RESULT:      -8.2      2.448      7.847
REMARK  11 active torsions:
REMARK  status: ('A' for Active; 'I' for Inactive)
REMARK    1  A    between atoms: N_13  and  C_14 
REMARK    2  A    between atoms: C_14  and  C_15 
REMARK    3  A    between atoms: N_20  and  C_21 
REMARK    4  A    between atoms: C_21  and  C_22 
REMARK    5  A    between atoms: C_22  and  O_23 
REMARK    6  A    between atoms: C_22  and  C_24 
REMARK    7  A    between atoms: C_24  and  N_25 
REMARK    8  A    between atoms: N_25  and  C_27 
REMARK    9  A    between atoms: N_25  and  C_34 
REMARK   10  A    between atoms: C_27  and  C_28 
REMARK   11  A    between atoms: C_34  and  C_35 
ROOT
HETATM    1  C   UNL     1      37.155 -11.701  -1.715  1.00  0.00     0.163 C 
HETATM    2  N   UNL     1      38.015 -12.858  -1.909  1.00  0.00    -0.285 N 
HETATM    3  C   UNL     1      37.859 -13.675  -3.032  1.00  0.00     0.332 A 
HETATM    4  O   UNL     1      36.993 -13.452  -3.881  1.00  0.00    -0.246 OA
HETATM    5  N   UNL     1      38.744 -14.767  -3.154  1.00  0.00    -0.269 N 
HETATM    6  C   UNL     1      38.604 -15.631  -4.313  1.00  0.00     0.164 C 
HETATM    7  C   UNL     1      39.756 -15.094  -2.251  1.00  0.00     0.282 A 
HETATM    8  O   UNL     1      40.534 -16.035  -2.390  1.00  0.00    -0.265 OA
HETATM    9  C   UNL     1      39.831 -14.211  -1.142  1.00  0.00     0.166 A 
HETATM   10  C   UNL     1      38.992 -13.152  -0.989  1.00  0.00     0.186 A 
HETATM   11  N   UNL     1      39.265 -12.452   0.141  1.00  0.00    -0.044 NA
HETATM   12  C   UNL     1      40.269 -13.083   0.710  1.00  0.00     0.705 A 
HETATM   13  N   UNL     1      40.876 -12.760   1.865  1.00  0.00    -0.218 N 
HETATM   14  N   UNL     1      40.682 -14.150  -0.067  1.00  0.00    -0.170 N 
HETATM   15  H   UNL     1      41.407 -13.433   2.409  1.00  0.00     0.178 HD
ENDROOT
BRANCH  14  16
HETATM   16  C   UNL     1      41.853 -14.989   0.150  1.00  0.00     0.181 C 
BRANCH  16  17
HETATM   17  C   UNL     1      41.546 -16.202   1.042  1.00  0.00     0.163 C 
BRANCH  17  18
HETATM   18  O   UNL     1      40.856 -17.212   0.291  1.00  0.00    -0.392 OA
HETATM   19  H   UNL     1      41.424 -18.001   0.179  1.00  0.00     0.210 HD
ENDBRANCH  17  18
BRANCH  17  20
HETATM   20  C   UNL     1      42.805 -16.906   1.598  1.00  0.00     0.268 C 
BRANCH  20  21
HETATM   21  N   UNL     1      42.663 -17.671   2.898  1.00  0.00    -0.061 N 
HETATM   22  H   UNL     1      42.102 -18.506   2.706  1.00  0.00     0.280 HD
BRANCH  21  23
HETATM   23  C   UNL     1      43.962 -18.169   3.510  1.00  0.00     0.273 C 
BRANCH  23  24
HETATM   24  C   UNL     1      44.187 -19.657   3.491  1.00  0.00    -0.033 A 
HETATM   25  C   UNL     1      44.612 -20.334   4.646  1.00  0.00     0.009 A 
HETATM   26  C   UNL     1      44.836 -21.711   4.620  1.00  0.00     0.001 A 
HETATM   27  C   UNL     1      44.631 -22.431   3.448  1.00  0.00     0.000 A 
HETATM   28  C   UNL     1      44.189 -21.779   2.301  1.00  0.00     0.001 A 
HETATM   29  C   UNL     1      43.962 -20.401   2.322  1.00  0.00     0.009 A 
ENDBRANCH  23  24
ENDBRANCH  21  23
BRANCH  21  30
HETATM   30  C   UNL     1      41.845 -16.888   3.915  1.00  0.00     0.273 C 
BRANCH  30  31
HETATM   31  C   UNL     1      42.677 -16.046   4.847  1.00  0.00    -0.033 A 
HETATM   32  C   UNL     1      43.151 -14.784   4.453  1.00  0.00     0.009 A 
HETATM   33  C   UNL     1      43.942 -14.029   5.321  1.00  0.00     0.001 A 
HETATM   34  C   UNL     1      44.264 -14.520   6.584  1.00  0.00     0.000 A 
HETATM   35  C   UNL     1      43.793 -15.766   6.988  1.00  0.00     0.001 A 
HETATM   36  C   UNL     1      43.002 -16.525   6.126  1.00  0.00     0.009 A 
ENDBRANCH  30  31
ENDBRANCH  21  30
ENDBRANCH  20  21
ENDBRANCH  17  20
ENDBRANCH  16  17
ENDBRANCH  14  16
BRANCH  13  37
HETATM   37  C   UNL     1      40.200 -11.819   2.759  1.00  0.00     0.203 C 
BRANCH  37  38
HETATM   38  C   UNL     1      40.285 -12.208   4.202  1.00  0.00     0.070 A 
HETATM   39  O   UNL     1      41.059 -11.423   5.015  1.00  0.00    -0.325 OA
HETATM   40  C   UNL     1      41.005 -11.967   6.258  1.00  0.00     0.142 A 
HETATM   41  C   UNL     1      40.217 -13.094   6.257  1.00  0.00     0.027 A 
HETATM   42  C   UNL     1      39.751 -13.252   4.930  1.00  0.00     0.036 A 
ENDBRANCH  37  38
ENDBRANCH  13  37
TORSDOF 11
ENDMDL
MODEL 6
REMARK VINA RESULT:      -8.2      1.373      2.493
REMARK  11 active torsions:
REMARK  status: ('A' for Active; 'I' for Inactive)
REMARK    1  A    between atoms: N_13  and  C_14 
REMARK    2  A    between atoms: C_14  and  C_15 
REMARK    3  A    between atoms: N_20  and  C_21 
REMARK    4  A    between atoms: C_21  and  C_22 
REMARK    5  A    between atoms: C_22  and  O_23 
REMARK    6  A    between atoms: C_22  and  C_24 
REMARK    7  A    between atoms: C_24  and  N_25 
REMARK    8  A    between atoms: N_25  and  C_27 
REMARK    9  A    between atoms: N_25  and  C_34 
REMARK   10  A    between atoms: C_27  and  C_28 
REMARK   11  A    between atoms: C_34  and  C_35 
ROOT
HETATM    1  C   UNL     1      42.743 -17.576   7.302  1.00  0.00     0.163 C 
HETATM    2  N   UNL     1      42.888 -18.017   5.924  1.00  0.00    -0.285 N 
HETATM    3  C   UNL     1      43.753 -19.066   5.604  1.00  0.00     0.332 A 
HETATM    4  O   UNL     1      44.423 -19.640   6.465  1.00  0.00    -0.246 OA
HETATM    5  N   UNL     1      43.823 -19.444   4.246  1.00  0.00    -0.269 N 
HETATM    6  C   UNL     1      44.713 -20.532   3.887  1.00  0.00     0.164 C 
HETATM    7  C   UNL     1      43.102 -18.859   3.205  1.00  0.00     0.282 A 
HETATM    8  O   UNL     1      43.157 -19.221   2.032  1.00  0.00    -0.265 OA
HETATM    9  C   UNL     1      42.257 -17.799   3.627  1.00  0.00     0.166 A 
HETATM   10  C   UNL     1      42.168 -17.406   4.926  1.00  0.00     0.186 A 
HETATM   11  N   UNL     1      41.289 -16.383   5.083  1.00  0.00    -0.044 NA
HETATM   12  C   UNL     1      40.836 -16.122   3.876  1.00  0.00     0.705 A 
HETATM   13  N   UNL     1      39.946 -15.173   3.535  1.00  0.00    -0.218 N 
HETATM   14  N   UNL     1      41.371 -16.999   2.951  1.00  0.00    -0.170 N 
HETATM   15  H   UNL     1      39.876 -14.807   2.591  1.00  0.00     0.178 HD
ENDROOT
BRANCH  14  16
HETATM   16  C   UNL     1      40.999 -17.125   1.548  1.00  0.00     0.181 C 
BRANCH  16  17
HETATM   17  C   UNL     1      41.828 -16.206   0.638  1.00  0.00     0.163 C 
BRANCH  17  18
HETATM   18  O   UNL     1      43.136 -16.758   0.430  1.00  0.00    -0.392 OA
HETATM   19  H   UNL     1      43.233 -17.067  -0.493  1.00  0.00     0.210 HD
ENDBRANCH  17  18
BRANCH  17  20
HETATM   20  C   UNL     1      41.238 -16.030  -0.781  1.00  0.00     0.268 C 
BRANCH  20  21
HETATM   21  N   UNL     1      40.960 -14.619  -1.254  1.00  0.00    -0.061 N 
HETATM   22  H   UNL     1      41.015 -14.002  -0.438  1.00  0.00     0.280 HD
BRANCH  21  23
HETATM   23  C   UNL     1      41.944 -14.062  -2.270  1.00  0.00     0.273 C 
BRANCH  23  24
HETATM   24  C   UNL     1      42.285 -12.601  -2.144  1.00  0.00    -0.033 A 
HETATM   25  C   UNL     1      42.502 -12.021  -0.884  1.00  0.00     0.009 A 
HETATM   26  C   UNL     1      42.802 -10.662  -0.769  1.00  0.00     0.001 A 
HETATM   27  C   UNL     1      42.897  -9.870  -1.908  1.00  0.00     0.000 A 
HETATM   28  C   UNL     1      42.707 -10.434  -3.165  1.00  0.00     0.001 A 
HETATM   29  C   UNL     1      42.408 -11.793  -3.284  1.00  0.00     0.009 A 
ENDBRANCH  23  24
ENDBRANCH  21  23
BRANCH  21  30
HETATM   30  C   UNL     1      39.526 -14.472  -1.745  1.00  0.00     0.273 C 
BRANCH  30  31
HETATM   31  C   UNL     1      38.706 -13.493  -0.946  1.00  0.00    -0.033 A 
HETATM   32  C   UNL     1      37.902 -13.924   0.121  1.00  0.00     0.009 A 
HETATM   33  C   UNL     1      37.129 -13.006   0.834  1.00  0.00     0.001 A 
HETATM   34  C   UNL     1      37.153 -11.655   0.495  1.00  0.00     0.000 A 
HETATM   35  C   UNL     1      37.953 -11.215  -0.556  1.00  0.00     0.001 A 
HETATM   36  C   UNL     1      38.727 -12.127  -1.272  1.00  0.00     0.009 A 
ENDBRANCH  30  31
ENDBRANCH  21  30
ENDBRANCH  20  21
ENDBRANCH  17  20
ENDBRANCH  16  17
ENDBRANCH  14  16
BRANCH  13  37
HETATM   37  C   UNL     1      39.664 -14.113   4.503  1.00  0.00     0.203 C 
BRANCH  37  38
HETATM   38  C   UNL     1      39.644 -12.746   3.895  1.00  0.00     0.070 A 
HETATM   39  O   UNL     1      38.774 -11.836   4.435  1.00  0.00    -0.325 OA
HETATM   40  C   UNL     1      38.912 -10.687   3.724  1.00  0.00     0.142 A 
HETATM   41  C   UNL     1      39.849 -10.845   2.731  1.00  0.00     0.027 A 
HETATM   42  C   UNL     1      40.323 -12.174   2.840  1.00  0.00     0.036 A 
ENDBRANCH  37  38
ENDBRANCH  13  37
TORSDOF 11
ENDMDL
MODEL 7
REMARK VINA RESULT:      -8.2      0.763      2.786
REMARK  11 active torsions:
REMARK  status: ('A' for Active; 'I' for Inactive)
REMARK    1  A    between atoms: N_13  and  C_14 
REMARK    2  A    between atoms: C_14  and  C_15 
REMARK    3  A    between atoms: N_20  and  C_21 
REMARK    4  A    between atoms: C_21  and  C_22 
REMARK    5  A    between atoms: C_22  and  O_23 
REMARK    6  A    between atoms: C_22  and  C_24 
REMARK    7  A    between atoms: C_24  and  N_25 
REMARK    8  A    between atoms: N_25  and  C_27 
REMARK    9  A    between atoms: N_25  and  C_34 
REMARK   10  A    between atoms: C_27  and  C_28 
REMARK   11  A    between atoms: C_34  and  C_35 
ROOT
HETATM    1  C   UNL     1      43.002 -17.776   7.170  1.00  0.00     0.163 C 
HETATM    2  N   UNL     1      43.062 -18.176   5.773  1.00  0.00    -0.285 N 
HETATM    3  C   UNL     1      43.899 -19.220   5.372  1.00  0.00     0.332 A 
HETATM    4  O   UNL     1      44.613 -19.825   6.175  1.00  0.00    -0.246 OA
HETATM    5  N   UNL     1      43.886 -19.558   4.002  1.00  0.00    -0.269 N 
HETATM    6  C   UNL     1      44.745 -20.641   3.559  1.00  0.00     0.164 C 
HETATM    7  C   UNL     1      43.111 -18.937   3.023  1.00  0.00     0.282 A 
HETATM    8  O   UNL     1      43.094 -19.263   1.838  1.00  0.00    -0.265 OA
HETATM    9  C   UNL     1      42.300 -17.885   3.526  1.00  0.00     0.166 A 
HETATM   10  C   UNL     1      42.291 -17.531   4.838  1.00  0.00     0.186 A 
HETATM   11  N   UNL     1      41.431 -16.508   5.077  1.00  0.00    -0.044 NA
HETATM   12  C   UNL     1      40.910 -16.207   3.907  1.00  0.00     0.705 A 
HETATM   13  N   UNL     1      40.010 -15.243   3.647  1.00  0.00    -0.218 N 
HETATM   14  N   UNL     1      41.383 -17.059   2.926  1.00  0.00    -0.170 N 
HETATM   15  H   UNL     1      39.888 -14.847   2.720  1.00  0.00     0.178 HD
ENDROOT
BRANCH  14  16
HETATM   16  C   UNL     1      40.928 -17.141   1.544  1.00  0.00     0.181 C 
BRANCH  16  17
HETATM   17  C   UNL     1      41.719 -16.209   0.613  1.00  0.00     0.163 C 
BRANCH  17  18
HETATM   18  O   UNL     1      43.012 -16.766   0.330  1.00  0.00    -0.392 OA
HETATM   19  H   UNL     1      42.968 -17.743   0.321  1.00  0.00     0.210 HD
ENDBRANCH  17  18
BRANCH  17  20
HETATM   20  C   UNL     1      41.063 -16.001  -0.771  1.00  0.00     0.268 C 
BRANCH  20  21
HETATM   21  N   UNL     1      40.128 -14.821  -0.933  1.00  0.00    -0.061 N 
HETATM   22  H   UNL     1      39.169 -15.178  -0.895  1.00  0.00     0.280 HD
BRANCH  21  23
HETATM   23  C   UNL     1      40.223 -13.755   0.145  1.00  0.00     0.273 C 
BRANCH  23  24
HETATM   24  C   UNL     1      39.100 -12.755   0.204  1.00  0.00    -0.033 A 
HETATM   25  C   UNL     1      37.802 -13.155   0.560  1.00  0.00     0.009 A 
HETATM   26  C   UNL     1      36.758 -12.228   0.597  1.00  0.00     0.001 A 
HETATM   27  C   UNL     1      36.998 -10.893   0.289  1.00  0.00     0.000 A 
HETATM   28  C   UNL     1      38.283 -10.478  -0.044  1.00  0.00     0.001 A 
HETATM   29  C   UNL     1      39.330 -11.400  -0.082  1.00  0.00     0.009 A 
ENDBRANCH  23  24
ENDBRANCH  21  23
BRANCH  21  30
HETATM   30  C   UNL     1      40.249 -14.205  -2.321  1.00  0.00     0.273 C 
BRANCH  30  31
HETATM   31  C   UNL     1      38.925 -13.964  -2.998  1.00  0.00    -0.033 A 
HETATM   32  C   UNL     1      38.090 -15.034  -3.356  1.00  0.00     0.009 A 
HETATM   33  C   UNL     1      36.878 -14.793  -4.005  1.00  0.00     0.001 A 
HETATM   34  C   UNL     1      36.487 -13.488  -4.300  1.00  0.00     0.000 A 
HETATM   35  C   UNL     1      37.303 -12.419  -3.942  1.00  0.00     0.001 A 
HETATM   36  C   UNL     1      38.515 -12.653  -3.293  1.00  0.00     0.009 A 
ENDBRANCH  30  31
ENDBRANCH  21  30
ENDBRANCH  20  21
ENDBRANCH  17  20
ENDBRANCH  16  17
ENDBRANCH  14  16
BRANCH  13  37
HETATM   37  C   UNL     1      39.793 -14.211   4.661  1.00  0.00     0.203 C 
BRANCH  37  38
HETATM   38  C   UNL     1      39.859 -12.820   4.114  1.00  0.00     0.070 A 
HETATM   39  O   UNL     1      41.052 -12.418   3.573  1.00  0.00    -0.325 OA
HETATM   40  C   UNL     1      40.887 -11.134   3.163  1.00  0.00     0.142 A 
HETATM   41  C   UNL     1      39.611 -10.700   3.436  1.00  0.00     0.027 A 
HETATM   42  C   UNL     1      38.945 -11.788   4.050  1.00  0.00     0.036 A 
ENDBRANCH  37  38
ENDBRANCH  13  37
TORSDOF 11
ENDMDL
MODEL 8
REMARK VINA RESULT:      -8.1      5.411     10.447
REMARK  11 active torsions:
REMARK  status: ('A' for Active; 'I' for Inactive)
REMARK    1  A    between atoms: N_13  and  C_14 
REMARK    2  A    between atoms: C_14  and  C_15 
REMARK    3  A    between atoms: N_20  and  C_21 
REMARK    4  A    between atoms: C_21  and  C_22 
REMARK    5  A    between atoms: C_22  and  O_23 
REMARK    6  A    between atoms: C_22  and  C_24 
REMARK    7  A    between atoms: C_24  and  N_25 
REMARK    8  A    between atoms: N_25  and  C_27 
REMARK    9  A    between atoms: N_25  and  C_34 
REMARK   10  A    between atoms: C_27  and  C_28 
REMARK   11  A    between atoms: C_34  and  C_35 
ROOT
HETATM    1  C   UNL     1      41.710 -13.358   1.040  1.00  0.00     0.163 C 
HETATM    2  N   UNL     1      40.731 -12.736   1.918  1.00  0.00    -0.285 N 
HETATM    3  C   UNL     1      39.712 -11.941   1.388  1.00  0.00     0.332 A 
HETATM    4  O   UNL     1      39.613 -11.734   0.177  1.00  0.00    -0.246 OA
HETATM    5  N   UNL     1      38.793 -11.387   2.305  1.00  0.00    -0.269 N 
HETATM    6  C   UNL     1      37.723 -10.558   1.781  1.00  0.00     0.164 C 
HETATM    7  C   UNL     1      38.820 -11.569   3.688  1.00  0.00     0.282 A 
HETATM    8  O   UNL     1      37.994 -11.099   4.468  1.00  0.00    -0.265 OA
HETATM    9  C   UNL     1      39.895 -12.385   4.130  1.00  0.00     0.166 A 
HETATM   10  C   UNL     1      40.801 -12.930   3.276  1.00  0.00     0.186 A 
HETATM   11  N   UNL     1      41.725 -13.677   3.931  1.00  0.00    -0.044 NA
HETATM   12  C   UNL     1      41.409 -13.587   5.205  1.00  0.00     0.705 A 
HETATM   13  N   UNL     1      42.053 -14.155   6.240  1.00  0.00    -0.218 N 
HETATM   14  N   UNL     1      40.261 -12.835   5.374  1.00  0.00    -0.170 N 
HETATM   15  H   UNL     1      41.972 -13.806   7.190  1.00  0.00     0.178 HD
ENDROOT
BRANCH  14  16
HETATM   16  C   UNL     1      39.518 -12.639   6.611  1.00  0.00     0.181 C 
BRANCH  16  17
HETATM   17  C   UNL     1      39.945 -11.363   7.353  1.00  0.00     0.163 C 
BRANCH  17  18
HETATM   18  O   UNL     1      39.192 -10.235   6.881  1.00  0.00    -0.392 OA
HETATM   19  H   UNL     1      38.565 -10.512   6.183  1.00  0.00     0.210 HD
ENDBRANCH  17  18
BRANCH  17  20
HETATM   20  C   UNL     1      39.685 -11.406   8.876  1.00  0.00     0.268 C 
BRANCH  20  21
HETATM   21  N   UNL     1      40.794 -10.928   9.790  1.00  0.00    -0.061 N 
HETATM   22  H   UNL     1      41.178 -11.749  10.267  1.00  0.00     0.280 HD
BRANCH  21  23
HETATM   23  C   UNL     1      41.968 -10.254   9.100  1.00  0.00     0.273 C 
BRANCH  23  24
HETATM   24  C   UNL     1      43.317 -10.894   9.291  1.00  0.00    -0.033 A 
HETATM   25  C   UNL     1      43.738 -11.942   8.456  1.00  0.00     0.009 A 
HETATM   26  C   UNL     1      44.983 -12.546   8.645  1.00  0.00     0.001 A 
HETATM   27  C   UNL     1      45.825 -12.105   9.661  1.00  0.00     0.000 A 
HETATM   28  C   UNL     1      45.431 -11.054  10.483  1.00  0.00     0.001 A 
HETATM   29  C   UNL     1      44.188 -10.447  10.296  1.00  0.00     0.009 A 
ENDBRANCH  23  24
ENDBRANCH  21  23
BRANCH  21  30
HETATM   30  C   UNL     1      40.249 -10.058  10.915  1.00  0.00     0.273 C 
BRANCH  30  31
HETATM   31  C   UNL     1      41.238  -9.803  12.022  1.00  0.00    -0.033 A 
HETATM   32  C   UNL     1      41.663 -10.842  12.866  1.00  0.00     0.009 A 
HETATM   33  C   UNL     1      42.560 -10.581  13.903  1.00  0.00     0.001 A 
HETATM   34  C   UNL     1      43.043  -9.291  14.106  1.00  0.00     0.000 A 
HETATM   35  C   UNL     1      42.635  -8.254  13.271  1.00  0.00     0.001 A 
HETATM   36  C   UNL     1      41.739  -8.508  12.232  1.00  0.00     0.009 A 
ENDBRANCH  30  31
ENDBRANCH  21  30
ENDBRANCH  20  21
ENDBRANCH  17  20
ENDBRANCH  16  17
ENDBRANCH  14  16
BRANCH  13  37
HETATM   37  C   UNL     1      43.403 -14.672   6.012  1.00  0.00     0.203 C 
BRANCH  37  38
HETATM   38  C   UNL     1      43.614 -16.044   6.570  1.00  0.00     0.070 A 
HETATM   39  O   UNL     1      42.567 -16.608   7.251  1.00  0.00    -0.325 OA
HETATM   40  C   UNL     1      42.985 -17.828   7.678  1.00  0.00     0.142 A 
HETATM   41  C   UNL     1      44.284 -18.055   7.290  1.00  0.00     0.027 A 
HETATM   42  C   UNL     1      44.692 -16.905   6.575  1.00  0.00     0.036 A 
ENDBRANCH  37  38
ENDBRANCH  13  37
TORSDOF 11
ENDMDL
MODEL 9
REMARK VINA RESULT:      -8.0      2.739      7.626
REMARK  11 active torsions:
REMARK  status: ('A' for Active; 'I' for Inactive)
REMARK    1  A    between atoms: N_13  and  C_14 
REMARK    2  A    between atoms: C_14  and  C_15 
REMARK    3  A    between atoms: N_20  and  C_21 
REMARK    4  A    between atoms: C_21  and  C_22 
REMARK    5  A    between atoms: C_22  and  O_23 
REMARK    6  A    between atoms: C_22  and  C_24 
REMARK    7  A    between atoms: C_24  and  N_25 
REMARK    8  A    between atoms: N_25  and  C_27 
REMARK    9  A    between atoms: N_25  and  C_34 
REMARK   10  A    between atoms: C_27  and  C_28 
REMARK   11  A    between atoms: C_34  and  C_35 
ROOT
HETATM    1  C   UNL     1      41.893  -9.447   0.030  1.00  0.00     0.163 C 
HETATM    2  N   UNL     1      41.697 -10.845  -0.322  1.00  0.00    -0.285 N 
HETATM    3  C   UNL     1      42.223 -11.355  -1.510  1.00  0.00     0.332 A 
HETATM    4  O   UNL     1      42.855 -10.647  -2.297  1.00  0.00    -0.246 OA
HETATM    5  N   UNL     1      42.004 -12.724  -1.770  1.00  0.00    -0.269 N 
HETATM    6  C   UNL     1      42.541 -13.281  -2.998  1.00  0.00     0.164 C 
HETATM    7  C   UNL     1      41.308 -13.604  -0.939  1.00  0.00     0.282 A 
HETATM    8  O   UNL     1      41.150 -14.801  -1.170  1.00  0.00    -0.265 OA
HETATM    9  C   UNL     1      40.806 -12.992   0.240  1.00  0.00     0.166 A 
HETATM   10  C   UNL     1      40.995 -11.675   0.519  1.00  0.00     0.186 A 
HETATM   11  N   UNL     1      40.433 -11.326   1.703  1.00  0.00    -0.044 NA
HETATM   12  C   UNL     1      39.874 -12.424   2.164  1.00  0.00     0.705 A 
HETATM   13  N   UNL     1      39.185 -12.561   3.310  1.00  0.00    -0.218 N 
HETATM   14  N   UNL     1      40.115 -13.489   1.316  1.00  0.00    -0.170 N 
HETATM   15  H   UNL     1      38.520 -13.314   3.459  1.00  0.00     0.178 HD
ENDROOT
BRANCH  14  16
HETATM   16  C   UNL     1      39.793 -14.889   1.556  1.00  0.00     0.181 C 
BRANCH  16  17
HETATM   17  C   UNL     1      40.647 -15.501   2.677  1.00  0.00     0.163 C 
BRANCH  17  18
HETATM   18  O   UNL     1      39.908 -15.531   3.907  1.00  0.00    -0.392 OA
HETATM   19  H   UNL     1      40.425 -15.983   4.604  1.00  0.00     0.210 HD
ENDBRANCH  17  18
BRANCH  17  20
HETATM   20  C   UNL     1      41.057 -16.971   2.422  1.00  0.00     0.268 C 
BRANCH  20  21
HETATM   21  N   UNL     1      42.365 -17.447   3.018  1.00  0.00    -0.061 N 
HETATM   22  H   UNL     1      42.141 -18.100   3.773  1.00  0.00     0.280 HD
BRANCH  21  23
HETATM   23  C   UNL     1      43.283 -18.198   2.069  1.00  0.00     0.273 C 
BRANCH  23  24
HETATM   24  C   UNL     1      43.737 -19.563   2.513  1.00  0.00    -0.033 A 
HETATM   25  C   UNL     1      44.372 -19.739   3.753  1.00  0.00     0.009 A 
HETATM   26  C   UNL     1      44.808 -21.003   4.155  1.00  0.00     0.001 A 
HETATM   27  C   UNL     1      44.607 -22.106   3.331  1.00  0.00     0.000 A 
HETATM   28  C   UNL     1      43.959 -21.951   2.109  1.00  0.00     0.001 A 
HETATM   29  C   UNL     1      43.521 -20.689   1.704  1.00  0.00     0.009 A 
ENDBRANCH  23  24
ENDBRANCH  21  23
BRANCH  21  30
HETATM   30  C   UNL     1      43.106 -16.309   3.707  1.00  0.00     0.273 C 
BRANCH  30  31
HETATM   31  C   UNL     1      43.192 -16.456   5.203  1.00  0.00    -0.033 A 
HETATM   32  C   UNL     1      43.928 -15.547   5.980  1.00  0.00     0.009 A 
HETATM   33  C   UNL     1      44.017 -15.715   7.362  1.00  0.00     0.001 A 
HETATM   34  C   UNL     1      43.374 -16.784   7.983  1.00  0.00     0.000 A 
HETATM   35  C   UNL     1      42.635 -17.687   7.225  1.00  0.00     0.001 A 
HETATM   36  C   UNL     1      42.541 -17.525   5.843  1.00  0.00     0.009 A 
ENDBRANCH  30  31
ENDBRANCH  21  30
ENDBRANCH  20  21
ENDBRANCH  17  20
ENDBRANCH  16  17
ENDBRANCH  14  16
BRANCH  13  37
HETATM   37  C   UNL     1      38.725 -11.348   3.987  1.00  0.00     0.203 C 
BRANCH  37  38
HETATM   38  C   UNL     1      39.323 -11.166   5.346  1.00  0.00     0.070 A 
HETATM   39  O   UNL     1      38.862 -10.114   6.094  1.00  0.00    -0.325 OA
HETATM   40  C   UNL     1      39.549 -10.132   7.266  1.00  0.00     0.142 A 
HETATM   41  C   UNL     1      40.449 -11.171   7.281  1.00  0.00     0.027 A 
HETATM   42  C   UNL     1      40.304 -11.840   6.043  1.00  0.00     0.036 A 
ENDBRANCH  37  38
ENDBRANCH  13  37
TORSDOF 11
ENDMDL
MODEL 10
REMARK VINA RESULT:      -8.0      3.382      7.579
REMARK  11 active torsions:
REMARK  status: ('A' for Active; 'I' for Inactive)
REMARK    1  A    between atoms: N_13  and  C_14 
REMARK    2  A    between atoms: C_14  and  C_15 
REMARK    3  A    between atoms: N_20  and  C_21 
REMARK    4  A    between atoms: C_21  and  C_22 
REMARK    5  A    between atoms: C_22  and  O_23 
REMARK    6  A    between atoms: C_22  and  C_24 
REMARK    7  A    between atoms: C_24  and  N_25 
REMARK    8  A    between atoms: N_25  and  C_27 
REMARK    9  A    between atoms: N_25  and  C_34 
REMARK   10  A    between atoms: C_27  and  C_28 
REMARK   11  A    between atoms: C_34  and  C_35 
ROOT
HETATM    1  C   UNL     1      40.670  -9.064   3.135  1.00  0.00     0.163 C 
HETATM    2  N   UNL     1      40.271 -10.462   3.149  1.00  0.00    -0.285 N 
HETATM    3  C   UNL     1      39.560 -11.006   2.077  1.00  0.00     0.332 A 
HETATM    4  O   UNL     1      39.242 -10.326   1.098  1.00  0.00    -0.246 OA
HETATM    5  N   UNL     1      39.225 -12.374   2.161  1.00  0.00    -0.269 N 
HETATM    6  C   UNL     1      38.488 -12.964   1.059  1.00  0.00     0.164 C 
HETATM    7  C   UNL     1      39.546 -13.222   3.222  1.00  0.00     0.282 A 
HETATM    8  O   UNL     1      39.268 -14.418   3.264  1.00  0.00    -0.265 OA
HETATM    9  C   UNL     1      40.261 -12.577   4.265  1.00  0.00     0.166 A 
HETATM   10  C   UNL     1      40.596 -11.260   4.219  1.00  0.00     0.186 A 
HETATM   11  N   UNL     1      41.284 -10.877   5.325  1.00  0.00    -0.044 NA
HETATM   12  C   UNL     1      41.368 -11.953   6.076  1.00  0.00     0.705 A 
HETATM   13  N   UNL     1      41.956 -12.054   7.281  1.00  0.00    -0.218 N 
HETATM   14  N   UNL     1      40.789 -13.039   5.445  1.00  0.00    -0.170 N 
HETATM   15  H   UNL     1      41.721 -12.788   7.942  1.00  0.00     0.178 HD
ENDROOT
BRANCH  14  16
HETATM   16  C   UNL     1      40.818 -14.426   5.887  1.00  0.00     0.181 C 
BRANCH  16  17
HETATM   17  C   UNL     1      42.135 -15.128   5.525  1.00  0.00     0.163 C 
BRANCH  17  18
HETATM   18  O   UNL     1      43.032 -15.118   6.646  1.00  0.00    -0.392 OA
HETATM   19  H   UNL     1      43.783 -15.723   6.487  1.00  0.00     0.210 HD
ENDBRANCH  17  18
BRANCH  17  20
HETATM   20  C   UNL     1      41.971 -16.622   5.159  1.00  0.00     0.268 C 
BRANCH  20  21
HETATM   21  N   UNL     1      42.886 -17.188   4.094  1.00  0.00    -0.061 N 
HETATM   22  H   UNL     1      42.334 -17.833   3.522  1.00  0.00     0.280 HD
BRANCH  21  23
HETATM   23  C   UNL     1      43.479 -16.173   3.131  1.00  0.00     0.273 C 
BRANCH  23  24
HETATM   24  C   UNL     1      42.670 -15.861   1.902  1.00  0.00    -0.033 A 
HETATM   25  C   UNL     1      42.469 -14.532   1.493  1.00  0.00     0.009 A 
HETATM   26  C   UNL     1      41.703 -14.244   0.362  1.00  0.00     0.001 A 
HETATM   27  C   UNL     1      41.139 -15.277  -0.380  1.00  0.00     0.000 A 
HETATM   28  C   UNL     1      41.348 -16.599  -0.002  1.00  0.00     0.001 A 
HETATM   29  C   UNL     1      42.113 -16.891   1.129  1.00  0.00     0.009 A 
ENDBRANCH  23  24
ENDBRANCH  21  23
BRANCH  21  30
HETATM   30  C   UNL     1      43.975 -18.060   4.706  1.00  0.00     0.273 C 
BRANCH  30  31
HETATM   31  C   UNL     1      44.096 -19.419   4.067  1.00  0.00    -0.033 A 
HETATM   32  C   UNL     1      44.591 -20.517   4.789  1.00  0.00     0.009 A 
HETATM   33  C   UNL     1      44.721 -21.762   4.172  1.00  0.00     0.001 A 
HETATM   34  C   UNL     1      44.358 -21.926   2.838  1.00  0.00     0.000 A 
HETATM   35  C   UNL     1      43.858 -20.847   2.114  1.00  0.00     0.001 A 
HETATM   36  C   UNL     1      43.726 -19.600   2.724  1.00  0.00     0.009 A 
ENDBRANCH  30  31
ENDBRANCH  21  30
ENDBRANCH  20  21
ENDBRANCH  17  20
ENDBRANCH  16  17
ENDBRANCH  14  16
BRANCH  13  37
HETATM   37  C   UNL     1      42.271 -10.819   7.999  1.00  0.00     0.203 C 
BRANCH  37  38
HETATM   38  C   UNL     1      43.205 -11.026   9.150  1.00  0.00     0.070 A 
HETATM   39  O   UNL     1      44.544 -11.093   8.863  1.00  0.00    -0.325 OA
HETATM   40  C   UNL     1      45.190 -11.300  10.039  1.00  0.00     0.142 A 
HETATM   41  C   UNL     1      44.291 -11.375  11.077  1.00  0.00     0.027 A 
HETATM   42  C   UNL     1      43.009 -11.198  10.505  1.00  0.00     0.036 A 
ENDBRANCH  37  38
ENDBRANCH  13  37
TORSDOF 11
ENDMDL
