MODEL 1
REMARK VINA RESULT:      -7.7      0.000      0.000
REMARK  7 active torsions:
REMARK  status: ('A' for Active; 'I' for Inactive)
REMARK    1  A    between atoms: C_2  and  C_3 
REMARK    2  A    between atoms: C_3  and  N_4 
REMARK    3  A    between atoms: N_4  and  C_5 
REMARK    4  A    between atoms: C_7  and  N_8 
REMARK    5  A    between atoms: N_8  and  C_9 
REMARK    6  A    between atoms: C_9  and  C_10 
REMARK    7  A    between atoms: C_11  and  O_12 
ROOT
HETATM    1  C   UNL     1      43.974 -18.542   3.343  1.00  0.00     0.134 A 
HETATM    2  N   UNL     1      44.169 -17.933   4.529  1.00  0.00    -0.052 NA
HETATM    3  C   UNL     1      44.518 -18.691   5.579  1.00  0.00     0.702 A 
HETATM    4  N   UNL     1      44.678 -20.008   5.499  1.00  0.00    -0.189 N 
HETATM    5  H   UNL     1      44.992 -20.499   6.324  1.00  0.00     0.184 HD
HETATM    6  C   UNL     1      44.526 -20.658   4.337  1.00  0.00     0.062 A 
HETATM    7  C   UNL     1      44.168 -19.930   3.186  1.00  0.00     0.032 A 
HETATM    8  C   UNL     1      44.760 -22.039   4.266  1.00  0.00     0.031 A 
HETATM    9  C   UNL     1      44.652 -22.710   3.048  1.00  0.00     0.002 A 
HETATM   10  C   UNL     1      44.310 -22.006   1.897  1.00  0.00     0.001 A 
HETATM   11  C   UNL     1      44.070 -20.632   1.961  1.00  0.00     0.017 A 
ENDROOT
BRANCH   3  12
HETATM   12  N   UNL     1      44.849 -18.021   6.733  1.00  0.00    -0.220 N 
HETATM   13  H   UNL     1      45.629 -17.397   6.535  1.00  0.00     0.178 HD
BRANCH  12  14
HETATM   14  C   UNL     1      43.860 -17.455   7.637  1.00  0.00     0.179 C 
BRANCH  14  15
HETATM   15  C   UNL     1      42.883 -16.492   6.994  1.00  0.00    -0.007 A 
HETATM   16  C   UNL     1      43.360 -15.254   6.510  1.00  0.00     0.076 A 
HETATM   17  C   UNL     1      42.502 -14.393   5.815  1.00  0.00     0.037 A 
HETATM   18  C   UNL     1      41.179 -14.759   5.577  1.00  0.00     0.003 A 
HETATM   19  C   UNL     1      40.701 -15.982   6.035  1.00  0.00     0.001 A 
HETATM   20  C   UNL     1      41.547 -16.846   6.731  1.00  0.00     0.011 A 
BRANCH  16  21
HETATM   21  O   UNL     1      44.678 -14.974   6.777  1.00  0.00    -0.355 OA
HETATM   22  C   UNL     1      44.958 -13.700   7.356  1.00  0.00     0.210 C 
ENDBRANCH  16  21
ENDBRANCH  14  15
ENDBRANCH  12  14
ENDBRANCH   3  12
BRANCH   1  23
HETATM   23  N   UNL     1      43.659 -17.763   2.224  1.00  0.00    -0.276 NA
HETATM   24  H   UNL     1      43.391 -18.345   1.432  1.00  0.00     0.129 HD
BRANCH  23  25
HETATM   25  C   UNL     1      42.723 -16.657   2.422  1.00  0.00     0.093 C 
BRANCH  25  26
HETATM   26  C   UNL     1      41.296 -17.197   2.542  1.00  0.00     0.010 C 
HETATM   27  C   UNL     1      40.248 -16.186   2.095  1.00  0.00     0.006 C 
ENDBRANCH  25  26
ENDBRANCH  23  25
ENDBRANCH   1  23
TORSDOF 7
ENDMDL
MODEL 2
REMARK VINA RESULT:      -7.5      1.863      6.603
REMARK  7 active torsions:
REMARK  status: ('A' for Active; 'I' for Inactive)
REMARK    1  A    between atoms: C_2  and  C_3 
REMARK    2  A    between atoms: C_3  and  N_4 
REMARK    3  A    between atoms: N_4  and  C_5 
REMARK    4  A    between atoms: C_7  and  N_8 
REMARK    5  A    between atoms: N_8  and  C_9 
REMARK    6  A    between atoms: C_9  and  C_10 
REMARK    7  A    between atoms: C_11  and  O_12 
ROOT
HETATM    1  C   UNL     1      43.661 -15.200   6.880  1.00  0.00     0.134 A 
HETATM    2  N   UNL     1      43.982 -16.506   6.962  1.00  0.00    -0.052 NA
HETATM    3  C   UNL     1      43.472 -17.341   6.046  1.00  0.00     0.702 A 
HETATM    4  N   UNL     1      42.667 -16.937   5.068  1.00  0.00    -0.189 N 
HETATM    5  H   UNL     1      42.365 -17.621   4.388  1.00  0.00     0.184 HD
HETATM    6  C   UNL     1      42.341 -15.646   4.924  1.00  0.00     0.062 A 
HETATM    7  C   UNL     1      42.845 -14.705   5.841  1.00  0.00     0.032 A 
HETATM    8  C   UNL     1      41.539 -15.237   3.847  1.00  0.00     0.031 A 
HETATM    9  C   UNL     1      41.240 -13.887   3.666  1.00  0.00     0.002 A 
HETATM   10  C   UNL     1      41.738 -12.940   4.556  1.00  0.00     0.001 A 
HETATM   11  C   UNL     1      42.532 -13.340   5.633  1.00  0.00     0.017 A 
ENDROOT
BRANCH   3  12
HETATM   12  N   UNL     1      43.934 -18.636   6.073  1.00  0.00    -0.220 N 
HETATM   13  H   UNL     1      43.134 -19.265   6.117  1.00  0.00     0.178 HD
BRANCH  12  14
HETATM   14  C   UNL     1      45.012 -19.116   5.223  1.00  0.00     0.179 C 
BRANCH  14  15
HETATM   15  C   UNL     1      44.588 -20.088   4.142  1.00  0.00    -0.007 A 
HETATM   16  C   UNL     1      44.125 -19.580   2.907  1.00  0.00     0.076 A 
HETATM   17  C   UNL     1      43.830 -20.453   1.854  1.00  0.00     0.037 A 
HETATM   18  C   UNL     1      44.011 -21.827   2.006  1.00  0.00     0.003 A 
HETATM   19  C   UNL     1      44.482 -22.338   3.211  1.00  0.00     0.001 A 
HETATM   20  C   UNL     1      44.776 -21.476   4.268  1.00  0.00     0.011 A 
BRANCH  16  21
HETATM   21  O   UNL     1      43.983 -18.216   2.836  1.00  0.00    -0.355 OA
HETATM   22  C   UNL     1      44.064 -17.630   1.537  1.00  0.00     0.210 C 
ENDBRANCH  16  21
ENDBRANCH  14  15
ENDBRANCH  12  14
ENDBRANCH   3  12
BRANCH   1  23
HETATM   23  N   UNL     1      44.224 -14.304   7.796  1.00  0.00    -0.276 NA
HETATM   24  H   UNL     1      44.330 -14.731   8.714  1.00  0.00     0.129 HD
BRANCH  23  25
HETATM   25  C   UNL     1      45.439 -13.604   7.384  1.00  0.00     0.093 C 
BRANCH  25  26
HETATM   26  C   UNL     1      45.752 -12.476   8.371  1.00  0.00     0.010 C 
HETATM   27  C   UNL     1      44.719 -12.369   9.485  1.00  0.00     0.006 C 
ENDBRANCH  25  26
ENDBRANCH  23  25
ENDBRANCH   1  23
TORSDOF 7
ENDMDL
MODEL 3
REMARK VINA RESULT:      -7.4      2.215      6.137
REMARK  7 active torsions:
REMARK  status: ('A' for Active; 'I' for Inactive)
REMARK    1  A    between atoms: C_2  and  C_3 
REMARK    2  A    between atoms: C_3  and  N_4 
REMARK    3  A    between atoms: N_4  and  C_5 
REMARK    4  A    between atoms: C_7  and  N_8 
REMARK    5  A    between atoms: N_8  and  C_9 
REMARK    6  A    between atoms: C_9  and  C_10 
REMARK    7  A    between atoms: C_11  and  O_12 
ROOT
HETATM    1  C   UNL     1      40.650 -15.952   1.740  1.00  0.00     0.134 A 
HETATM    2  N   UNL     1      41.332 -17.053   1.368  1.00  0.00    -0.052 NA
HETATM    3  C   UNL     1      41.994 -17.736   2.313  1.00  0.00     0.702 A 
HETATM    4  N   UNL     1      42.007 -17.374   3.592  1.00  0.00    -0.189 N 
HETATM    5  H   UNL     1      42.488 -17.970   4.249  1.00  0.00     0.184 HD
HETATM    6  C   UNL     1      41.320 -16.305   4.019  1.00  0.00     0.062 A 
HETATM    7  C   UNL     1      40.591 -15.541   3.088  1.00  0.00     0.032 A 
HETATM    8  C   UNL     1      41.301 -15.980   5.384  1.00  0.00     0.031 A 
HETATM    9  C   UNL     1      40.546 -14.898   5.838  1.00  0.00     0.002 A 
HETATM   10  C   UNL     1      39.810 -14.138   4.935  1.00  0.00     0.001 A 
HETATM   11  C   UNL     1      39.830 -14.452   3.574  1.00  0.00     0.017 A 
ENDROOT
BRANCH   3  12
HETATM   12  N   UNL     1      42.557 -18.929   1.924  1.00  0.00    -0.220 N 
HETATM   13  H   UNL     1      42.141 -19.210   1.038  1.00  0.00     0.178 HD
BRANCH  12  14
HETATM   14  C   UNL     1      43.982 -19.206   2.018  1.00  0.00     0.179 C 
BRANCH  14  15
HETATM   15  C   UNL     1      44.354 -20.326   2.966  1.00  0.00    -0.007 A 
HETATM   16  C   UNL     1      44.513 -20.035   4.340  1.00  0.00     0.076 A 
HETATM   17  C   UNL     1      44.750 -21.069   5.254  1.00  0.00     0.037 A 
HETATM   18  C   UNL     1      44.811 -22.392   4.821  1.00  0.00     0.003 A 
HETATM   19  C   UNL     1      44.640 -22.693   3.474  1.00  0.00     0.001 A 
HETATM   20  C   UNL     1      44.406 -21.670   2.554  1.00  0.00     0.011 A 
BRANCH  16  21
HETATM   21  O   UNL     1      44.430 -18.709   4.686  1.00  0.00    -0.355 OA
HETATM   22  C   UNL     1      44.859 -18.360   6.001  1.00  0.00     0.210 C 
ENDBRANCH  16  21
ENDBRANCH  14  15
ENDBRANCH  12  14
ENDBRANCH   3  12
BRANCH   1  23
HETATM   23  N   UNL     1      39.910 -15.254   0.778  1.00  0.00    -0.276 NA
HETATM   24  H   UNL     1      38.955 -15.093   1.091  1.00  0.00     0.129 HD
BRANCH  23  25
HETATM   25  C   UNL     1      40.509 -14.040   0.226  1.00  0.00     0.093 C 
BRANCH  25  26
HETATM   26  C   UNL     1      41.487 -14.403  -0.894  1.00  0.00     0.010 C 
HETATM   27  C   UNL     1      40.855 -15.291  -1.958  1.00  0.00     0.006 C 
ENDBRANCH  25  26
ENDBRANCH  23  25
ENDBRANCH   1  23
TORSDOF 7
ENDMDL
MODEL 4
REMARK VINA RESULT:      -7.3      2.216      4.835
REMARK  7 active torsions:
REMARK  status: ('A' for Active; 'I' for Inactive)
REMARK    1  A    between atoms: C_2  and  C_3 
REMARK    2  A    between atoms: C_3  and  N_4 
REMARK    3  A    between atoms: N_4  and  C_5 
REMARK    4  A    between atoms: C_7  and  N_8 
REMARK    5  A    between atoms: N_8  and  C_9 
REMARK    6  A    between atoms: C_9  and  C_10 
REMARK    7  A    between atoms: C_11  and  O_12 
ROOT
HETATM    1  C   UNL     1      44.256 -18.550   4.307  1.00  0.00     0.134 A 
HETATM    2  N   UNL     1      43.902 -17.756   3.277  1.00  0.00    -0.052 NA
HETATM    3  C   UNL     1      43.741 -18.320   2.071  1.00  0.00     0.702 A 
HETATM    4  N   UNL     1      43.917 -19.619   1.851  1.00  0.00    -0.189 N 
HETATM    5  H   UNL     1      43.727 -19.973   0.924  1.00  0.00     0.184 HD
HETATM    6  C   UNL     1      44.240 -20.456   2.846  1.00  0.00     0.062 A 
HETATM    7  C   UNL     1      44.417 -19.942   4.145  1.00  0.00     0.032 A 
HETATM    8  C   UNL     1      44.359 -21.832   2.599  1.00  0.00     0.031 A 
HETATM    9  C   UNL     1      44.646 -22.712   3.643  1.00  0.00     0.002 A 
HETATM   10  C   UNL     1      44.813 -22.224   4.935  1.00  0.00     0.001 A 
HETATM   11  C   UNL     1      44.702 -20.855   5.187  1.00  0.00     0.017 A 
ENDROOT
BRANCH   3  12
HETATM   12  N   UNL     1      43.241 -17.510   1.079  1.00  0.00    -0.220 N 
HETATM   13  H   UNL     1      43.662 -17.785   0.193  1.00  0.00     0.178 HD
BRANCH  12  14
HETATM   14  C   UNL     1      41.836 -17.152   0.975  1.00  0.00     0.179 C 
BRANCH  14  15
HETATM   15  C   UNL     1      41.567 -15.770   0.416  1.00  0.00    -0.007 A 
HETATM   16  C   UNL     1      41.811 -14.642   1.231  1.00  0.00     0.076 A 
HETATM   17  C   UNL     1      41.676 -13.352   0.705  1.00  0.00     0.037 A 
HETATM   18  C   UNL     1      41.320 -13.170  -0.630  1.00  0.00     0.003 A 
HETATM   19  C   UNL     1      41.093 -14.272  -1.447  1.00  0.00     0.001 A 
HETATM   20  C   UNL     1      41.222 -15.562  -0.932  1.00  0.00     0.011 A 
BRANCH  16  21
HETATM   21  O   UNL     1      42.167 -14.908   2.531  1.00  0.00    -0.355 OA
HETATM   22  C   UNL     1      43.300 -14.206   3.042  1.00  0.00     0.210 C 
ENDBRANCH  16  21
ENDBRANCH  14  15
ENDBRANCH  12  14
ENDBRANCH   3  12
BRANCH   1  23
HETATM   23  N   UNL     1      44.379 -17.990   5.584  1.00  0.00    -0.276 NA
HETATM   24  H   UNL     1      45.271 -17.510   5.693  1.00  0.00     0.129 HD
BRANCH  23  25
HETATM   25  C   UNL     1      43.266 -17.174   6.065  1.00  0.00     0.093 C 
BRANCH  25  26
HETATM   26  C   UNL     1      43.131 -17.319   7.583  1.00  0.00     0.010 C 
HETATM   27  C   UNL     1      44.002 -18.435   8.145  1.00  0.00     0.006 C 
ENDBRANCH  25  26
ENDBRANCH  23  25
ENDBRANCH   1  23
TORSDOF 7
ENDMDL
MODEL 5
REMARK VINA RESULT:      -7.2      2.382      4.796
REMARK  7 active torsions:
REMARK  status: ('A' for Active; 'I' for Inactive)
REMARK    1  A    between atoms: C_2  and  C_3 
REMARK    2  A    between atoms: C_3  and  N_4 
REMARK    3  A    between atoms: N_4  and  C_5 
REMARK    4  A    between atoms: C_7  and  N_8 
REMARK    5  A    between atoms: N_8  and  C_9 
REMARK    6  A    between atoms: C_9  and  C_10 
REMARK    7  A    between atoms: C_11  and  O_12 
ROOT
HETATM    1  C   UNL     1      44.087 -18.502   4.256  1.00  0.00     0.134 A 
HETATM    2  N   UNL     1      43.599 -17.730   3.265  1.00  0.00    -0.052 NA
HETATM    3  C   UNL     1      43.373 -18.301   2.073  1.00  0.00     0.702 A 
HETATM    4  N   UNL     1      43.610 -19.586   1.829  1.00  0.00    -0.189 N 
HETATM    5  H   UNL     1      43.366 -19.949   0.919  1.00  0.00     0.184 HD
HETATM    6  C   UNL     1      44.067 -20.403   2.788  1.00  0.00     0.062 A 
HETATM    7  C   UNL     1      44.320 -19.881   4.071  1.00  0.00     0.032 A 
HETATM    8  C   UNL     1      44.252 -21.768   2.521  1.00  0.00     0.031 A 
HETATM    9  C   UNL     1      44.679 -22.630   3.531  1.00  0.00     0.002 A 
HETATM   10  C   UNL     1      44.923 -22.135   4.809  1.00  0.00     0.001 A 
HETATM   11  C   UNL     1      44.748 -20.776   5.079  1.00  0.00     0.017 A 
ENDROOT
BRANCH   3  12
HETATM   12  N   UNL     1      42.742 -17.522   1.132  1.00  0.00    -0.220 N 
HETATM   13  H   UNL     1      43.192 -17.673   0.231  1.00  0.00     0.178 HD
BRANCH  12  14
HETATM   14  C   UNL     1      41.296 -17.384   1.050  1.00  0.00     0.179 C 
BRANCH  14  15
HETATM   15  C   UNL     1      40.769 -15.993   1.334  1.00  0.00    -0.007 A 
HETATM   16  C   UNL     1      40.708 -15.055   0.280  1.00  0.00     0.076 A 
HETATM   17  C   UNL     1      40.126 -13.800   0.488  1.00  0.00     0.037 A 
HETATM   18  C   UNL     1      39.583 -13.472   1.730  1.00  0.00     0.003 A 
HETATM   19  C   UNL     1      39.623 -14.393   2.771  1.00  0.00     0.001 A 
HETATM   20  C   UNL     1      40.204 -15.646   2.575  1.00  0.00     0.011 A 
BRANCH  16  21
HETATM   21  O   UNL     1      41.256 -15.459  -0.914  1.00  0.00    -0.355 OA
HETATM   22  C   UNL     1      40.787 -14.801  -2.090  1.00  0.00     0.210 C 
ENDBRANCH  16  21
ENDBRANCH  14  15
ENDBRANCH  12  14
ENDBRANCH   3  12
BRANCH   1  23
HETATM   23  N   UNL     1      44.281 -17.938   5.522  1.00  0.00    -0.276 NA
HETATM   24  H   UNL     1      45.271 -17.800   5.718  1.00  0.00     0.129 HD
BRANCH  23  25
HETATM   25  C   UNL     1      43.495 -16.750   5.852  1.00  0.00     0.093 C 
BRANCH  25  26
HETATM   26  C   UNL     1      42.301 -17.141   6.725  1.00  0.00     0.010 C 
HETATM   27  C   UNL     1      40.969 -16.981   6.003  1.00  0.00     0.006 C 
ENDBRANCH  25  26
ENDBRANCH  23  25
ENDBRANCH   1  23
TORSDOF 7
ENDMDL
MODEL 6
REMARK VINA RESULT:      -7.1      1.861      3.938
REMARK  7 active torsions:
REMARK  status: ('A' for Active; 'I' for Inactive)
REMARK    1  A    between atoms: C_2  and  C_3 
REMARK    2  A    between atoms: C_3  and  N_4 
REMARK    3  A    between atoms: N_4  and  C_5 
REMARK    4  A    between atoms: C_7  and  N_8 
REMARK    5  A    between atoms: N_8  and  C_9 
REMARK    6  A    between atoms: C_9  and  C_10 
REMARK    7  A    between atoms: C_11  and  O_12 
ROOT
HETATM    1  C   UNL     1      44.296 -18.569   4.613  1.00  0.00     0.134 A 
HETATM    2  N   UNL     1      43.715 -17.546   3.955  1.00  0.00    -0.052 NA
HETATM    3  C   UNL     1      43.252 -17.772   2.717  1.00  0.00     0.702 A 
HETATM    4  N   UNL     1      43.343 -18.954   2.116  1.00  0.00    -0.189 N 
HETATM    5  H   UNL     1      42.925 -19.055   1.202  1.00  0.00     0.184 HD
HETATM    6  C   UNL     1      43.884 -20.011   2.737  1.00  0.00     0.062 A 
HETATM    7  C   UNL     1      44.384 -19.856   4.044  1.00  0.00     0.032 A 
HETATM    8  C   UNL     1      43.912 -21.262   2.103  1.00  0.00     0.031 A 
HETATM    9  C   UNL     1      44.429 -22.375   2.767  1.00  0.00     0.002 A 
HETATM   10  C   UNL     1      44.918 -22.245   4.063  1.00  0.00     0.001 A 
HETATM   11  C   UNL     1      44.898 -21.001   4.698  1.00  0.00     0.017 A 
ENDROOT
BRANCH   3  12
HETATM   12  N   UNL     1      42.540 -16.750   2.134  1.00  0.00    -0.220 N 
HETATM   13  H   UNL     1      41.549 -16.978   2.184  1.00  0.00     0.178 HD
BRANCH  12  14
HETATM   14  C   UNL     1      42.832 -15.344   2.362  1.00  0.00     0.179 C 
BRANCH  14  15
HETATM   15  C   UNL     1      42.069 -14.709   3.506  1.00  0.00    -0.007 A 
HETATM   16  C   UNL     1      40.664 -14.857   3.556  1.00  0.00     0.076 A 
HETATM   17  C   UNL     1      39.946 -14.375   4.657  1.00  0.00     0.037 A 
HETATM   18  C   UNL     1      40.611 -13.765   5.719  1.00  0.00     0.003 A 
HETATM   19  C   UNL     1      41.995 -13.628   5.689  1.00  0.00     0.001 A 
HETATM   20  C   UNL     1      42.720 -14.102   4.595  1.00  0.00     0.011 A 
BRANCH  16  21
HETATM   21  O   UNL     1      40.087 -15.477   2.476  1.00  0.00    -0.355 OA
HETATM   22  C   UNL     1      39.056 -14.760   1.799  1.00  0.00     0.210 C 
ENDBRANCH  16  21
ENDBRANCH  14  15
ENDBRANCH  12  14
ENDBRANCH   3  12
BRANCH   1  23
HETATM   23  N   UNL     1      44.739 -18.367   5.926  1.00  0.00    -0.276 NA
HETATM   24  H   UNL     1      45.743 -18.521   6.004  1.00  0.00     0.129 HD
BRANCH  23  25
HETATM   25  C   UNL     1      44.330 -17.128   6.585  1.00  0.00     0.093 C 
BRANCH  25  26
HETATM   26  C   UNL     1      43.171 -17.407   7.545  1.00  0.00     0.010 C 
HETATM   27  C   UNL     1      41.814 -17.078   6.936  1.00  0.00     0.006 C 
ENDBRANCH  25  26
ENDBRANCH  23  25
ENDBRANCH   1  23
TORSDOF 7
ENDMDL
MODEL 7
REMARK VINA RESULT:      -7.1      3.352      6.833
REMARK  7 active torsions:
REMARK  status: ('A' for Active; 'I' for Inactive)
REMARK    1  A    between atoms: C_2  and  C_3 
REMARK    2  A    between atoms: C_3  and  N_4 
REMARK    3  A    between atoms: N_4  and  C_5 
REMARK    4  A    between atoms: C_7  and  N_8 
REMARK    5  A    between atoms: N_8  and  C_9 
REMARK    6  A    between atoms: C_9  and  C_10 
REMARK    7  A    between atoms: C_11  and  O_12 
ROOT
HETATM    1  C   UNL     1      42.769 -18.659   2.841  1.00  0.00     0.134 A 
HETATM    2  N   UNL     1      42.123 -18.151   1.772  1.00  0.00    -0.052 NA
HETATM    3  C   UNL     1      41.184 -17.219   1.986  1.00  0.00     0.702 A 
HETATM    4  N   UNL     1      40.865 -16.779   3.199  1.00  0.00    -0.189 N 
HETATM    5  H   UNL     1      40.182 -16.038   3.271  1.00  0.00     0.184 HD
HETATM    6  C   UNL     1      41.498 -17.228   4.291  1.00  0.00     0.062 A 
HETATM    7  C   UNL     1      42.504 -18.202   4.148  1.00  0.00     0.032 A 
HETATM    8  C   UNL     1      41.185 -16.702   5.554  1.00  0.00     0.031 A 
HETATM    9  C   UNL     1      41.877 -17.132   6.686  1.00  0.00     0.002 A 
HETATM   10  C   UNL     1      42.883 -18.086   6.564  1.00  0.00     0.001 A 
HETATM   11  C   UNL     1      43.196 -18.618   5.311  1.00  0.00     0.017 A 
ENDROOT
BRANCH   3  12
HETATM   12  N   UNL     1      40.649 -16.622   0.869  1.00  0.00    -0.220 N 
HETATM   13  H   UNL     1      39.721 -16.273   1.101  1.00  0.00     0.178 HD
BRANCH  12  14
HETATM   14  C   UNL     1      41.408 -15.738  -0.002  1.00  0.00     0.179 C 
BRANCH  14  15
HETATM   15  C   UNL     1      40.619 -15.140  -1.149  1.00  0.00    -0.007 A 
HETATM   16  C   UNL     1      39.590 -14.215  -0.863  1.00  0.00     0.076 A 
HETATM   17  C   UNL     1      38.919 -13.566  -1.906  1.00  0.00     0.037 A 
HETATM   18  C   UNL     1      39.273 -13.810  -3.232  1.00  0.00     0.003 A 
HETATM   19  C   UNL     1      40.296 -14.706  -3.525  1.00  0.00     0.001 A 
HETATM   20  C   UNL     1      40.969 -15.362  -2.493  1.00  0.00     0.011 A 
BRANCH  16  21
HETATM   21  O   UNL     1      39.309 -14.024   0.467  1.00  0.00    -0.355 OA
HETATM   22  C   UNL     1      37.940 -14.131   0.856  1.00  0.00     0.210 C 
ENDBRANCH  16  21
ENDBRANCH  14  15
ENDBRANCH  12  14
ENDBRANCH   3  12
BRANCH   1  23
HETATM   23  N   UNL     1      43.789 -19.596   2.635  1.00  0.00    -0.276 NA
HETATM   24  H   UNL     1      44.226 -19.866   3.514  1.00  0.00     0.129 HD
BRANCH  23  25
HETATM   25  C   UNL     1      43.469 -20.760   1.811  1.00  0.00     0.093 C 
BRANCH  25  26
HETATM   26  C   UNL     1      44.479 -21.880   2.077  1.00  0.00     0.010 C 
HETATM   27  C   UNL     1      44.542 -22.276   3.546  1.00  0.00     0.006 C 
ENDBRANCH  25  26
ENDBRANCH  23  25
ENDBRANCH   1  23
TORSDOF 7
ENDMDL
MODEL 8
REMARK VINA RESULT:      -7.0      2.062      4.065
REMARK  7 active torsions:
REMARK  status: ('A' for Active; 'I' for Inactive)
REMARK    1  A    between atoms: C_2  and  C_3 
REMARK    2  A    between atoms: C_3  and  N_4 
REMARK    3  A    between atoms: N_4  and  C_5 
REMARK    4  A    between atoms: C_7  and  N_8 
REMARK    5  A    between atoms: N_8  and  C_9 
REMARK    6  A    between atoms: C_9  and  C_10 
REMARK    7  A    between atoms: C_11  and  O_12 
ROOT
HETATM    1  C   UNL     1      42.636 -17.943   5.423  1.00  0.00     0.134 A 
HETATM    2  N   UNL     1      41.645 -17.143   4.984  1.00  0.00    -0.052 NA
HETATM    3  C   UNL     1      41.372 -17.136   3.672  1.00  0.00     0.702 A 
HETATM    4  N   UNL     1      42.034 -17.880   2.791  1.00  0.00    -0.189 N 
HETATM    5  H   UNL     1      41.734 -17.855   1.827  1.00  0.00     0.184 HD
HETATM    6  C   UNL     1      43.008 -18.715   3.179  1.00  0.00     0.062 A 
HETATM    7  C   UNL     1      43.347 -18.786   4.543  1.00  0.00     0.032 A 
HETATM    8  C   UNL     1      43.650 -19.533   2.238  1.00  0.00     0.031 A 
HETATM    9  C   UNL     1      44.629 -20.440   2.646  1.00  0.00     0.002 A 
HETATM   10  C   UNL     1      44.970 -20.533   3.992  1.00  0.00     0.001 A 
HETATM   11  C   UNL     1      44.340 -19.717   4.933  1.00  0.00     0.017 A 
ENDROOT
BRANCH   3  12
HETATM   12  N   UNL     1      40.264 -16.421   3.281  1.00  0.00    -0.220 N 
HETATM   13  H   UNL     1      39.480 -16.689   3.873  1.00  0.00     0.178 HD
BRANCH  12  14
HETATM   14  C   UNL     1      40.303 -15.002   2.964  1.00  0.00     0.179 C 
BRANCH  14  15
HETATM   15  C   UNL     1      40.543 -14.089   4.148  1.00  0.00    -0.007 A 
HETATM   16  C   UNL     1      41.678 -13.247   4.145  1.00  0.00     0.076 A 
HETATM   17  C   UNL     1      41.865 -12.317   5.173  1.00  0.00     0.037 A 
HETATM   18  C   UNL     1      40.927 -12.199   6.197  1.00  0.00     0.003 A 
HETATM   19  C   UNL     1      39.798 -13.011   6.203  1.00  0.00     0.001 A 
HETATM   20  C   UNL     1      39.602 -13.944   5.184  1.00  0.00     0.011 A 
BRANCH  16  21
HETATM   21  O   UNL     1      42.548 -13.419   3.097  1.00  0.00    -0.355 OA
HETATM   22  C   UNL     1      43.750 -14.137   3.372  1.00  0.00     0.210 C 
ENDBRANCH  16  21
ENDBRANCH  14  15
ENDBRANCH  12  14
ENDBRANCH   3  12
BRANCH   1  23
HETATM   23  N   UNL     1      42.903 -18.004   6.796  1.00  0.00    -0.276 NA
HETATM   24  H   UNL     1      43.623 -18.693   7.003  1.00  0.00     0.129 HD
BRANCH  23  25
HETATM   25  C   UNL     1      43.153 -16.738   7.483  1.00  0.00     0.093 C 
BRANCH  25  26
HETATM   26  C   UNL     1      44.346 -16.025   6.844  1.00  0.00     0.010 C 
HETATM   27  C   UNL     1      44.335 -14.522   7.095  1.00  0.00     0.006 C 
ENDBRANCH  25  26
ENDBRANCH  23  25
ENDBRANCH   1  23
TORSDOF 7
ENDMDL
MODEL 9
REMARK VINA RESULT:      -7.0      2.744      5.539
REMARK  7 active torsions:
REMARK  status: ('A' for Active; 'I' for Inactive)
REMARK    1  A    between atoms: C_2  and  C_3 
REMARK    2  A    between atoms: C_3  and  N_4 
REMARK    3  A    between atoms: N_4  and  C_5 
REMARK    4  A    between atoms: C_7  and  N_8 
REMARK    5  A    between atoms: N_8  and  C_9 
REMARK    6  A    between atoms: C_9  and  C_10 
REMARK    7  A    between atoms: C_11  and  O_12 
ROOT
HETATM    1  C   UNL     1      43.429 -17.782   4.116  1.00  0.00     0.134 A 
HETATM    2  N   UNL     1      42.680 -16.975   3.339  1.00  0.00    -0.052 NA
HETATM    3  C   UNL     1      42.325 -17.418   2.124  1.00  0.00     0.702 A 
HETATM    4  N   UNL     1      42.680 -18.611   1.658  1.00  0.00    -0.189 N 
HETATM    5  H   UNL     1      42.330 -18.890   0.752  1.00  0.00     0.184 HD
HETATM    6  C   UNL     1      43.399 -19.463   2.401  1.00  0.00     0.062 A 
HETATM    7  C   UNL     1      43.803 -19.074   3.692  1.00  0.00     0.032 A 
HETATM    8  C   UNL     1      43.709 -20.739   1.908  1.00  0.00     0.031 A 
HETATM    9  C   UNL     1      44.414 -21.647   2.699  1.00  0.00     0.002 A 
HETATM   10  C   UNL     1      44.812 -21.285   3.983  1.00  0.00     0.001 A 
HETATM   11  C   UNL     1      44.512 -20.014   4.477  1.00  0.00     0.017 A 
ENDROOT
BRANCH   3  12
HETATM   12  N   UNL     1      41.444 -16.632   1.420  1.00  0.00    -0.220 N 
HETATM   13  H   UNL     1      40.636 -17.198   1.167  1.00  0.00     0.178 HD
BRANCH  12  14
HETATM   14  C   UNL     1      41.110 -15.269   1.802  1.00  0.00     0.179 C 
BRANCH  14  15
HETATM   15  C   UNL     1      39.927 -14.672   1.070  1.00  0.00    -0.007 A 
HETATM   16  C   UNL     1      40.078 -14.292  -0.282  1.00  0.00     0.076 A 
HETATM   17  C   UNL     1      38.974 -13.839  -1.013  1.00  0.00     0.037 A 
HETATM   18  C   UNL     1      37.714 -13.778  -0.421  1.00  0.00     0.003 A 
HETATM   19  C   UNL     1      37.549 -14.164   0.905  1.00  0.00     0.001 A 
HETATM   20  C   UNL     1      38.643 -14.614   1.644  1.00  0.00     0.011 A 
BRANCH  16  21
HETATM   21  O   UNL     1      41.349 -14.391  -0.793  1.00  0.00    -0.355 OA
HETATM   22  C   UNL     1      41.461 -14.551  -2.207  1.00  0.00     0.210 C 
ENDBRANCH  16  21
ENDBRANCH  14  15
ENDBRANCH  12  14
ENDBRANCH   3  12
BRANCH   1  23
HETATM   23  N   UNL     1      43.767 -17.358   5.407  1.00  0.00    -0.276 NA
HETATM   24  H   UNL     1      44.478 -16.629   5.382  1.00  0.00     0.129 HD
BRANCH  23  25
HETATM   25  C   UNL     1      42.668 -17.011   6.304  1.00  0.00     0.093 C 
BRANCH  25  26
HETATM   26  C   UNL     1      43.066 -17.300   7.754  1.00  0.00     0.010 C 
HETATM   27  C   UNL     1      44.022 -18.479   7.875  1.00  0.00     0.006 C 
ENDBRANCH  25  26
ENDBRANCH  23  25
ENDBRANCH   1  23
TORSDOF 7
ENDMDL
MODEL 10
REMARK VINA RESULT:      -7.0      2.088      4.565
REMARK  7 active torsions:
REMARK  status: ('A' for Active; 'I' for Inactive)
REMARK    1  A    between atoms: C_2  and  C_3 
REMARK    2  A    between atoms: C_3  and  N_4 
REMARK    3  A    between atoms: N_4  and  C_5 
REMARK    4  A    between atoms: C_7  and  N_8 
REMARK    5  A    between atoms: N_8  and  C_9 
REMARK    6  A    between atoms: C_9  and  C_10 
REMARK    7  A    between atoms: C_11  and  O_12 
ROOT
HETATM    1  C   UNL     1      43.505 -17.840   4.180  1.00  0.00     0.134 A 
HETATM    2  N   UNL     1      42.715 -16.987   3.499  1.00  0.00    -0.052 NA
HETATM    3  C   UNL     1      42.261 -17.369   2.297  1.00  0.00     0.702 A 
HETATM    4  N   UNL     1      42.555 -18.545   1.753  1.00  0.00    -0.189 N 
HETATM    5  H   UNL     1      42.132 -18.777   0.865  1.00  0.00     0.184 HD
HETATM    6  C   UNL     1      43.311 -19.442   2.401  1.00  0.00     0.062 A 
HETATM    7  C   UNL     1      43.819 -19.119   3.673  1.00  0.00     0.032 A 
HETATM    8  C   UNL     1      43.556 -20.699   1.830  1.00  0.00     0.031 A 
HETATM    9  C   UNL     1      44.301 -21.654   2.525  1.00  0.00     0.002 A 
HETATM   10  C   UNL     1      44.801 -21.357   3.788  1.00  0.00     0.001 A 
HETATM   11  C   UNL     1      44.566 -20.105   4.360  1.00  0.00     0.017 A 
ENDROOT
BRANCH   3  12
HETATM   12  N   UNL     1      41.345 -16.537   1.697  1.00  0.00    -0.220 N 
HETATM   13  H   UNL     1      41.455 -16.608   0.687  1.00  0.00     0.178 HD
BRANCH  12  14
HETATM   14  C   UNL     1      39.961 -16.429   2.131  1.00  0.00     0.179 C 
BRANCH  14  15
HETATM   15  C   UNL     1      39.418 -15.017   2.192  1.00  0.00    -0.007 A 
HETATM   16  C   UNL     1      39.818 -14.175   3.254  1.00  0.00     0.076 A 
HETATM   17  C   UNL     1      39.418 -12.834   3.277  1.00  0.00     0.037 A 
HETATM   18  C   UNL     1      38.640 -12.313   2.244  1.00  0.00     0.003 A 
HETATM   19  C   UNL     1      38.254 -13.128   1.185  1.00  0.00     0.001 A 
HETATM   20  C   UNL     1      38.644 -14.467   1.154  1.00  0.00     0.011 A 
BRANCH  16  21
HETATM   21  O   UNL     1      40.590 -14.762   4.226  1.00  0.00    -0.355 OA
HETATM   22  C   UNL     1      41.290 -13.884   5.107  1.00  0.00     0.210 C 
ENDBRANCH  16  21
ENDBRANCH  14  15
ENDBRANCH  12  14
ENDBRANCH   3  12
BRANCH   1  23
HETATM   23  N   UNL     1      43.948 -17.482   5.459  1.00  0.00    -0.276 NA
HETATM   24  H   UNL     1      44.738 -16.841   5.410  1.00  0.00     0.129 HD
BRANCH  23  25
HETATM   25  C   UNL     1      42.938 -17.022   6.411  1.00  0.00     0.093 C 
BRANCH  25  26
HETATM   26  C   UNL     1      43.316 -17.464   7.826  1.00  0.00     0.010 C 
HETATM   27  C   UNL     1      43.971 -18.838   7.856  1.00  0.00     0.006 C 
ENDBRANCH  25  26
ENDBRANCH  23  25
ENDBRANCH   1  23
TORSDOF 7
ENDMDL
