MODEL 1
REMARK VINA RESULT:      -8.3      0.000      0.000
REMARK  6 active torsions:
REMARK  status: ('A' for Active; 'I' for Inactive)
REMARK    1  A    between atoms: C_2  and  C_3 
REMARK    2  A    between atoms: C_2  and  C_18 
REMARK       I    between atoms: C_3  and  N_4 
REMARK    3  A    between atoms: N_4  and  C_5 
REMARK    4  A    between atoms: C_9  and  C_10 
REMARK    5  A    between atoms: C_18  and  C_19 
REMARK    6  A    between atoms: C_22  and  O_23 
ROOT
HETATM    1  C   UNL     1      45.008 -13.421   7.733  1.00  0.00     0.227 C 
HETATM    2  N   UNL     1      44.048 -14.413   7.822  1.00  0.00    -0.312 N 
HETATM    3  O   UNL     1      45.768 -13.291   6.771  1.00  0.00    -0.273 OA
HETATM    4  H   UNL     1      43.481 -14.509   8.654  1.00  0.00     0.170 HD
ENDROOT
BRANCH   2   5
HETATM    5  C   UNL     1      43.845 -15.323   6.803  1.00  0.00     0.126 A 
HETATM    6  N   UNL     1      42.889 -15.202   5.832  1.00  0.00    -0.262 N 
HETATM    7  H   UNL     1      42.235 -14.432   5.719  1.00  0.00     0.191 HD
HETATM    8  N   UNL     1      42.837 -16.253   4.995  1.00  0.00    -0.172 NA
HETATM    9  C   UNL     1      43.832 -17.059   5.402  1.00  0.00     0.092 A 
HETATM   10  C   UNL     1      44.491 -16.505   6.538  1.00  0.00     0.084 A 
BRANCH   9  11
HETATM   11  C   UNL     1      44.113 -18.326   4.732  1.00  0.00     0.012 A 
HETATM   12  C   UNL     1      44.683 -19.402   5.408  1.00  0.00     0.130 A 
HETATM   13  N   UNL     1      44.949 -20.609   4.849  1.00  0.00    -0.272 NA
HETATM   14  C   UNL     1      44.636 -20.750   3.543  1.00  0.00     0.116 A 
HETATM   15  C   UNL     1      44.074 -19.745   2.774  1.00  0.00     0.020 A 
HETATM   16  C   UNL     1      43.813 -18.516   3.380  1.00  0.00     0.017 A 
ENDBRANCH   9  11
ENDBRANCH   2   5
BRANCH   1  17
HETATM   17  C   UNL     1      44.988 -12.382   8.855  1.00  0.00     0.078 C 
HETATM   18  C   UNL     1      46.282 -11.570   8.786  1.00  0.00     0.020 C 
BRANCH  17  19
HETATM   19  C   UNL     1      43.772 -11.442   8.858  1.00  0.00     0.052 C 
BRANCH  19  20
HETATM   20  C   UNL     1      43.093 -11.267  10.194  1.00  0.00    -0.057 A 
HETATM   21  C   UNL     1      43.787 -11.475  11.391  1.00  0.00     0.010 A 
HETATM   22  C   UNL     1      43.156 -11.266  12.620  1.00  0.00     0.037 A 
HETATM   23  C   UNL     1      41.830 -10.838  12.679  1.00  0.00     0.068 A 
HETATM   24  C   UNL     1      41.132 -10.628  11.492  1.00  0.00     0.037 A 
HETATM   25  C   UNL     1      41.760 -10.837  10.258  1.00  0.00     0.010 A 
BRANCH  23  26
HETATM   26  O   UNL     1      41.341 -10.658  13.943  1.00  0.00    -0.356 OA
HETATM   27  C   UNL     1      42.214 -10.056  14.891  1.00  0.00     0.210 C 
ENDBRANCH  23  26
ENDBRANCH  19  20
ENDBRANCH  17  19
ENDBRANCH   1  17
TORSDOF 6
ENDMDL
MODEL 2
REMARK VINA RESULT:      -8.1      7.918     10.679
REMARK  6 active torsions:
REMARK  status: ('A' for Active; 'I' for Inactive)
REMARK    1  A    between atoms: C_2  and  C_3 
REMARK    2  A    between atoms: C_2  and  C_18 
REMARK       I    between atoms: C_3  and  N_4 
REMARK    3  A    between atoms: N_4  and  C_5 
REMARK    4  A    between atoms: C_9  and  C_10 
REMARK    5  A    between atoms: C_18  and  C_19 
REMARK    6  A    between atoms: C_22  and  O_23 
ROOT
HETATM    1  C   UNL     1      41.400 -14.996   1.003  1.00  0.00     0.227 C 
HETATM    2  N   UNL     1      42.573 -15.699   0.796  1.00  0.00    -0.312 N 
HETATM    3  O   UNL     1      40.647 -15.192   1.961  1.00  0.00    -0.273 OA
HETATM    4  H   UNL     1      43.133 -15.536  -0.030  1.00  0.00     0.170 HD
ENDROOT
BRANCH   2   5
HETATM    5  C   UNL     1      43.010 -16.663   1.683  1.00  0.00     0.126 A 
HETATM    6  N   UNL     1      43.396 -16.416   2.972  1.00  0.00    -0.262 N 
HETATM    7  H   UNL     1      43.387 -15.515   3.445  1.00  0.00     0.191 HD
HETATM    8  N   UNL     1      43.855 -17.504   3.615  1.00  0.00    -0.172 NA
HETATM    9  C   UNL     1      43.709 -18.505   2.730  1.00  0.00     0.092 A 
HETATM   10  C   UNL     1      43.178 -18.014   1.503  1.00  0.00     0.084 A 
BRANCH   9  11
HETATM   11  C   UNL     1      44.092 -19.876   3.056  1.00  0.00     0.012 A 
HETATM   12  C   UNL     1      44.601 -20.216   4.307  1.00  0.00     0.130 A 
HETATM   13  N   UNL     1      44.955 -21.472   4.679  1.00  0.00    -0.272 NA
HETATM   14  C   UNL     1      44.800 -22.441   3.751  1.00  0.00     0.116 A 
HETATM   15  C   UNL     1      44.311 -22.214   2.476  1.00  0.00     0.020 A 
HETATM   16  C   UNL     1      43.956 -20.911   2.126  1.00  0.00     0.017 A 
ENDBRANCH   9  11
ENDBRANCH   2   5
BRANCH   1  17
HETATM   17  C   UNL     1      41.145 -13.839   0.037  1.00  0.00     0.078 C 
HETATM   18  C   UNL     1      41.981 -12.639   0.486  1.00  0.00     0.020 C 
BRANCH  17  19
HETATM   19  C   UNL     1      41.415 -14.148  -1.444  1.00  0.00     0.052 C 
BRANCH  19  20
HETATM   20  C   UNL     1      40.194 -14.470  -2.271  1.00  0.00    -0.057 A 
HETATM   21  C   UNL     1      39.012 -13.734  -2.131  1.00  0.00     0.010 A 
HETATM   22  C   UNL     1      37.905 -14.016  -2.935  1.00  0.00     0.037 A 
HETATM   23  C   UNL     1      37.958 -15.025  -3.898  1.00  0.00     0.068 A 
HETATM   24  C   UNL     1      39.132 -15.761  -4.043  1.00  0.00     0.037 A 
HETATM   25  C   UNL     1      40.243 -15.483  -3.238  1.00  0.00     0.010 A 
BRANCH  23  26
HETATM   26  O   UNL     1      36.812 -15.185  -4.625  1.00  0.00    -0.356 OA
HETATM   27  C   UNL     1      36.009 -14.029  -4.823  1.00  0.00     0.210 C 
ENDBRANCH  23  26
ENDBRANCH  19  20
ENDBRANCH  17  19
ENDBRANCH   1  17
TORSDOF 6
ENDMDL
MODEL 3
REMARK VINA RESULT:      -8.0      7.754     11.197
REMARK  6 active torsions:
REMARK  status: ('A' for Active; 'I' for Inactive)
REMARK    1  A    between atoms: C_2  and  C_3 
REMARK    2  A    between atoms: C_2  and  C_18 
REMARK       I    between atoms: C_3  and  N_4 
REMARK    3  A    between atoms: N_4  and  C_5 
REMARK    4  A    between atoms: C_9  and  C_10 
REMARK    5  A    between atoms: C_18  and  C_19 
REMARK    6  A    between atoms: C_22  and  O_23 
ROOT
HETATM    1  C   UNL     1      41.614 -14.172  -0.249  1.00  0.00     0.227 C 
HETATM    2  N   UNL     1      41.764 -15.535  -0.431  1.00  0.00    -0.312 N 
HETATM    3  O   UNL     1      41.631 -13.625   0.857  1.00  0.00    -0.273 OA
HETATM    4  H   UNL     1      41.695 -15.942  -1.354  1.00  0.00     0.170 HD
ENDROOT
BRANCH   2   5
HETATM    5  C   UNL     1      41.983 -16.391   0.630  1.00  0.00     0.126 A 
HETATM    6  N   UNL     1      41.250 -16.401   1.785  1.00  0.00    -0.262 N 
HETATM    7  H   UNL     1      40.449 -15.812   1.998  1.00  0.00     0.191 HD
HETATM    8  N   UNL     1      41.702 -17.274   2.702  1.00  0.00    -0.172 NA
HETATM    9  C   UNL     1      42.731 -17.893   2.100  1.00  0.00     0.092 A 
HETATM   10  C   UNL     1      42.937 -17.365   0.792  1.00  0.00     0.084 A 
BRANCH   9  11
HETATM   11  C   UNL     1      43.498 -18.936   2.776  1.00  0.00     0.012 A 
HETATM   12  C   UNL     1      44.012 -18.754   4.057  1.00  0.00     0.130 A 
HETATM   13  N   UNL     1      44.712 -19.689   4.747  1.00  0.00    -0.272 NA
HETATM   14  C   UNL     1      44.917 -20.869   4.124  1.00  0.00     0.116 A 
HETATM   15  C   UNL     1      44.458 -21.155   2.849  1.00  0.00     0.020 A 
HETATM   16  C   UNL     1      43.741 -20.172   2.168  1.00  0.00     0.017 A 
ENDBRANCH   9  11
ENDBRANCH   2   5
BRANCH   1  17
HETATM   17  C   UNL     1      41.564 -13.337  -1.528  1.00  0.00     0.078 C 
HETATM   18  C   UNL     1      42.834 -12.488  -1.604  1.00  0.00     0.020 C 
BRANCH  17  19
HETATM   19  C   UNL     1      41.382 -14.136  -2.829  1.00  0.00     0.052 C 
BRANCH  19  20
HETATM   20  C   UNL     1      39.957 -14.296  -3.298  1.00  0.00    -0.057 A 
HETATM   21  C   UNL     1      39.509 -15.500  -3.852  1.00  0.00     0.010 A 
HETATM   22  C   UNL     1      38.174 -15.645  -4.240  1.00  0.00     0.037 A 
HETATM   23  C   UNL     1      37.264 -14.601  -4.076  1.00  0.00     0.068 A 
HETATM   24  C   UNL     1      37.703 -13.399  -3.526  1.00  0.00     0.037 A 
HETATM   25  C   UNL     1      39.039 -13.249  -3.136  1.00  0.00     0.010 A 
BRANCH  23  26
HETATM   26  O   UNL     1      35.989 -14.882  -4.484  1.00  0.00    -0.356 OA
HETATM   27  C   UNL     1      35.360 -13.931  -5.332  1.00  0.00     0.210 C 
ENDBRANCH  23  26
ENDBRANCH  19  20
ENDBRANCH  17  19
ENDBRANCH   1  17
TORSDOF 6
ENDMDL
MODEL 4
REMARK VINA RESULT:      -7.8      5.022      6.084
REMARK  6 active torsions:
REMARK  status: ('A' for Active; 'I' for Inactive)
REMARK    1  A    between atoms: C_2  and  C_3 
REMARK    2  A    between atoms: C_2  and  C_18 
REMARK       I    between atoms: C_3  and  N_4 
REMARK    3  A    between atoms: N_4  and  C_5 
REMARK    4  A    between atoms: C_9  and  C_10 
REMARK    5  A    between atoms: C_18  and  C_19 
REMARK    6  A    between atoms: C_22  and  O_23 
ROOT
HETATM    1  C   UNL     1      41.375 -14.726   2.654  1.00  0.00     0.227 C 
HETATM    2  N   UNL     1      42.710 -15.086   2.683  1.00  0.00    -0.312 N 
HETATM    3  O   UNL     1      40.470 -15.488   2.305  1.00  0.00    -0.273 OA
HETATM    4  H   UNL     1      43.420 -14.410   2.930  1.00  0.00     0.170 HD
ENDROOT
BRANCH   2   5
HETATM    5  C   UNL     1      43.128 -16.359   2.351  1.00  0.00     0.126 A 
HETATM    6  N   UNL     1      43.347 -16.797   1.074  1.00  0.00    -0.262 N 
HETATM    7  H   UNL     1      43.259 -16.248   0.222  1.00  0.00     0.191 HD
HETATM    8  N   UNL     1      43.676 -18.099   1.000  1.00  0.00    -0.172 NA
HETATM    9  C   UNL     1      43.727 -18.507   2.279  1.00  0.00     0.092 A 
HETATM   10  C   UNL     1      43.390 -17.438   3.159  1.00  0.00     0.084 A 
BRANCH   9  11
HETATM   11  C   UNL     1      44.065 -19.884   2.629  1.00  0.00     0.012 A 
HETATM   12  C   UNL     1      44.511 -20.228   3.903  1.00  0.00     0.130 A 
HETATM   13  N   UNL     1      44.819 -21.489   4.297  1.00  0.00    -0.272 NA
HETATM   14  C   UNL     1      44.682 -22.460   3.369  1.00  0.00     0.116 A 
HETATM   15  C   UNL     1      44.254 -22.230   2.072  1.00  0.00     0.020 A 
HETATM   16  C   UNL     1      43.945 -20.922   1.700  1.00  0.00     0.017 A 
ENDBRANCH   9  11
ENDBRANCH   2   5
BRANCH   1  17
HETATM   17  C   UNL     1      41.051 -13.344   3.222  1.00  0.00     0.078 C 
HETATM   18  C   UNL     1      39.726 -12.871   2.622  1.00  0.00     0.020 C 
BRANCH  17  19
HETATM   19  C   UNL     1      40.997 -13.260   4.756  1.00  0.00     0.052 C 
BRANCH  19  20
HETATM   20  C   UNL     1      41.468 -14.492   5.489  1.00  0.00    -0.057 A 
HETATM   21  C   UNL     1      42.787 -14.603   5.943  1.00  0.00     0.010 A 
HETATM   22  C   UNL     1      43.196 -15.732   6.658  1.00  0.00     0.037 A 
HETATM   23  C   UNL     1      42.298 -16.762   6.942  1.00  0.00     0.068 A 
HETATM   24  C   UNL     1      40.984 -16.659   6.494  1.00  0.00     0.037 A 
HETATM   25  C   UNL     1      40.571 -15.530   5.775  1.00  0.00     0.010 A 
BRANCH  23  26
HETATM   26  O   UNL     1      42.825 -17.798   7.662  1.00  0.00    -0.356 OA
HETATM   27  C   UNL     1      44.166 -18.168   7.371  1.00  0.00     0.210 C 
ENDBRANCH  23  26
ENDBRANCH  19  20
ENDBRANCH  17  19
ENDBRANCH   1  17
TORSDOF 6
ENDMDL
MODEL 5
REMARK VINA RESULT:      -7.7      5.665      9.260
REMARK  6 active torsions:
REMARK  status: ('A' for Active; 'I' for Inactive)
REMARK    1  A    between atoms: C_2  and  C_3 
REMARK    2  A    between atoms: C_2  and  C_18 
REMARK       I    between atoms: C_3  and  N_4 
REMARK    3  A    between atoms: N_4  and  C_5 
REMARK    4  A    between atoms: C_9  and  C_10 
REMARK    5  A    between atoms: C_18  and  C_19 
REMARK    6  A    between atoms: C_22  and  O_23 
ROOT
HETATM    1  C   UNL     1      41.809 -16.355   5.182  1.00  0.00     0.227 C 
HETATM    2  N   UNL     1      41.998 -15.315   4.290  1.00  0.00    -0.312 N 
HETATM    3  O   UNL     1      40.940 -17.220   5.047  1.00  0.00    -0.273 OA
HETATM    4  H   UNL     1      42.693 -14.602   4.470  1.00  0.00     0.170 HD
ENDROOT
BRANCH   2   5
HETATM    5  C   UNL     1      41.236 -15.189   3.146  1.00  0.00     0.126 A 
HETATM    6  N   UNL     1      39.870 -15.264   3.110  1.00  0.00    -0.262 N 
HETATM    7  H   UNL     1      39.250 -15.392   3.905  1.00  0.00     0.191 HD
HETATM    8  N   UNL     1      39.360 -15.187   1.868  1.00  0.00    -0.172 NA
HETATM    9  C   UNL     1      40.429 -14.999   1.075  1.00  0.00     0.092 A 
HETATM   10  C   UNL     1      41.628 -14.992   1.845  1.00  0.00     0.084 A 
BRANCH   9  11
HETATM   11  C   UNL     1      40.291 -14.857  -0.372  1.00  0.00     0.012 A 
HETATM   12  C   UNL     1      39.380 -13.969  -0.938  1.00  0.00     0.130 A 
HETATM   13  N   UNL     1      39.220 -13.774  -2.271  1.00  0.00    -0.272 NA
HETATM   14  C   UNL     1      40.006 -14.511  -3.086  1.00  0.00     0.116 A 
HETATM   15  C   UNL     1      40.939 -15.428  -2.632  1.00  0.00     0.020 A 
HETATM   16  C   UNL     1      41.079 -15.602  -1.255  1.00  0.00     0.017 A 
ENDBRANCH   9  11
ENDBRANCH   2   5
BRANCH   1  17
HETATM   17  C   UNL     1      42.846 -16.463   6.300  1.00  0.00     0.078 C 
HETATM   18  C   UNL     1      42.326 -17.445   7.351  1.00  0.00     0.020 C 
BRANCH  17  19
HETATM   19  C   UNL     1      44.259 -16.870   5.849  1.00  0.00     0.052 C 
BRANCH  19  20
HETATM   20  C   UNL     1      44.343 -18.157   5.067  1.00  0.00    -0.057 A 
HETATM   21  C   UNL     1      44.684 -19.362   5.692  1.00  0.00     0.010 A 
HETATM   22  C   UNL     1      44.714 -20.553   4.961  1.00  0.00     0.037 A 
HETATM   23  C   UNL     1      44.398 -20.567   3.602  1.00  0.00     0.068 A 
HETATM   24  C   UNL     1      44.058 -19.371   2.973  1.00  0.00     0.037 A 
HETATM   25  C   UNL     1      44.027 -18.176   3.701  1.00  0.00     0.010 A 
BRANCH  23  26
HETATM   26  O   UNL     1      44.453 -21.799   3.014  1.00  0.00    -0.356 OA
HETATM   27  C   UNL     1      44.099 -21.872   1.639  1.00  0.00     0.210 C 
ENDBRANCH  23  26
ENDBRANCH  19  20
ENDBRANCH  17  19
ENDBRANCH   1  17
TORSDOF 6
ENDMDL
MODEL 6
REMARK VINA RESULT:      -7.6      6.650      9.734
REMARK  6 active torsions:
REMARK  status: ('A' for Active; 'I' for Inactive)
REMARK    1  A    between atoms: C_2  and  C_3 
REMARK    2  A    between atoms: C_2  and  C_18 
REMARK       I    between atoms: C_3  and  N_4 
REMARK    3  A    between atoms: N_4  and  C_5 
REMARK    4  A    between atoms: C_9  and  C_10 
REMARK    5  A    between atoms: C_18  and  C_19 
REMARK    6  A    between atoms: C_22  and  O_23 
ROOT
HETATM    1  C   UNL     1      41.852 -14.037   2.026  1.00  0.00     0.227 C 
HETATM    2  N   UNL     1      41.366 -15.316   1.819  1.00  0.00    -0.312 N 
HETATM    3  O   UNL     1      43.045 -13.782   2.211  1.00  0.00    -0.273 OA
HETATM    4  H   UNL     1      40.373 -15.480   1.720  1.00  0.00     0.170 HD
ENDROOT
BRANCH   2   5
HETATM    5  C   UNL     1      42.203 -16.413   1.769  1.00  0.00     0.126 A 
HETATM    6  N   UNL     1      43.093 -16.667   0.761  1.00  0.00    -0.262 N 
HETATM    7  H   UNL     1      43.270 -16.081  -0.052  1.00  0.00     0.191 HD
HETATM    8  N   UNL     1      43.741 -17.837   0.897  1.00  0.00    -0.172 NA
HETATM    9  C   UNL     1      43.298 -18.334   2.065  1.00  0.00     0.092 A 
HETATM   10  C   UNL     1      42.329 -17.463   2.643  1.00  0.00     0.084 A 
BRANCH   9  11
HETATM   11  C   UNL     1      43.778 -19.612   2.582  1.00  0.00     0.012 A 
HETATM   12  C   UNL     1      44.315 -19.730   3.861  1.00  0.00     0.130 A 
HETATM   13  N   UNL     1      44.757 -20.891   4.408  1.00  0.00    -0.272 NA
HETATM   14  C   UNL     1      44.665 -21.994   3.635  1.00  0.00     0.116 A 
HETATM   15  C   UNL     1      44.155 -21.990   2.347  1.00  0.00     0.020 A 
HETATM   16  C   UNL     1      43.708 -20.780   1.816  1.00  0.00     0.017 A 
ENDBRANCH   9  11
ENDBRANCH   2   5
BRANCH   1  17
HETATM   17  C   UNL     1      40.831 -12.910   1.872  1.00  0.00     0.078 C 
HETATM   18  C   UNL     1      41.000 -11.939   3.042  1.00  0.00     0.020 C 
BRANCH  17  19
HETATM   19  C   UNL     1      40.889 -12.147   0.539  1.00  0.00     0.052 C 
BRANCH  19  20
HETATM   20  C   UNL     1      40.659 -12.983  -0.696  1.00  0.00    -0.057 A 
HETATM   21  C   UNL     1      41.704 -13.259  -1.586  1.00  0.00     0.010 A 
HETATM   22  C   UNL     1      41.485 -14.072  -2.702  1.00  0.00     0.037 A 
HETATM   23  C   UNL     1      40.229 -14.629  -2.945  1.00  0.00     0.068 A 
HETATM   24  C   UNL     1      39.185 -14.359  -2.064  1.00  0.00     0.037 A 
HETATM   25  C   UNL     1      39.399 -13.544  -0.945  1.00  0.00     0.010 A 
BRANCH  23  26
HETATM   26  O   UNL     1      40.157 -15.416  -4.061  1.00  0.00    -0.356 OA
HETATM   27  C   UNL     1      38.930 -16.094  -4.293  1.00  0.00     0.210 C 
ENDBRANCH  23  26
ENDBRANCH  19  20
ENDBRANCH  17  19
ENDBRANCH   1  17
TORSDOF 6
ENDMDL
MODEL 7
REMARK VINA RESULT:      -7.6      3.547      9.316
REMARK  6 active torsions:
REMARK  status: ('A' for Active; 'I' for Inactive)
REMARK    1  A    between atoms: C_2  and  C_3 
REMARK    2  A    between atoms: C_2  and  C_18 
REMARK       I    between atoms: C_3  and  N_4 
REMARK    3  A    between atoms: N_4  and  C_5 
REMARK    4  A    between atoms: C_9  and  C_10 
REMARK    5  A    between atoms: C_18  and  C_19 
REMARK    6  A    between atoms: C_22  and  O_23 
ROOT
HETATM    1  C   UNL     1      42.574 -15.168   3.229  1.00  0.00     0.227 C 
HETATM    2  N   UNL     1      42.104 -14.988   4.517  1.00  0.00    -0.312 N 
HETATM    3  O   UNL     1      43.738 -14.940   2.889  1.00  0.00    -0.273 OA
HETATM    4  H   UNL     1      41.129 -15.142   4.736  1.00  0.00     0.170 HD
ENDROOT
BRANCH   2   5
HETATM    5  C   UNL     1      42.929 -14.566   5.541  1.00  0.00     0.126 A 
HETATM    6  N   UNL     1      43.878 -15.345   6.145  1.00  0.00    -0.262 N 
HETATM    7  H   UNL     1      44.114 -16.305   5.908  1.00  0.00     0.191 HD
HETATM    8  N   UNL     1      44.503 -14.735   7.168  1.00  0.00    -0.172 NA
HETATM    9  C   UNL     1      43.981 -13.497   7.192  1.00  0.00     0.092 A 
HETATM   10  C   UNL     1      42.988 -13.353   6.181  1.00  0.00     0.084 A 
BRANCH   9  11
HETATM   11  C   UNL     1      44.411 -12.505   8.174  1.00  0.00     0.012 A 
HETATM   12  C   UNL     1      43.532 -11.559   8.693  1.00  0.00     0.130 A 
HETATM   13  N   UNL     1      43.863 -10.627   9.622  1.00  0.00    -0.272 NA
HETATM   14  C   UNL     1      45.144 -10.633  10.051  1.00  0.00     0.116 A 
HETATM   15  C   UNL     1      46.103 -11.523   9.597  1.00  0.00     0.020 A 
HETATM   16  C   UNL     1      45.728 -12.469   8.643  1.00  0.00     0.017 A 
ENDBRANCH   9  11
ENDBRANCH   2   5
BRANCH   1  17
HETATM   17  C   UNL     1      41.591 -15.812   2.251  1.00  0.00     0.078 C 
HETATM   18  C   UNL     1      42.171 -15.706   0.839  1.00  0.00     0.020 C 
BRANCH  17  19
HETATM   19  C   UNL     1      41.216 -17.270   2.561  1.00  0.00     0.052 C 
BRANCH  19  20
HETATM   20  C   UNL     1      42.354 -18.148   3.021  1.00  0.00    -0.057 A 
HETATM   21  C   UNL     1      42.609 -18.347   4.382  1.00  0.00     0.010 A 
HETATM   22  C   UNL     1      43.640 -19.197   4.792  1.00  0.00     0.037 A 
HETATM   23  C   UNL     1      44.426 -19.870   3.856  1.00  0.00     0.068 A 
HETATM   24  C   UNL     1      44.178 -19.677   2.499  1.00  0.00     0.037 A 
HETATM   25  C   UNL     1      43.148 -18.825   2.084  1.00  0.00     0.010 A 
BRANCH  23  26
HETATM   26  O   UNL     1      45.387 -20.681   4.392  1.00  0.00    -0.356 OA
HETATM   27  C   UNL     1      44.939 -21.837   5.087  1.00  0.00     0.210 C 
ENDBRANCH  23  26
ENDBRANCH  19  20
ENDBRANCH  17  19
ENDBRANCH   1  17
TORSDOF 6
ENDMDL
MODEL 8
REMARK VINA RESULT:      -7.6      5.318     10.463
REMARK  6 active torsions:
REMARK  status: ('A' for Active; 'I' for Inactive)
REMARK    1  A    between atoms: C_2  and  C_3 
REMARK    2  A    between atoms: C_2  and  C_18 
REMARK       I    between atoms: C_3  and  N_4 
REMARK    3  A    between atoms: N_4  and  C_5 
REMARK    4  A    between atoms: C_9  and  C_10 
REMARK    5  A    between atoms: C_18  and  C_19 
REMARK    6  A    between atoms: C_22  and  O_23 
ROOT
HETATM    1  C   UNL     1      41.540 -16.836   2.873  1.00  0.00     0.227 C 
HETATM    2  N   UNL     1      41.182 -15.508   2.729  1.00  0.00    -0.312 N 
HETATM    3  O   UNL     1      41.487 -17.445   3.944  1.00  0.00    -0.273 OA
HETATM    4  H   UNL     1      41.289 -15.039   1.840  1.00  0.00     0.170 HD
ENDROOT
BRANCH   2   5
HETATM    5  C   UNL     1      40.697 -14.766   3.787  1.00  0.00     0.126 A 
HETATM    6  N   UNL     1      39.980 -15.280   4.833  1.00  0.00    -0.262 N 
HETATM    7  H   UNL     1      39.738 -16.257   4.979  1.00  0.00     0.191 HD
HETATM    8  N   UNL     1      39.552 -14.347   5.703  1.00  0.00    -0.172 NA
HETATM    9  C   UNL     1      40.058 -13.193   5.235  1.00  0.00     0.092 A 
HETATM   10  C   UNL     1      40.787 -13.418   4.031  1.00  0.00     0.084 A 
BRANCH   9  11
HETATM   11  C   UNL     1      39.822 -11.924   5.917  1.00  0.00     0.012 A 
HETATM   12  C   UNL     1      39.454 -11.869   7.258  1.00  0.00     0.130 A 
HETATM   13  N   UNL     1      39.242 -10.723   7.953  1.00  0.00    -0.272 NA
HETATM   14  C   UNL     1      39.397  -9.568   7.272  1.00  0.00     0.116 A 
HETATM   15  C   UNL     1      39.753  -9.506   5.935  1.00  0.00     0.020 A 
HETATM   16  C   UNL     1      39.965 -10.702   5.251  1.00  0.00     0.017 A 
ENDBRANCH   9  11
ENDBRANCH   2   5
BRANCH   1  17
HETATM   17  C   UNL     1      41.882 -17.572   1.577  1.00  0.00     0.078 C 
HETATM   18  C   UNL     1      41.410 -16.720   0.397  1.00  0.00     0.020 C 
BRANCH  17  19
HETATM   19  C   UNL     1      43.363 -17.943   1.403  1.00  0.00     0.052 C 
BRANCH  19  20
HETATM   20  C   UNL     1      43.789 -19.232   2.061  1.00  0.00    -0.057 A 
HETATM   21  C   UNL     1      44.435 -19.230   3.303  1.00  0.00     0.010 A 
HETATM   22  C   UNL     1      44.783 -20.435   3.920  1.00  0.00     0.037 A 
HETATM   23  C   UNL     1      44.488 -21.658   3.318  1.00  0.00     0.068 A 
HETATM   24  C   UNL     1      43.845 -21.668   2.082  1.00  0.00     0.037 A 
HETATM   25  C   UNL     1      43.495 -20.464   1.460  1.00  0.00     0.010 A 
BRANCH  23  26
HETATM   26  O   UNL     1      44.869 -22.758   4.036  1.00  0.00    -0.356 OA
HETATM   27  C   UNL     1      45.094 -22.572   5.427  1.00  0.00     0.210 C 
ENDBRANCH  23  26
ENDBRANCH  19  20
ENDBRANCH  17  19
ENDBRANCH   1  17
TORSDOF 6
ENDMDL
MODEL 9
REMARK VINA RESULT:      -7.5      8.016     11.471
REMARK  6 active torsions:
REMARK  status: ('A' for Active; 'I' for Inactive)
REMARK    1  A    between atoms: C_2  and  C_3 
REMARK    2  A    between atoms: C_2  and  C_18 
REMARK       I    between atoms: C_3  and  N_4 
REMARK    3  A    between atoms: N_4  and  C_5 
REMARK    4  A    between atoms: C_9  and  C_10 
REMARK    5  A    between atoms: C_18  and  C_19 
REMARK    6  A    between atoms: C_22  and  O_23 
ROOT
HETATM    1  C   UNL     1      41.955 -15.467   0.524  1.00  0.00     0.227 C 
HETATM    2  N   UNL     1      41.550 -15.715  -0.775  1.00  0.00    -0.312 N 
HETATM    3  O   UNL     1      42.077 -14.335   0.996  1.00  0.00    -0.273 OA
HETATM    4  H   UNL     1      41.512 -16.661  -1.132  1.00  0.00     0.170 HD
ENDROOT
BRANCH   2   5
HETATM    5  C   UNL     1      41.213 -14.693  -1.640  1.00  0.00     0.126 A 
HETATM    6  N   UNL     1      42.115 -13.881  -2.273  1.00  0.00    -0.262 N 
HETATM    7  H   UNL     1      43.128 -13.939  -2.211  1.00  0.00     0.191 HD
HETATM    8  N   UNL     1      41.543 -12.910  -3.006  1.00  0.00    -0.172 NA
HETATM    9  C   UNL     1      40.223 -13.133  -2.891  1.00  0.00     0.092 A 
HETATM   10  C   UNL     1      39.977 -14.250  -2.040  1.00  0.00     0.084 A 
BRANCH   9  11
HETATM   11  C   UNL     1      39.242 -12.282  -3.559  1.00  0.00     0.012 A 
HETATM   12  C   UNL     1      39.623 -11.157  -4.285  1.00  0.00     0.130 A 
HETATM   13  N   UNL     1      38.764 -10.339  -4.946  1.00  0.00    -0.272 NA
HETATM   14  C   UNL     1      37.454 -10.657  -4.873  1.00  0.00     0.116 A 
HETATM   15  C   UNL     1      36.964 -11.748  -4.174  1.00  0.00     0.020 A 
HETATM   16  C   UNL     1      37.874 -12.568  -3.507  1.00  0.00     0.017 A 
ENDBRANCH   9  11
ENDBRANCH   2   5
BRANCH   1  17
HETATM   17  C   UNL     1      42.115 -16.701   1.412  1.00  0.00     0.078 C 
HETATM   18  C   UNL     1      40.865 -17.571   1.264  1.00  0.00     0.020 C 
BRANCH  17  19
HETATM   19  C   UNL     1      43.377 -17.540   1.151  1.00  0.00     0.052 C 
BRANCH  19  20
HETATM   20  C   UNL     1      43.761 -18.492   2.257  1.00  0.00    -0.057 A 
HETATM   21  C   UNL     1      44.050 -19.835   1.986  1.00  0.00     0.010 A 
HETATM   22  C   UNL     1      44.447 -20.693   3.015  1.00  0.00     0.037 A 
HETATM   23  C   UNL     1      44.572 -20.230   4.325  1.00  0.00     0.068 A 
HETATM   24  C   UNL     1      44.285 -18.895   4.602  1.00  0.00     0.037 A 
HETATM   25  C   UNL     1      43.886 -18.032   3.575  1.00  0.00     0.010 A 
BRANCH  23  26
HETATM   26  O   UNL     1      44.982 -21.170   5.229  1.00  0.00    -0.356 OA
HETATM   27  C   UNL     1      44.841 -22.532   4.849  1.00  0.00     0.210 C 
ENDBRANCH  23  26
ENDBRANCH  19  20
ENDBRANCH  17  19
ENDBRANCH   1  17
TORSDOF 6
ENDMDL
MODEL 10
REMARK VINA RESULT:      -7.5      7.509     10.872
REMARK  6 active torsions:
REMARK  status: ('A' for Active; 'I' for Inactive)
REMARK    1  A    between atoms: C_2  and  C_3 
REMARK    2  A    between atoms: C_2  and  C_18 
REMARK       I    between atoms: C_3  and  N_4 
REMARK    3  A    between atoms: N_4  and  C_5 
REMARK    4  A    between atoms: C_9  and  C_10 
REMARK    5  A    between atoms: C_18  and  C_19 
REMARK    6  A    between atoms: C_22  and  O_23 
ROOT
HETATM    1  C   UNL     1      41.948 -15.993   0.968  1.00  0.00     0.227 C 
HETATM    2  N   UNL     1      41.640 -14.780   0.378  1.00  0.00    -0.312 N 
HETATM    3  O   UNL     1      41.606 -17.084   0.506  1.00  0.00    -0.273 OA
HETATM    4  H   UNL     1      41.901 -13.910   0.821  1.00  0.00     0.170 HD
ENDROOT
BRANCH   2   5
HETATM    5  C   UNL     1      40.945 -14.706  -0.813  1.00  0.00     0.126 A 
HETATM    6  N   UNL     1      41.468 -15.014  -2.039  1.00  0.00    -0.262 N 
HETATM    7  H   UNL     1      42.408 -15.355  -2.228  1.00  0.00     0.191 HD
HETATM    8  N   UNL     1      40.620 -14.790  -3.058  1.00  0.00    -0.172 NA
HETATM    9  C   UNL     1      39.486 -14.376  -2.468  1.00  0.00     0.092 A 
HETATM   10  C   UNL     1      39.652 -14.313  -1.054  1.00  0.00     0.084 A 
BRANCH   9  11
HETATM   11  C   UNL     1      38.300 -14.033  -3.248  1.00  0.00     0.012 A 
HETATM   12  C   UNL     1      37.514 -15.009  -3.855  1.00  0.00     0.130 A 
HETATM   13  N   UNL     1      36.390 -14.757  -4.572  1.00  0.00    -0.272 NA
HETATM   14  C   UNL     1      36.034 -13.461  -4.698  1.00  0.00     0.116 A 
HETATM   15  C   UNL     1      36.745 -12.410  -4.143  1.00  0.00     0.020 A 
HETATM   16  C   UNL     1      37.895 -12.704  -3.410  1.00  0.00     0.017 A 
ENDBRANCH   9  11
ENDBRANCH   2   5
BRANCH   1  17
HETATM   17  C   UNL     1      42.876 -15.919   2.181  1.00  0.00     0.078 C 
HETATM   18  C   UNL     1      43.013 -14.454   2.599  1.00  0.00     0.020 C 
BRANCH  17  19
HETATM   19  C   UNL     1      42.454 -16.776   3.385  1.00  0.00     0.052 C 
BRANCH  19  20
HETATM   20  C   UNL     1      43.239 -18.050   3.580  1.00  0.00    -0.057 A 
HETATM   21  C   UNL     1      43.546 -18.521   4.862  1.00  0.00     0.010 A 
HETATM   22  C   UNL     1      44.236 -19.725   5.026  1.00  0.00     0.037 A 
HETATM   23  C   UNL     1      44.622 -20.484   3.921  1.00  0.00     0.068 A 
HETATM   24  C   UNL     1      44.320 -20.022   2.642  1.00  0.00     0.037 A 
HETATM   25  C   UNL     1      43.631 -18.815   2.473  1.00  0.00     0.010 A 
BRANCH  23  26
HETATM   26  O   UNL     1      45.275 -21.646   4.224  1.00  0.00    -0.356 OA
HETATM   27  C   UNL     1      44.917 -22.287   5.441  1.00  0.00     0.210 C 
ENDBRANCH  23  26
ENDBRANCH  19  20
ENDBRANCH  17  19
ENDBRANCH   1  17
TORSDOF 6
ENDMDL
