MODEL 1
REMARK VINA RESULT:      -8.2      0.000      0.000
REMARK  6 active torsions:
REMARK  status: ('A' for Active; 'I' for Inactive)
REMARK    1  A    between atoms: C_5  and  C_6 
REMARK    2  A    between atoms: C_6  and  C_7 
REMARK       I    between atoms: C_7  and  N_8 
REMARK    3  A    between atoms: N_8  and  C_9 
REMARK    4  A    between atoms: C_12  and  N_13 
REMARK       I    between atoms: N_13  and  C_14 
REMARK       I    between atoms: C_14  and  N_15 
REMARK    5  A    between atoms: N_15  and  C_16 
REMARK    6  A    between atoms: C_16  and  C_17 
ROOT
HETATM    1  C   UNL     1      44.276 -14.331   6.869  1.00  0.00     0.034 A 
HETATM    2  C   UNL     1      44.074 -13.815   5.588  1.00  0.00     0.032 A 
HETATM    3  C   UNL     1      43.402 -14.566   4.606  1.00  0.00     0.032 A 
HETATM    4  C   UNL     1      42.939 -15.851   4.885  1.00  0.00     0.036 A 
HETATM    5  C   UNL     1      43.148 -16.366   6.170  1.00  0.00     0.032 A 
HETATM    6  C   UNL     1      43.809 -15.618   7.149  1.00  0.00     0.032 A 
ENDROOT
BRANCH   4   7
HETATM    7  N   UNL     1      42.216 -16.669   4.002  1.00  0.00    -0.309 N 
HETATM    8  C   UNL     1      42.559 -17.555   3.032  1.00  0.00     0.321 C 
HETATM    9  N   UNL     1      43.838 -17.998   2.977  1.00  0.00    -0.337 N 
HETATM   10  O   UNL     1      41.686 -17.955   2.263  1.00  0.00    -0.247 OA
HETATM   11  H   UNL     1      44.302 -18.082   3.870  1.00  0.00     0.164 HD
HETATM   12  H   UNL     1      41.209 -16.552   4.014  1.00  0.00     0.170 HD
BRANCH   9  13
HETATM   13  C   UNL     1      44.172 -19.031   2.023  1.00  0.00     0.189 C 
BRANCH  13  14
HETATM   14  C   UNL     1      44.377 -20.331   2.710  1.00  0.00     0.070 A 
HETATM   15  O   UNL     1      44.772 -20.302   4.019  1.00  0.00    -0.325 OA
HETATM   16  C   UNL     1      44.872 -21.592   4.431  1.00  0.00     0.142 A 
HETATM   17  C   UNL     1      44.531 -22.452   3.414  1.00  0.00     0.027 A 
HETATM   18  C   UNL     1      44.210 -21.639   2.302  1.00  0.00     0.036 A 
ENDBRANCH  13  14
ENDBRANCH   9  13
ENDBRANCH   4   7
BRANCH   1  19
HETATM   19  N   UNL     1      44.880 -13.627   7.930  1.00  0.00    -0.327 N 
HETATM   20  C   UNL     1      44.438 -12.463   8.541  1.00  0.00     0.227 C 
HETATM   21  O   UNL     1      43.488 -11.773   8.173  1.00  0.00    -0.273 OA
HETATM   22  H   UNL     1      45.738 -14.029   8.286  1.00  0.00     0.169 HD
BRANCH  20  23
HETATM   23  C   UNL     1      45.240 -12.120   9.800  1.00  0.00     0.159 C 
BRANCH  23  24
HETATM   24  C   UNL     1      44.404 -11.571  10.914  1.00  0.00     0.017 A 
HETATM   25  N   UNL     1      43.606 -12.363  11.710  1.00  0.00    -0.369 N 
HETATM   26  C   UNL     1      42.991 -11.591  12.660  1.00  0.00     0.088 A 
HETATM   27  H   UNL     1      43.493 -13.367  11.592  1.00  0.00     0.165 HD
HETATM   28  C   UNL     1      43.402 -10.290  12.484  1.00  0.00     0.019 A 
HETATM   29  C   UNL     1      44.292 -10.275  11.385  1.00  0.00     0.027 A 
ENDBRANCH  23  24
ENDBRANCH  20  23
ENDBRANCH   1  19
TORSDOF 6
ENDMDL
MODEL 2
REMARK VINA RESULT:      -7.9      2.701      9.674
REMARK  6 active torsions:
REMARK  status: ('A' for Active; 'I' for Inactive)
REMARK    1  A    between atoms: C_5  and  C_6 
REMARK    2  A    between atoms: C_6  and  C_7 
REMARK       I    between atoms: C_7  and  N_8 
REMARK    3  A    between atoms: N_8  and  C_9 
REMARK    4  A    between atoms: C_12  and  N_13 
REMARK       I    between atoms: N_13  and  C_14 
REMARK       I    between atoms: C_14  and  N_15 
REMARK    5  A    between atoms: N_15  and  C_16 
REMARK    6  A    between atoms: C_16  and  C_17 
ROOT
HETATM    1  C   UNL     1      41.111 -16.319   3.894  1.00  0.00     0.034 A 
HETATM    2  C   UNL     1      41.174 -16.503   5.275  1.00  0.00     0.032 A 
HETATM    3  C   UNL     1      40.632 -15.548   6.156  1.00  0.00     0.032 A 
HETATM    4  C   UNL     1      40.036 -14.387   5.667  1.00  0.00     0.036 A 
HETATM    5  C   UNL     1      39.978 -14.205   4.280  1.00  0.00     0.032 A 
HETATM    6  C   UNL     1      40.510 -15.156   3.404  1.00  0.00     0.032 A 
ENDROOT
BRANCH   4   7
HETATM    7  N   UNL     1      39.421 -13.394   6.447  1.00  0.00    -0.309 N 
HETATM    8  C   UNL     1      39.861 -12.276   7.079  1.00  0.00     0.321 C 
HETATM    9  N   UNL     1      41.086 -11.790   6.767  1.00  0.00    -0.337 N 
HETATM   10  O   UNL     1      39.113 -11.721   7.883  1.00  0.00    -0.247 OA
HETATM   11  H   UNL     1      41.369 -11.924   5.807  1.00  0.00     0.164 HD
HETATM   12  H   UNL     1      38.443 -13.544   6.665  1.00  0.00     0.170 HD
BRANCH   9  13
HETATM   13  C   UNL     1      41.501 -10.534   7.349  1.00  0.00     0.189 C 
BRANCH  13  14
HETATM   14  C   UNL     1      42.252 -10.765   8.609  1.00  0.00     0.070 A 
HETATM   15  O   UNL     1      43.573 -11.103   8.508  1.00  0.00    -0.325 OA
HETATM   16  C   UNL     1      44.045 -11.239   9.774  1.00  0.00     0.142 A 
HETATM   17  C   UNL     1      43.053 -10.977  10.690  1.00  0.00     0.027 A 
HETATM   18  C   UNL     1      41.895 -10.669   9.939  1.00  0.00     0.036 A 
ENDBRANCH  13  14
ENDBRANCH   9  13
ENDBRANCH   4   7
BRANCH   1  19
HETATM   19  N   UNL     1      41.569 -17.250   2.939  1.00  0.00    -0.327 N 
HETATM   20  C   UNL     1      42.879 -17.604   2.656  1.00  0.00     0.227 C 
HETATM   21  O   UNL     1      43.885 -17.068   3.118  1.00  0.00    -0.273 OA
HETATM   22  H   UNL     1      40.847 -17.714   2.403  1.00  0.00     0.169 HD
BRANCH  20  23
HETATM   23  C   UNL     1      42.970 -18.807   1.711  1.00  0.00     0.159 C 
BRANCH  23  24
HETATM   24  C   UNL     1      43.641 -19.998   2.321  1.00  0.00     0.017 A 
HETATM   25  N   UNL     1      44.254 -19.962   3.554  1.00  0.00    -0.369 N 
HETATM   26  C   UNL     1      44.745 -21.203   3.862  1.00  0.00     0.088 A 
HETATM   27  H   UNL     1      44.332 -19.129   4.133  1.00  0.00     0.165 HD
HETATM   28  C   UNL     1      44.438 -22.053   2.825  1.00  0.00     0.019 A 
HETATM   29  C   UNL     1      43.743 -21.296   1.853  1.00  0.00     0.027 A 
ENDBRANCH  23  24
ENDBRANCH  20  23
ENDBRANCH   1  19
TORSDOF 6
ENDMDL
MODEL 3
REMARK VINA RESULT:      -7.9      5.412      8.943
REMARK  6 active torsions:
REMARK  status: ('A' for Active; 'I' for Inactive)
REMARK    1  A    between atoms: C_5  and  C_6 
REMARK    2  A    between atoms: C_6  and  C_7 
REMARK       I    between atoms: C_7  and  N_8 
REMARK    3  A    between atoms: N_8  and  C_9 
REMARK    4  A    between atoms: C_12  and  N_13 
REMARK       I    between atoms: N_13  and  C_14 
REMARK       I    between atoms: C_14  and  N_15 
REMARK    5  A    between atoms: N_15  and  C_16 
REMARK    6  A    between atoms: C_16  and  C_17 
ROOT
HETATM    1  C   UNL     1      42.295 -16.957   3.360  1.00  0.00     0.034 A 
HETATM    2  C   UNL     1      41.846 -15.748   3.891  1.00  0.00     0.032 A 
HETATM    3  C   UNL     1      40.658 -15.153   3.427  1.00  0.00     0.032 A 
HETATM    4  C   UNL     1      39.912 -15.750   2.413  1.00  0.00     0.036 A 
HETATM    5  C   UNL     1      40.368 -16.962   1.880  1.00  0.00     0.032 A 
HETATM    6  C   UNL     1      41.545 -17.558   2.345  1.00  0.00     0.032 A 
ENDROOT
BRANCH   4   7
HETATM    7  N   UNL     1      38.691 -15.274   1.908  1.00  0.00    -0.309 N 
HETATM    8  C   UNL     1      38.342 -14.467   0.874  1.00  0.00     0.321 C 
HETATM    9  N   UNL     1      39.264 -14.193  -0.080  1.00  0.00    -0.337 N 
HETATM   10  O   UNL     1      37.187 -14.045   0.819  1.00  0.00    -0.247 OA
HETATM   11  H   UNL     1      39.917 -14.939  -0.272  1.00  0.00     0.164 HD
HETATM   12  H   UNL     1      37.866 -15.511   2.447  1.00  0.00     0.170 HD
BRANCH   9  13
HETATM   13  C   UNL     1      38.855 -13.434  -1.240  1.00  0.00     0.189 C 
BRANCH  13  14
HETATM   14  C   UNL     1      38.715 -14.321  -2.422  1.00  0.00     0.070 A 
HETATM   15  O   UNL     1      39.801 -15.068  -2.787  1.00  0.00    -0.325 OA
HETATM   16  C   UNL     1      39.430 -15.805  -3.866  1.00  0.00     0.142 A 
HETATM   17  C   UNL     1      38.117 -15.557  -4.192  1.00  0.00     0.027 A 
HETATM   18  C   UNL     1      37.654 -14.599  -3.260  1.00  0.00     0.036 A 
ENDBRANCH  13  14
ENDBRANCH   9  13
ENDBRANCH   4   7
BRANCH   1  19
HETATM   19  N   UNL     1      43.435 -17.655   3.807  1.00  0.00    -0.327 N 
HETATM   20  C   UNL     1      43.576 -18.405   4.964  1.00  0.00     0.227 C 
HETATM   21  O   UNL     1      42.748 -18.492   5.870  1.00  0.00    -0.273 OA
HETATM   22  H   UNL     1      44.245 -17.599   3.201  1.00  0.00     0.169 HD
BRANCH  20  23
HETATM   23  C   UNL     1      44.890 -19.191   4.999  1.00  0.00     0.159 C 
BRANCH  23  24
HETATM   24  C   UNL     1      44.801 -20.537   4.349  1.00  0.00     0.017 A 
HETATM   25  N   UNL     1      44.858 -21.716   5.060  1.00  0.00    -0.369 N 
HETATM   26  C   UNL     1      44.716 -22.777   4.206  1.00  0.00     0.088 A 
HETATM   27  H   UNL     1      44.996 -21.774   6.066  1.00  0.00     0.165 HD
HETATM   28  C   UNL     1      44.555 -22.282   2.933  1.00  0.00     0.019 A 
HETATM   29  C   UNL     1      44.608 -20.871   3.021  1.00  0.00     0.027 A 
ENDBRANCH  23  24
ENDBRANCH  20  23
ENDBRANCH   1  19
TORSDOF 6
ENDMDL
MODEL 4
REMARK VINA RESULT:      -7.7      1.769      9.855
REMARK  6 active torsions:
REMARK  status: ('A' for Active; 'I' for Inactive)
REMARK    1  A    between atoms: C_5  and  C_6 
REMARK    2  A    between atoms: C_6  and  C_7 
REMARK       I    between atoms: C_7  and  N_8 
REMARK    3  A    between atoms: N_8  and  C_9 
REMARK    4  A    between atoms: C_12  and  N_13 
REMARK       I    between atoms: N_13  and  C_14 
REMARK       I    between atoms: C_14  and  N_15 
REMARK    5  A    between atoms: N_15  and  C_16 
REMARK    6  A    between atoms: C_16  and  C_17 
ROOT
HETATM    1  C   UNL     1      43.073 -15.917   5.100  1.00  0.00     0.034 A 
HETATM    2  C   UNL     1      42.915 -14.539   4.952  1.00  0.00     0.032 A 
HETATM    3  C   UNL     1      43.425 -13.647   5.913  1.00  0.00     0.032 A 
HETATM    4  C   UNL     1      44.083 -14.122   7.046  1.00  0.00     0.036 A 
HETATM    5  C   UNL     1      44.235 -15.506   7.193  1.00  0.00     0.032 A 
HETATM    6  C   UNL     1      43.735 -16.393   6.234  1.00  0.00     0.032 A 
ENDROOT
BRANCH   4   7
HETATM    7  N   UNL     1      44.674 -13.327   8.042  1.00  0.00    -0.309 N 
HETATM    8  C   UNL     1      44.342 -12.155   8.641  1.00  0.00     0.321 C 
HETATM    9  N   UNL     1      43.081 -11.682   8.495  1.00  0.00    -0.337 N 
HETATM   10  O   UNL     1      45.188 -11.585   9.330  1.00  0.00    -0.247 OA
HETATM   11  H   UNL     1      42.363 -12.388   8.425  1.00  0.00     0.164 HD
HETATM   12  H   UNL     1      45.587 -13.626   8.365  1.00  0.00     0.170 HD
BRANCH   9  13
HETATM   13  C   UNL     1      42.696 -10.500   9.232  1.00  0.00     0.189 C 
BRANCH  13  14
HETATM   14  C   UNL     1      41.877 -10.865  10.415  1.00  0.00     0.070 A 
HETATM   15  O   UNL     1      42.531 -11.086  11.596  1.00  0.00    -0.325 OA
HETATM   16  C   UNL     1      41.584 -11.379  12.524  1.00  0.00     0.142 A 
HETATM   17  C   UNL     1      40.328 -11.335  11.964  1.00  0.00     0.027 A 
HETATM   18  C   UNL     1      40.516 -11.001  10.602  1.00  0.00     0.036 A 
ENDBRANCH  13  14
ENDBRANCH   9  13
ENDBRANCH   4   7
BRANCH   1  19
HETATM   19  N   UNL     1      42.651 -16.877   4.158  1.00  0.00    -0.327 N 
HETATM   20  C   UNL     1      43.191 -17.138   2.908  1.00  0.00     0.227 C 
HETATM   21  O   UNL     1      44.072 -16.482   2.353  1.00  0.00    -0.273 OA
HETATM   22  H   UNL     1      41.860 -17.444   4.438  1.00  0.00     0.169 HD
BRANCH  20  23
HETATM   23  C   UNL     1      42.605 -18.400   2.267  1.00  0.00     0.159 C 
BRANCH  23  24
HETATM   24  C   UNL     1      43.421 -19.631   2.510  1.00  0.00     0.017 A 
HETATM   25  N   UNL     1      44.221 -19.791   3.619  1.00  0.00    -0.369 N 
HETATM   26  C   UNL     1      44.815 -21.025   3.586  1.00  0.00     0.088 A 
HETATM   27  H   UNL     1      44.352 -19.085   4.341  1.00  0.00     0.165 HD
HETATM   28  C   UNL     1      44.386 -21.675   2.452  1.00  0.00     0.019 A 
HETATM   29  C   UNL     1      43.508 -20.799   1.772  1.00  0.00     0.027 A 
ENDBRANCH  23  24
ENDBRANCH  20  23
ENDBRANCH   1  19
TORSDOF 6
ENDMDL
MODEL 5
REMARK VINA RESULT:      -7.6      5.813      9.281
REMARK  6 active torsions:
REMARK  status: ('A' for Active; 'I' for Inactive)
REMARK    1  A    between atoms: C_5  and  C_6 
REMARK    2  A    between atoms: C_6  and  C_7 
REMARK       I    between atoms: C_7  and  N_8 
REMARK    3  A    between atoms: N_8  and  C_9 
REMARK    4  A    between atoms: C_12  and  N_13 
REMARK       I    between atoms: N_13  and  C_14 
REMARK       I    between atoms: C_14  and  N_15 
REMARK    5  A    between atoms: N_15  and  C_16 
REMARK    6  A    between atoms: C_16  and  C_17 
ROOT
HETATM    1  C   UNL     1      43.059 -16.958   2.492  1.00  0.00     0.034 A 
HETATM    2  C   UNL     1      42.776 -15.596   2.606  1.00  0.00     0.032 A 
HETATM    3  C   UNL     1      41.866 -14.973   1.732  1.00  0.00     0.032 A 
HETATM    4  C   UNL     1      41.240 -15.699   0.720  1.00  0.00     0.036 A 
HETATM    5  C   UNL     1      41.530 -17.064   0.607  1.00  0.00     0.032 A 
HETATM    6  C   UNL     1      42.429 -17.686   1.479  1.00  0.00     0.032 A 
ENDROOT
BRANCH   4   7
HETATM    7  N   UNL     1      40.281 -15.195  -0.174  1.00  0.00    -0.309 N 
HETATM    8  C   UNL     1      40.343 -14.527  -1.354  1.00  0.00     0.321 C 
HETATM    9  N   UNL     1      41.522 -14.490  -2.021  1.00  0.00    -0.337 N 
HETATM   10  O   UNL     1      39.316 -14.013  -1.795  1.00  0.00    -0.247 OA
HETATM   11  H   UNL     1      42.097 -15.313  -1.922  1.00  0.00     0.164 HD
HETATM   12  H   UNL     1      39.316 -15.268   0.124  1.00  0.00     0.170 HD
BRANCH   9  13
HETATM   13  C   UNL     1      41.555 -13.884  -3.333  1.00  0.00     0.189 C 
BRANCH  13  14
HETATM   14  C   UNL     1      42.020 -12.477  -3.248  1.00  0.00     0.070 A 
HETATM   15  O   UNL     1      42.560 -12.057  -2.064  1.00  0.00    -0.325 OA
HETATM   16  C   UNL     1      42.927 -10.760  -2.233  1.00  0.00     0.142 A 
HETATM   17  C   UNL     1      42.647 -10.342  -3.513  1.00  0.00     0.027 A 
HETATM   18  C   UNL     1      42.063 -11.450  -4.170  1.00  0.00     0.036 A 
ENDBRANCH  13  14
ENDBRANCH   9  13
ENDBRANCH   4   7
BRANCH   1  19
HETATM   19  N   UNL     1      43.906 -17.676   3.360  1.00  0.00    -0.327 N 
HETATM   20  C   UNL     1      43.561 -18.351   4.521  1.00  0.00     0.227 C 
HETATM   21  O   UNL     1      42.454 -18.337   5.060  1.00  0.00    -0.273 OA
HETATM   22  H   UNL     1      44.883 -17.699   3.095  1.00  0.00     0.169 HD
BRANCH  20  23
HETATM   23  C   UNL     1      44.713 -19.194   5.075  1.00  0.00     0.159 C 
BRANCH  23  24
HETATM   24  C   UNL     1      44.665 -20.629   4.651  1.00  0.00     0.017 A 
HETATM   25  N   UNL     1      44.587 -21.016   3.332  1.00  0.00    -0.369 N 
HETATM   26  C   UNL     1      44.594 -22.383   3.251  1.00  0.00     0.088 A 
HETATM   27  H   UNL     1      44.522 -20.373   2.546  1.00  0.00     0.165 HD
HETATM   28  C   UNL     1      44.690 -22.886   4.528  1.00  0.00     0.019 A 
HETATM   29  C   UNL     1      44.735 -21.782   5.411  1.00  0.00     0.027 A 
ENDBRANCH  23  24
ENDBRANCH  20  23
ENDBRANCH   1  19
TORSDOF 6
ENDMDL
MODEL 6
REMARK VINA RESULT:      -7.5      2.311      9.733
REMARK  6 active torsions:
REMARK  status: ('A' for Active; 'I' for Inactive)
REMARK    1  A    between atoms: C_5  and  C_6 
REMARK    2  A    between atoms: C_6  and  C_7 
REMARK       I    between atoms: C_7  and  N_8 
REMARK    3  A    between atoms: N_8  and  C_9 
REMARK    4  A    between atoms: C_12  and  N_13 
REMARK       I    between atoms: N_13  and  C_14 
REMARK       I    between atoms: C_14  and  N_15 
REMARK    5  A    between atoms: N_15  and  C_16 
REMARK    6  A    between atoms: C_16  and  C_17 
ROOT
HETATM    1  C   UNL     1      42.627 -16.105   5.555  1.00  0.00     0.034 A 
HETATM    2  C   UNL     1      41.257 -15.845   5.589  1.00  0.00     0.032 A 
HETATM    3  C   UNL     1      40.774 -14.524   5.633  1.00  0.00     0.032 A 
HETATM    4  C   UNL     1      41.655 -13.445   5.662  1.00  0.00     0.036 A 
HETATM    5  C   UNL     1      43.030 -13.711   5.633  1.00  0.00     0.032 A 
HETATM    6  C   UNL     1      43.511 -15.023   5.582  1.00  0.00     0.032 A 
ENDROOT
BRANCH   4   7
HETATM    7  N   UNL     1      41.288 -12.089   5.657  1.00  0.00    -0.309 N 
HETATM    8  C   UNL     1      41.184 -11.131   6.612  1.00  0.00     0.321 C 
HETATM    9  N   UNL     1      41.751 -11.351   7.822  1.00  0.00    -0.337 N 
HETATM   10  O   UNL     1      40.611 -10.079   6.331  1.00  0.00    -0.247 OA
HETATM   11  H   UNL     1      42.599 -11.901   7.805  1.00  0.00     0.164 HD
HETATM   12  H   UNL     1      40.957 -11.724   4.772  1.00  0.00     0.170 HD
BRANCH   9  13
HETATM   13  C   UNL     1      41.744 -10.283   8.795  1.00  0.00     0.189 C 
BRANCH  13  14
HETATM   14  C   UNL     1      42.890 -10.418   9.729  1.00  0.00     0.070 A 
HETATM   15  O   UNL     1      44.112 -10.720   9.195  1.00  0.00    -0.325 OA
HETATM   16  C   UNL     1      44.994 -10.770  10.227  1.00  0.00     0.142 A 
HETATM   17  C   UNL     1      44.363 -10.487  11.416  1.00  0.00     0.027 A 
HETATM   18  C   UNL     1      43.004 -10.259  11.096  1.00  0.00     0.036 A 
ENDBRANCH  13  14
ENDBRANCH   9  13
ENDBRANCH   4   7
BRANCH   1  19
HETATM   19  N   UNL     1      43.197 -17.390   5.446  1.00  0.00    -0.327 N 
HETATM   20  C   UNL     1      43.868 -17.935   4.363  1.00  0.00     0.227 C 
HETATM   21  O   UNL     1      43.980 -17.419   3.251  1.00  0.00    -0.273 OA
HETATM   22  H   UNL     1      43.102 -17.979   6.264  1.00  0.00     0.169 HD
BRANCH  20  23
HETATM   23  C   UNL     1      44.533 -19.274   4.697  1.00  0.00     0.159 C 
BRANCH  23  24
HETATM   24  C   UNL     1      44.329 -20.324   3.650  1.00  0.00     0.017 A 
HETATM   25  N   UNL     1      43.638 -20.089   2.481  1.00  0.00    -0.369 N 
HETATM   26  C   UNL     1      43.645 -21.219   1.707  1.00  0.00     0.088 A 
HETATM   27  H   UNL     1      43.186 -19.208   2.247  1.00  0.00     0.165 HD
HETATM   28  C   UNL     1      44.356 -22.190   2.374  1.00  0.00     0.019 A 
HETATM   29  C   UNL     1      44.787 -21.628   3.598  1.00  0.00     0.027 A 
ENDBRANCH  23  24
ENDBRANCH  20  23
ENDBRANCH   1  19
TORSDOF 6
ENDMDL
MODEL 7
REMARK VINA RESULT:      -7.4      5.069      8.809
REMARK  6 active torsions:
REMARK  status: ('A' for Active; 'I' for Inactive)
REMARK    1  A    between atoms: C_5  and  C_6 
REMARK    2  A    between atoms: C_6  and  C_7 
REMARK       I    between atoms: C_7  and  N_8 
REMARK    3  A    between atoms: N_8  and  C_9 
REMARK    4  A    between atoms: C_12  and  N_13 
REMARK       I    between atoms: N_13  and  C_14 
REMARK       I    between atoms: C_14  and  N_15 
REMARK    5  A    between atoms: N_15  and  C_16 
REMARK    6  A    between atoms: C_16  and  C_17 
ROOT
HETATM    1  C   UNL     1      41.316 -14.994   1.416  1.00  0.00     0.034 A 
HETATM    2  C   UNL     1      42.328 -14.402   2.172  1.00  0.00     0.032 A 
HETATM    3  C   UNL     1      42.689 -14.923   3.428  1.00  0.00     0.032 A 
HETATM    4  C   UNL     1      42.031 -16.033   3.954  1.00  0.00     0.036 A 
HETATM    5  C   UNL     1      41.014 -16.622   3.194  1.00  0.00     0.032 A 
HETATM    6  C   UNL     1      40.658 -16.109   1.942  1.00  0.00     0.032 A 
ENDROOT
BRANCH   4   7
HETATM    7  N   UNL     1      42.340 -16.666   5.170  1.00  0.00    -0.309 N 
HETATM    8  C   UNL     1      43.056 -17.768   5.510  1.00  0.00     0.321 C 
HETATM    9  N   UNL     1      43.885 -18.317   4.591  1.00  0.00    -0.337 N 
HETATM   10  O   UNL     1      42.956 -18.204   6.656  1.00  0.00    -0.247 OA
HETATM   11  H   UNL     1      44.315 -17.661   3.955  1.00  0.00     0.164 HD
HETATM   12  H   UNL     1      41.892 -16.284   5.994  1.00  0.00     0.170 HD
BRANCH   9  13
HETATM   13  C   UNL     1      44.736 -19.414   4.993  1.00  0.00     0.189 C 
BRANCH  13  14
HETATM   14  C   UNL     1      44.638 -20.534   4.025  1.00  0.00     0.070 A 
HETATM   15  O   UNL     1      44.833 -21.802   4.499  1.00  0.00    -0.325 OA
HETATM   16  C   UNL     1      44.674 -22.647   3.448  1.00  0.00     0.142 A 
HETATM   17  C   UNL     1      44.363 -21.945   2.307  1.00  0.00     0.027 A 
HETATM   18  C   UNL     1      44.338 -20.580   2.678  1.00  0.00     0.036 A 
ENDBRANCH  13  14
ENDBRANCH   9  13
ENDBRANCH   4   7
BRANCH   1  19
HETATM   19  N   UNL     1      40.933 -14.580   0.125  1.00  0.00    -0.327 N 
HETATM   20  C   UNL     1      39.896 -13.728  -0.224  1.00  0.00     0.227 C 
HETATM   21  O   UNL     1      39.048 -13.275   0.544  1.00  0.00    -0.273 OA
HETATM   22  H   UNL     1      41.489 -14.951  -0.635  1.00  0.00     0.169 HD
BRANCH  20  23
HETATM   23  C   UNL     1      39.926 -13.341  -1.706  1.00  0.00     0.159 C 
BRANCH  23  24
HETATM   24  C   UNL     1      39.353 -14.386  -2.611  1.00  0.00     0.017 A 
HETATM   25  N   UNL     1      38.006 -14.670  -2.667  1.00  0.00    -0.369 N 
HETATM   26  C   UNL     1      37.777 -15.641  -3.605  1.00  0.00     0.088 A 
HETATM   27  H   UNL     1      37.300 -14.226  -2.084  1.00  0.00     0.165 HD
HETATM   28  C   UNL     1      38.984 -15.981  -4.171  1.00  0.00     0.019 A 
HETATM   29  C   UNL     1      39.978 -15.192  -3.546  1.00  0.00     0.027 A 
ENDBRANCH  23  24
ENDBRANCH  20  23
ENDBRANCH   1  19
TORSDOF 6
ENDMDL
MODEL 8
REMARK VINA RESULT:      -7.4      2.770      9.325
REMARK  6 active torsions:
REMARK  status: ('A' for Active; 'I' for Inactive)
REMARK    1  A    between atoms: C_5  and  C_6 
REMARK    2  A    between atoms: C_6  and  C_7 
REMARK       I    between atoms: C_7  and  N_8 
REMARK    3  A    between atoms: N_8  and  C_9 
REMARK    4  A    between atoms: C_12  and  N_13 
REMARK       I    between atoms: N_13  and  C_14 
REMARK       I    between atoms: C_14  and  N_15 
REMARK    5  A    between atoms: N_15  and  C_16 
REMARK    6  A    between atoms: C_16  and  C_17 
ROOT
HETATM    1  C   UNL     1      41.017 -14.347   4.488  1.00  0.00     0.034 A 
HETATM    2  C   UNL     1      41.711 -13.148   4.327  1.00  0.00     0.032 A 
HETATM    3  C   UNL     1      41.401 -12.023   5.114  1.00  0.00     0.032 A 
HETATM    4  C   UNL     1      40.380 -12.077   6.060  1.00  0.00     0.036 A 
HETATM    5  C   UNL     1      39.682 -13.281   6.215  1.00  0.00     0.032 A 
HETATM    6  C   UNL     1      39.994 -14.401   5.439  1.00  0.00     0.032 A 
ENDROOT
BRANCH   4   7
HETATM    7  N   UNL     1      40.018 -11.036   6.931  1.00  0.00    -0.309 N 
HETATM    8  C   UNL     1      40.427 -10.647   8.166  1.00  0.00     0.321 C 
HETATM    9  N   UNL     1      41.584 -11.152   8.658  1.00  0.00    -0.337 N 
HETATM   10  O   UNL     1      39.753  -9.818   8.776  1.00  0.00    -0.247 OA
HETATM   11  H   UNL     1      42.297 -11.341   7.969  1.00  0.00     0.164 HD
HETATM   12  H   UNL     1      39.233 -10.466   6.639  1.00  0.00     0.170 HD
BRANCH   9  13
HETATM   13  C   UNL     1      42.079 -10.644   9.918  1.00  0.00     0.189 C 
BRANCH  13  14
HETATM   14  C   UNL     1      43.485 -11.070  10.137  1.00  0.00     0.070 A 
HETATM   15  O   UNL     1      44.422 -10.653   9.232  1.00  0.00    -0.325 OA
HETATM   16  C   UNL     1      45.618 -11.142   9.649  1.00  0.00     0.142 A 
HETATM   17  C   UNL     1      45.470 -11.854  10.817  1.00  0.00     0.027 A 
HETATM   18  C   UNL     1      44.092 -11.807  11.133  1.00  0.00     0.036 A 
ENDBRANCH  13  14
ENDBRANCH   9  13
ENDBRANCH   4   7
BRANCH   1  19
HETATM   19  N   UNL     1      41.301 -15.539   3.791  1.00  0.00    -0.327 N 
HETATM   20  C   UNL     1      42.320 -16.447   4.037  1.00  0.00     0.227 C 
HETATM   21  O   UNL     1      43.234 -16.301   4.847  1.00  0.00    -0.273 OA
HETATM   22  H   UNL     1      40.680 -15.752   3.021  1.00  0.00     0.169 HD
BRANCH  20  23
HETATM   23  C   UNL     1      42.177 -17.728   3.209  1.00  0.00     0.159 C 
BRANCH  23  24
HETATM   24  C   UNL     1      43.234 -18.749   3.495  1.00  0.00     0.017 A 
HETATM   25  N   UNL     1      43.636 -19.070   4.773  1.00  0.00    -0.369 N 
HETATM   26  C   UNL     1      44.587 -20.055   4.723  1.00  0.00     0.088 A 
HETATM   27  H   UNL     1      43.281 -18.627   5.617  1.00  0.00     0.165 HD
HETATM   28  C   UNL     1      44.794 -20.383   3.403  1.00  0.00     0.019 A 
HETATM   29  C   UNL     1      43.943 -19.561   2.628  1.00  0.00     0.027 A 
ENDBRANCH  23  24
ENDBRANCH  20  23
ENDBRANCH   1  19
TORSDOF 6
ENDMDL
MODEL 9
REMARK VINA RESULT:      -7.4      4.167      8.283
REMARK  6 active torsions:
REMARK  status: ('A' for Active; 'I' for Inactive)
REMARK    1  A    between atoms: C_5  and  C_6 
REMARK    2  A    between atoms: C_6  and  C_7 
REMARK       I    between atoms: C_7  and  N_8 
REMARK    3  A    between atoms: N_8  and  C_9 
REMARK    4  A    between atoms: C_12  and  N_13 
REMARK       I    between atoms: N_13  and  C_14 
REMARK       I    between atoms: C_14  and  N_15 
REMARK    5  A    between atoms: N_15  and  C_16 
REMARK    6  A    between atoms: C_16  and  C_17 
ROOT
HETATM    1  C   UNL     1      41.388 -14.383   3.422  1.00  0.00     0.034 A 
HETATM    2  C   UNL     1      40.496 -14.571   4.478  1.00  0.00     0.032 A 
HETATM    3  C   UNL     1      40.943 -15.045   5.725  1.00  0.00     0.032 A 
HETATM    4  C   UNL     1      42.287 -15.355   5.928  1.00  0.00     0.036 A 
HETATM    5  C   UNL     1      43.178 -15.170   4.864  1.00  0.00     0.032 A 
HETATM    6  C   UNL     1      42.735 -14.692   3.626  1.00  0.00     0.032 A 
ENDROOT
BRANCH   4   7
HETATM    7  N   UNL     1      42.852 -15.786   7.139  1.00  0.00    -0.309 N 
HETATM    8  C   UNL     1      43.186 -16.998   7.652  1.00  0.00     0.321 C 
HETATM    9  N   UNL     1      43.249 -18.064   6.819  1.00  0.00    -0.337 N 
HETATM   10  O   UNL     1      43.460 -17.076   8.849  1.00  0.00    -0.247 OA
HETATM   11  H   UNL     1      43.554 -17.856   5.879  1.00  0.00     0.164 HD
HETATM   12  H   UNL     1      42.997 -15.069   7.840  1.00  0.00     0.170 HD
BRANCH   9  13
HETATM   13  C   UNL     1      43.722 -19.325   7.343  1.00  0.00     0.189 C 
BRANCH  13  14
HETATM   14  C   UNL     1      44.227 -20.190   6.248  1.00  0.00     0.070 A 
HETATM   15  O   UNL     1      44.185 -21.544   6.437  1.00  0.00    -0.325 OA
HETATM   16  C   UNL     1      44.673 -22.117   5.307  1.00  0.00     0.142 A 
HETATM   17  C   UNL     1      45.014 -21.155   4.385  1.00  0.00     0.027 A 
HETATM   18  C   UNL     1      44.725 -19.910   4.991  1.00  0.00     0.036 A 
ENDBRANCH  13  14
ENDBRANCH   9  13
ENDBRANCH   4   7
BRANCH   1  19
HETATM   19  N   UNL     1      41.040 -13.854   2.163  1.00  0.00    -0.327 N 
HETATM   20  C   UNL     1      40.663 -14.547   1.022  1.00  0.00     0.227 C 
HETATM   21  O   UNL     1      40.683 -15.770   0.883  1.00  0.00    -0.273 OA
HETATM   22  H   UNL     1      41.067 -12.845   2.092  1.00  0.00     0.169 HD
BRANCH  20  23
HETATM   23  C   UNL     1      40.149 -13.621  -0.085  1.00  0.00     0.159 C 
BRANCH  23  24
HETATM   24  C   UNL     1      40.215 -14.226  -1.452  1.00  0.00     0.017 A 
HETATM   25  N   UNL     1      41.332 -14.877  -1.929  1.00  0.00    -0.369 N 
HETATM   26  C   UNL     1      41.086 -15.353  -3.190  1.00  0.00     0.088 A 
HETATM   27  H   UNL     1      42.204 -14.974  -1.414  1.00  0.00     0.165 HD
HETATM   28  C   UNL     1      39.796 -15.017  -3.529  1.00  0.00     0.019 A 
HETATM   29  C   UNL     1      39.245 -14.307  -2.436  1.00  0.00     0.027 A 
ENDBRANCH  23  24
ENDBRANCH  20  23
ENDBRANCH   1  19
TORSDOF 6
ENDMDL
MODEL 10
REMARK VINA RESULT:      -7.0      5.442      9.078
REMARK  6 active torsions:
REMARK  status: ('A' for Active; 'I' for Inactive)
REMARK    1  A    between atoms: C_5  and  C_6 
REMARK    2  A    between atoms: C_6  and  C_7 
REMARK       I    between atoms: C_7  and  N_8 
REMARK    3  A    between atoms: N_8  and  C_9 
REMARK    4  A    between atoms: C_12  and  N_13 
REMARK       I    between atoms: N_13  and  C_14 
REMARK       I    between atoms: C_14  and  N_15 
REMARK    5  A    between atoms: N_15  and  C_16 
REMARK    6  A    between atoms: C_16  and  C_17 
ROOT
HETATM    1  C   UNL     1      42.211 -16.984   3.291  1.00  0.00     0.034 A 
HETATM    2  C   UNL     1      41.215 -17.547   2.492  1.00  0.00     0.032 A 
HETATM    3  C   UNL     1      40.134 -16.772   2.032  1.00  0.00     0.032 A 
HETATM    4  C   UNL     1      40.024 -15.427   2.381  1.00  0.00     0.036 A 
HETATM    5  C   UNL     1      41.023 -14.867   3.186  1.00  0.00     0.032 A 
HETATM    6  C   UNL     1      42.102 -15.635   3.637  1.00  0.00     0.032 A 
ENDROOT
BRANCH   4   7
HETATM    7  N   UNL     1      39.020 -14.548   1.942  1.00  0.00    -0.309 N 
HETATM    8  C   UNL     1      38.714 -13.978   0.749  1.00  0.00     0.321 C 
HETATM    9  N   UNL     1      39.287 -14.470  -0.376  1.00  0.00    -0.337 N 
HETATM   10  O   UNL     1      37.895 -13.059   0.727  1.00  0.00    -0.247 OA
HETATM   11  H   UNL     1      39.465 -15.464  -0.367  1.00  0.00     0.164 HD
HETATM   12  H   UNL     1      38.406 -14.182   2.660  1.00  0.00     0.170 HD
BRANCH   9  13
HETATM   13  C   UNL     1      38.868 -13.943  -1.654  1.00  0.00     0.189 C 
BRANCH  13  14
HETATM   14  C   UNL     1      40.026 -13.382  -2.395  1.00  0.00     0.070 A 
HETATM   15  O   UNL     1      39.776 -12.403  -3.317  1.00  0.00    -0.325 OA
HETATM   16  C   UNL     1      40.974 -12.038  -3.841  1.00  0.00     0.142 A 
HETATM   17  C   UNL     1      41.995 -12.754  -3.258  1.00  0.00     0.027 A 
HETATM   18  C   UNL     1      41.383 -13.621  -2.323  1.00  0.00     0.036 A 
ENDBRANCH  13  14
ENDBRANCH   9  13
ENDBRANCH   4   7
BRANCH   1  19
HETATM   19  N   UNL     1      43.358 -17.667   3.741  1.00  0.00    -0.327 N 
HETATM   20  C   UNL     1      43.526 -18.356   4.933  1.00  0.00     0.227 C 
HETATM   21  O   UNL     1      42.724 -18.388   5.865  1.00  0.00    -0.273 OA
HETATM   22  H   UNL     1      44.150 -17.650   3.111  1.00  0.00     0.169 HD
BRANCH  20  23
HETATM   23  C   UNL     1      44.835 -19.151   4.972  1.00  0.00     0.159 C 
BRANCH  23  24
HETATM   24  C   UNL     1      44.759 -20.467   4.261  1.00  0.00     0.017 A 
HETATM   25  N   UNL     1      44.879 -21.676   4.910  1.00  0.00    -0.369 N 
HETATM   26  C   UNL     1      44.734 -22.699   4.011  1.00  0.00     0.088 A 
HETATM   27  H   UNL     1      45.059 -21.778   5.906  1.00  0.00     0.165 HD
HETATM   28  C   UNL     1      44.506 -22.149   2.771  1.00  0.00     0.019 A 
HETATM   29  C   UNL     1      44.522 -20.743   2.926  1.00  0.00     0.027 A 
ENDBRANCH  23  24
ENDBRANCH  20  23
ENDBRANCH   1  19
TORSDOF 6
ENDMDL
