MODEL 1
REMARK VINA RESULT:      -7.6      0.000      0.000
REMARK  6 active torsions:
REMARK  status: ('A' for Active; 'I' for Inactive)
REMARK    1  A    between atoms: N_2  and  C_4 
REMARK    2  A    between atoms: N_2  and  C_16 
REMARK    3  A    between atoms: C_4  and  C_5 
REMARK       I    between atoms: C_5  and  N_6 
REMARK    4  A    between atoms: N_6  and  C_7 
REMARK    5  A    between atoms: C_16  and  C_17 
REMARK    6  A    between atoms: C_18  and  C_19 
ROOT
HETATM    1  C   UNL     1      42.650 -13.607   5.607  1.00  0.00     0.270 C 
HETATM    2  N   UNL     1      42.482 -14.995   6.158  1.00  0.00    -0.063 N 
HETATM    3  H   UNL     1      42.408 -14.902   7.179  1.00  0.00     0.280 HD
ENDROOT
BRANCH   2   4
HETATM    4  C   UNL     1      41.171 -15.654   5.700  1.00  0.00     0.337 C 
BRANCH   4   5
HETATM    5  C   UNL     1      40.125 -14.713   5.109  1.00  0.00     0.248 C 
HETATM    6  N   UNL     1      39.877 -14.649   3.770  1.00  0.00    -0.326 N 
HETATM    7  H   UNL     1      39.133 -13.978   3.582  1.00  0.00     0.169 HD
HETATM    8  O   UNL     1      39.465 -13.975   5.848  1.00  0.00    -0.271 OA
BRANCH   6   9
HETATM    9  C   UNL     1      40.398 -15.295   2.632  1.00  0.00     0.040 A 
HETATM   10  C   UNL     1      40.366 -16.666   2.378  1.00  0.00     0.072 A 
HETATM   11  C   UNL     1      40.912 -17.173   1.193  1.00  0.00     0.121 A 
HETATM   12  F   UNL     1      40.860 -18.494   0.977  1.00  0.00    -0.206 F 
HETATM   13  C   UNL     1      41.502 -16.351   0.249  1.00  0.00     0.084 A 
HETATM   14  C   UNL     1      41.545 -14.993   0.506  1.00  0.00     0.121 A 
HETATM   15  F   UNL     1      42.111 -14.168  -0.383  1.00  0.00    -0.206 F 
HETATM   16  C   UNL     1      41.005 -14.463   1.679  1.00  0.00     0.072 A 
ENDBRANCH   6   9
ENDBRANCH   4   5
ENDBRANCH   2   4
BRANCH   2  17
HETATM   17  C   UNL     1      43.701 -15.865   5.919  1.00  0.00     0.277 C 
BRANCH  17  18
HETATM   18  C   UNL     1      43.674 -17.122   6.714  1.00  0.00     0.016 A 
HETATM   19  C   UNL     1      43.805 -18.482   6.298  1.00  0.00     0.103 A 
HETATM   20  N   UNL     1      43.717 -19.315   7.343  1.00  0.00    -0.173 NA
HETATM   21  N   UNL     1      43.580 -18.526   8.411  1.00  0.00    -0.288 N 
HETATM   22  H   UNL     1      43.525 -18.961   9.330  1.00  0.00     0.188 HD
HETATM   23  C   UNL     1      43.527 -17.204   8.089  1.00  0.00     0.120 A 
BRANCH  19  24
HETATM   24  C   UNL     1      43.996 -19.054   4.913  1.00  0.00     0.035 A 
HETATM   25  S   UNL     1      44.985 -20.383   4.499  1.00  0.00    -0.100 SA
HETATM   26  C   UNL     1      44.565 -20.285   2.846  1.00  0.00     0.050 A 
HETATM   27  C   UNL     1      43.694 -19.248   2.603  1.00  0.00     0.008 A 
HETATM   28  C   UNL     1      43.370 -18.536   3.794  1.00  0.00     0.022 A 
ENDBRANCH  19  24
ENDBRANCH  17  18
ENDBRANCH   2  17
TORSDOF 6
ENDMDL
MODEL 2
REMARK VINA RESULT:      -7.6      4.180      7.806
REMARK  6 active torsions:
REMARK  status: ('A' for Active; 'I' for Inactive)
REMARK    1  A    between atoms: N_2  and  C_4 
REMARK    2  A    between atoms: N_2  and  C_16 
REMARK    3  A    between atoms: C_4  and  C_5 
REMARK       I    between atoms: C_5  and  N_6 
REMARK    4  A    between atoms: N_6  and  C_7 
REMARK    5  A    between atoms: C_16  and  C_17 
REMARK    6  A    between atoms: C_18  and  C_19 
ROOT
HETATM    1  C   UNL     1      39.777 -16.381   2.087  1.00  0.00     0.270 C 
HETATM    2  N   UNL     1      41.228 -16.348   1.696  1.00  0.00    -0.063 N 
HETATM    3  H   UNL     1      41.636 -15.516   2.141  1.00  0.00     0.280 HD
ENDROOT
BRANCH   2   4
HETATM    4  C   UNL     1      42.012 -17.548   2.252  1.00  0.00     0.337 C 
BRANCH   4   5
HETATM    5  C   UNL     1      43.219 -17.209   3.122  1.00  0.00     0.248 C 
HETATM    6  N   UNL     1      44.103 -18.158   3.542  1.00  0.00    -0.326 N 
HETATM    7  H   UNL     1      44.845 -17.727   4.092  1.00  0.00     0.169 HD
HETATM    8  O   UNL     1      43.426 -16.042   3.470  1.00  0.00    -0.271 OA
BRANCH   6   9
HETATM    9  C   UNL     1      44.217 -19.552   3.375  1.00  0.00     0.040 A 
HETATM   10  C   UNL     1      43.965 -20.264   2.203  1.00  0.00     0.072 A 
HETATM   11  C   UNL     1      44.133 -21.653   2.176  1.00  0.00     0.121 A 
HETATM   12  F   UNL     1      43.889 -22.306   1.031  1.00  0.00    -0.206 F 
HETATM   13  C   UNL     1      44.539 -22.363   3.292  1.00  0.00     0.084 A 
HETATM   14  C   UNL     1      44.777 -21.660   4.458  1.00  0.00     0.121 A 
HETATM   15  F   UNL     1      45.167 -22.314   5.558  1.00  0.00    -0.206 F 
HETATM   16  C   UNL     1      44.619 -20.274   4.510  1.00  0.00     0.072 A 
ENDBRANCH   6   9
ENDBRANCH   4   5
ENDBRANCH   2   4
BRANCH   2  17
HETATM   17  C   UNL     1      41.423 -16.146   0.206  1.00  0.00     0.277 C 
BRANCH  17  18
HETATM   18  C   UNL     1      41.342 -14.716  -0.194  1.00  0.00     0.016 A 
HETATM   19  C   UNL     1      40.635 -14.095  -1.269  1.00  0.00     0.103 A 
HETATM   20  N   UNL     1      40.838 -12.772  -1.275  1.00  0.00    -0.173 NA
HETATM   21  N   UNL     1      41.612 -12.529  -0.215  1.00  0.00    -0.288 N 
HETATM   22  H   UNL     1      41.866 -11.563  -0.013  1.00  0.00     0.188 HD
HETATM   23  C   UNL     1      41.961 -13.661   0.456  1.00  0.00     0.120 A 
BRANCH  19  24
HETATM   24  C   UNL     1      39.764 -14.714  -2.337  1.00  0.00     0.035 A 
HETATM   25  S   UNL     1      38.142 -14.303  -2.677  1.00  0.00    -0.100 SA
HETATM   26  C   UNL     1      38.037 -15.439  -3.949  1.00  0.00     0.050 A 
HETATM   27  C   UNL     1      39.213 -16.134  -4.109  1.00  0.00     0.008 A 
HETATM   28  C   UNL     1      40.207 -15.719  -3.177  1.00  0.00     0.022 A 
ENDBRANCH  19  24
ENDBRANCH  17  18
ENDBRANCH   2  17
TORSDOF 6
ENDMDL
MODEL 3
REMARK VINA RESULT:      -7.6      3.854      7.367
REMARK  6 active torsions:
REMARK  status: ('A' for Active; 'I' for Inactive)
REMARK    1  A    between atoms: N_2  and  C_4 
REMARK    2  A    between atoms: N_2  and  C_16 
REMARK    3  A    between atoms: C_4  and  C_5 
REMARK       I    between atoms: C_5  and  N_6 
REMARK    4  A    between atoms: N_6  and  C_7 
REMARK    5  A    between atoms: C_16  and  C_17 
REMARK    6  A    between atoms: C_18  and  C_19 
ROOT
HETATM    1  C   UNL     1      42.543 -17.084   0.721  1.00  0.00     0.270 C 
HETATM    2  N   UNL     1      41.512 -16.816   1.781  1.00  0.00    -0.063 N 
HETATM    3  H   UNL     1      40.627 -17.214   1.441  1.00  0.00     0.280 HD
ENDROOT
BRANCH   2   4
HETATM    4  C   UNL     1      41.821 -17.545   3.098  1.00  0.00     0.337 C 
BRANCH   4   5
HETATM    5  C   UNL     1      43.173 -17.227   3.733  1.00  0.00     0.248 C 
HETATM    6  N   UNL     1      44.139 -18.173   3.899  1.00  0.00    -0.326 N 
HETATM    7  H   UNL     1      44.969 -17.757   4.320  1.00  0.00     0.169 HD
HETATM    8  O   UNL     1      43.425 -16.079   4.115  1.00  0.00    -0.271 OA
BRANCH   6   9
HETATM    9  C   UNL     1      44.242 -19.549   3.614  1.00  0.00     0.040 A 
HETATM   10  C   UNL     1      43.991 -20.155   2.384  1.00  0.00     0.072 A 
HETATM   11  C   UNL     1      44.146 -21.538   2.238  1.00  0.00     0.121 A 
HETATM   12  F   UNL     1      43.903 -22.088   1.040  1.00  0.00    -0.206 F 
HETATM   13  C   UNL     1      44.538 -22.345   3.291  1.00  0.00     0.084 A 
HETATM   14  C   UNL     1      44.774 -21.747   4.515  1.00  0.00     0.121 A 
HETATM   15  F   UNL     1      45.152 -22.497   5.557  1.00  0.00    -0.206 F 
HETATM   16  C   UNL     1      44.629 -20.369   4.685  1.00  0.00     0.072 A 
ENDBRANCH   6   9
ENDBRANCH   4   5
ENDBRANCH   2   4
BRANCH   2  17
HETATM   17  C   UNL     1      41.244 -15.335   1.967  1.00  0.00     0.277 C 
BRANCH  17  18
HETATM   18  C   UNL     1      39.985 -14.893   1.309  1.00  0.00     0.016 A 
HETATM   19  C   UNL     1      39.773 -14.283   0.034  1.00  0.00     0.103 A 
HETATM   20  N   UNL     1      38.473 -14.040  -0.171  1.00  0.00    -0.173 NA
HETATM   21  N   UNL     1      37.851 -14.517   0.910  1.00  0.00    -0.288 N 
HETATM   22  H   UNL     1      36.834 -14.461   0.947  1.00  0.00     0.188 HD
HETATM   23  C   UNL     1      38.711 -15.020   1.837  1.00  0.00     0.120 A 
BRANCH  19  24
HETATM   24  C   UNL     1      40.774 -13.887  -1.025  1.00  0.00     0.035 A 
HETATM   25  S   UNL     1      41.991 -12.699  -0.869  1.00  0.00    -0.100 SA
HETATM   26  C   UNL     1      42.570 -12.967  -2.453  1.00  0.00     0.050 A 
HETATM   27  C   UNL     1      41.844 -13.938  -3.103  1.00  0.00     0.008 A 
HETATM   28  C   UNL     1      40.806 -14.465  -2.281  1.00  0.00     0.022 A 
ENDBRANCH  19  24
ENDBRANCH  17  18
ENDBRANCH   2  17
TORSDOF 6
ENDMDL
MODEL 4
REMARK VINA RESULT:      -7.5      3.416      5.744
REMARK  6 active torsions:
REMARK  status: ('A' for Active; 'I' for Inactive)
REMARK    1  A    between atoms: N_2  and  C_4 
REMARK    2  A    between atoms: N_2  and  C_16 
REMARK    3  A    between atoms: C_4  and  C_5 
REMARK       I    between atoms: C_5  and  N_6 
REMARK    4  A    between atoms: N_6  and  C_7 
REMARK    5  A    between atoms: C_16  and  C_17 
REMARK    6  A    between atoms: C_18  and  C_19 
ROOT
HETATM    1  C   UNL     1      39.451 -15.023   2.027  1.00  0.00     0.270 C 
HETATM    2  N   UNL     1      40.618 -15.675   2.712  1.00  0.00    -0.063 N 
HETATM    3  H   UNL     1      40.365 -15.770   3.704  1.00  0.00     0.280 HD
ENDROOT
BRANCH   2   4
HETATM    4  C   UNL     1      40.874 -17.103   2.205  1.00  0.00     0.337 C 
BRANCH   4   5
HETATM    5  C   UNL     1      41.876 -17.234   1.061  1.00  0.00     0.248 C 
HETATM    6  N   UNL     1      43.001 -17.996   1.164  1.00  0.00    -0.326 N 
HETATM    7  H   UNL     1      43.525 -17.968   0.290  1.00  0.00     0.169 HD
HETATM    8  O   UNL     1      41.683 -16.641  -0.005  1.00  0.00    -0.271 OA
BRANCH   6   9
HETATM    9  C   UNL     1      43.570 -18.797   2.174  1.00  0.00     0.040 A 
HETATM   10  C   UNL     1      43.988 -18.361   3.431  1.00  0.00     0.072 A 
HETATM   11  C   UNL     1      44.526 -19.273   4.346  1.00  0.00     0.121 A 
HETATM   12  F   UNL     1      44.912 -18.823   5.548  1.00  0.00    -0.206 F 
HETATM   13  C   UNL     1      44.670 -20.615   4.044  1.00  0.00     0.084 A 
HETATM   14  C   UNL     1      44.267 -21.046   2.793  1.00  0.00     0.121 A 
HETATM   15  F   UNL     1      44.394 -22.337   2.464  1.00  0.00    -0.206 F 
HETATM   16  C   UNL     1      43.725 -20.157   1.864  1.00  0.00     0.072 A 
ENDBRANCH   6   9
ENDBRANCH   4   5
ENDBRANCH   2   4
BRANCH   2  17
HETATM   17  C   UNL     1      41.860 -14.805   2.695  1.00  0.00     0.277 C 
BRANCH  17  18
HETATM   18  C   UNL     1      41.850 -13.769   3.763  1.00  0.00     0.016 A 
HETATM   19  C   UNL     1      42.087 -13.886   5.166  1.00  0.00     0.103 A 
HETATM   20  N   UNL     1      41.975 -12.697   5.772  1.00  0.00    -0.173 NA
HETATM   21  N   UNL     1      41.721 -11.826   4.794  1.00  0.00    -0.288 N 
HETATM   22  H   UNL     1      41.627 -10.840   5.036  1.00  0.00     0.188 HD
HETATM   23  C   UNL     1      41.614 -12.417   3.572  1.00  0.00     0.120 A 
BRANCH  19  24
HETATM   24  C   UNL     1      42.406 -15.109   5.993  1.00  0.00     0.035 A 
HETATM   25  S   UNL     1      41.365 -16.433   6.276  1.00  0.00    -0.100 SA
HETATM   26  C   UNL     1      42.527 -17.247   7.227  1.00  0.00     0.050 A 
HETATM   27  C   UNL     1      43.689 -16.521   7.343  1.00  0.00     0.008 A 
HETATM   28  C   UNL     1      43.618 -15.287   6.634  1.00  0.00     0.022 A 
ENDBRANCH  19  24
ENDBRANCH  17  18
ENDBRANCH   2  17
TORSDOF 6
ENDMDL
MODEL 5
REMARK VINA RESULT:      -7.5      1.433      2.115
REMARK  6 active torsions:
REMARK  status: ('A' for Active; 'I' for Inactive)
REMARK    1  A    between atoms: N_2  and  C_4 
REMARK    2  A    between atoms: N_2  and  C_16 
REMARK    3  A    between atoms: C_4  and  C_5 
REMARK       I    between atoms: C_5  and  N_6 
REMARK    4  A    between atoms: N_6  and  C_7 
REMARK    5  A    between atoms: C_16  and  C_17 
REMARK    6  A    between atoms: C_18  and  C_19 
ROOT
HETATM    1  C   UNL     1      44.345 -14.430   7.293  1.00  0.00     0.270 C 
HETATM    2  N   UNL     1      43.721 -15.698   6.781  1.00  0.00    -0.063 N 
HETATM    3  H   UNL     1      43.135 -16.068   7.541  1.00  0.00     0.280 HD
ENDROOT
BRANCH   2   4
HETATM    4  C   UNL     1      42.769 -15.449   5.600  1.00  0.00     0.337 C 
BRANCH   4   5
HETATM    5  C   UNL     1      41.445 -16.208   5.641  1.00  0.00     0.248 C 
HETATM    6  N   UNL     1      40.588 -16.233   4.581  1.00  0.00    -0.326 N 
HETATM    7  H   UNL     1      39.776 -16.808   4.801  1.00  0.00     0.169 HD
HETATM    8  O   UNL     1      41.117 -16.830   6.656  1.00  0.00    -0.271 OA
BRANCH   6   9
HETATM    9  C   UNL     1      40.588 -15.669   3.290  1.00  0.00     0.040 A 
HETATM   10  C   UNL     1      40.282 -14.347   2.971  1.00  0.00     0.072 A 
HETATM   11  C   UNL     1      40.335 -13.916   1.640  1.00  0.00     0.121 A 
HETATM   12  F   UNL     1      40.042 -12.637   1.368  1.00  0.00    -0.206 F 
HETATM   13  C   UNL     1      40.679 -14.771   0.608  1.00  0.00     0.084 A 
HETATM   14  C   UNL     1      40.969 -16.086   0.922  1.00  0.00     0.121 A 
HETATM   15  F   UNL     1      41.302 -16.941  -0.051  1.00  0.00    -0.206 F 
HETATM   16  C   UNL     1      40.926 -16.538   2.242  1.00  0.00     0.072 A 
ENDBRANCH   6   9
ENDBRANCH   4   5
ENDBRANCH   2   4
BRANCH   2  17
HETATM   17  C   UNL     1      44.748 -16.778   6.501  1.00  0.00     0.277 C 
BRANCH  17  18
HETATM   18  C   UNL     1      44.319 -18.118   6.984  1.00  0.00     0.016 A 
HETATM   19  C   UNL     1      44.028 -19.312   6.257  1.00  0.00     0.103 A 
HETATM   20  N   UNL     1      43.668 -20.302   7.085  1.00  0.00    -0.173 NA
HETATM   21  N   UNL     1      43.766 -19.787   8.313  1.00  0.00    -0.288 N 
HETATM   22  H   UNL     1      43.564 -20.391   9.108  1.00  0.00     0.188 HD
HETATM   23  C   UNL     1      44.132 -18.476   8.310  1.00  0.00     0.120 A 
BRANCH  19  24
HETATM   24  C   UNL     1      44.054 -19.568   4.769  1.00  0.00     0.035 A 
HETATM   25  S   UNL     1      44.897 -20.824   3.977  1.00  0.00    -0.100 SA
HETATM   26  C   UNL     1      44.346 -20.332   2.437  1.00  0.00     0.050 A 
HETATM   27  C   UNL     1      43.541 -19.220   2.515  1.00  0.00     0.008 A 
HETATM   28  C   UNL     1      43.376 -18.777   3.860  1.00  0.00     0.022 A 
ENDBRANCH  19  24
ENDBRANCH  17  18
ENDBRANCH   2  17
TORSDOF 6
ENDMDL
MODEL 6
REMARK VINA RESULT:      -7.3      3.016      6.079
REMARK  6 active torsions:
REMARK  status: ('A' for Active; 'I' for Inactive)
REMARK    1  A    between atoms: N_2  and  C_4 
REMARK    2  A    between atoms: N_2  and  C_16 
REMARK    3  A    between atoms: C_4  and  C_5 
REMARK       I    between atoms: C_5  and  N_6 
REMARK    4  A    between atoms: N_6  and  C_7 
REMARK    5  A    between atoms: C_16  and  C_17 
REMARK    6  A    between atoms: C_18  and  C_19 
ROOT
HETATM    1  C   UNL     1      40.775 -14.671   4.517  1.00  0.00     0.270 C 
HETATM    2  N   UNL     1      42.197 -14.621   4.999  1.00  0.00    -0.063 N 
HETATM    3  H   UNL     1      42.208 -14.016   5.830  1.00  0.00     0.280 HD
ENDROOT
BRANCH   2   4
HETATM    4  C   UNL     1      42.705 -15.993   5.472  1.00  0.00     0.337 C 
BRANCH   4   5
HETATM    5  C   UNL     1      43.878 -15.969   6.448  1.00  0.00     0.248 C 
HETATM    6  N   UNL     1      44.570 -17.094   6.782  1.00  0.00    -0.326 N 
HETATM    7  H   UNL     1      45.324 -16.864   7.428  1.00  0.00     0.169 HD
HETATM    8  O   UNL     1      44.233 -14.905   6.965  1.00  0.00    -0.271 OA
BRANCH   6   9
HETATM    9  C   UNL     1      44.482 -18.455   6.431  1.00  0.00     0.040 A 
HETATM   10  C   UNL     1      44.922 -19.028   5.238  1.00  0.00     0.072 A 
HETATM   11  C   UNL     1      44.783 -20.404   5.026  1.00  0.00     0.121 A 
HETATM   12  F   UNL     1      45.223 -20.924   3.872  1.00  0.00    -0.206 F 
HETATM   13  C   UNL     1      44.205 -21.234   5.970  1.00  0.00     0.084 A 
HETATM   14  C   UNL     1      43.756 -20.666   7.148  1.00  0.00     0.121 A 
HETATM   15  F   UNL     1      43.189 -21.438   8.082  1.00  0.00    -0.206 F 
HETATM   16  C   UNL     1      43.886 -19.297   7.384  1.00  0.00     0.072 A 
ENDBRANCH   6   9
ENDBRANCH   4   5
ENDBRANCH   2   4
BRANCH   2  17
HETATM   17  C   UNL     1      43.124 -13.953   4.002  1.00  0.00     0.277 C 
BRANCH  17  18
HETATM   18  C   UNL     1      42.561 -13.926   2.625  1.00  0.00     0.016 A 
HETATM   19  C   UNL     1      42.375 -14.982   1.681  1.00  0.00     0.103 A 
HETATM   20  N   UNL     1      41.834 -14.522   0.546  1.00  0.00    -0.173 NA
HETATM   21  N   UNL     1      41.628 -13.220   0.757  1.00  0.00    -0.288 N 
HETATM   22  H   UNL     1      41.187 -12.674   0.019  1.00  0.00     0.188 HD
HETATM   23  C   UNL     1      42.064 -12.806   1.979  1.00  0.00     0.120 A 
BRANCH  19  24
HETATM   24  C   UNL     1      42.715 -16.449   1.795  1.00  0.00     0.035 A 
HETATM   25  S   UNL     1      41.626 -17.710   2.172  1.00  0.00    -0.100 SA
HETATM   26  C   UNL     1      42.842 -18.904   2.058  1.00  0.00     0.050 A 
HETATM   27  C   UNL     1      44.066 -18.356   1.750  1.00  0.00     0.008 A 
HETATM   28  C   UNL     1      43.993 -16.941   1.602  1.00  0.00     0.022 A 
ENDBRANCH  19  24
ENDBRANCH  17  18
ENDBRANCH   2  17
TORSDOF 6
ENDMDL
MODEL 7
REMARK VINA RESULT:      -7.3      2.792      5.743
REMARK  6 active torsions:
REMARK  status: ('A' for Active; 'I' for Inactive)
REMARK    1  A    between atoms: N_2  and  C_4 
REMARK    2  A    between atoms: N_2  and  C_16 
REMARK    3  A    between atoms: C_4  and  C_5 
REMARK       I    between atoms: C_5  and  N_6 
REMARK    4  A    between atoms: N_6  and  C_7 
REMARK    5  A    between atoms: C_16  and  C_17 
REMARK    6  A    between atoms: C_18  and  C_19 
ROOT
HETATM    1  C   UNL     1      40.533 -15.428   5.972  1.00  0.00     0.270 C 
HETATM    2  N   UNL     1      41.911 -15.847   6.403  1.00  0.00    -0.063 N 
HETATM    3  H   UNL     1      42.117 -15.340   7.273  1.00  0.00     0.280 HD
ENDROOT
BRANCH   2   4
HETATM    4  C   UNL     1      41.985 -17.341   6.760  1.00  0.00     0.337 C 
BRANCH   4   5
HETATM    5  C   UNL     1      43.239 -17.785   7.508  1.00  0.00     0.248 C 
HETATM    6  N   UNL     1      44.155 -18.630   6.955  1.00  0.00    -0.326 N 
HETATM    7  H   UNL     1      44.924 -18.786   7.604  1.00  0.00     0.169 HD
HETATM    8  O   UNL     1      43.456 -17.377   8.653  1.00  0.00    -0.271 OA
BRANCH   6   9
HETATM    9  C   UNL     1      44.270 -19.300   5.721  1.00  0.00     0.040 A 
HETATM   10  C   UNL     1      44.179 -18.718   4.458  1.00  0.00     0.072 A 
HETATM   11  C   UNL     1      44.328 -19.505   3.310  1.00  0.00     0.121 A 
HETATM   12  F   UNL     1      44.242 -18.913   2.111  1.00  0.00    -0.206 F 
HETATM   13  C   UNL     1      44.557 -20.867   3.382  1.00  0.00     0.084 A 
HETATM   14  C   UNL     1      44.634 -21.448   4.635  1.00  0.00     0.121 A 
HETATM   15  F   UNL     1      44.852 -22.764   4.742  1.00  0.00    -0.206 F 
HETATM   16  C   UNL     1      44.492 -20.683   5.794  1.00  0.00     0.072 A 
ENDBRANCH   6   9
ENDBRANCH   4   5
ENDBRANCH   2   4
BRANCH   2  17
HETATM   17  C   UNL     1      42.982 -15.415   5.420  1.00  0.00     0.277 C 
BRANCH  17  18
HETATM   18  C   UNL     1      42.566 -14.249   4.596  1.00  0.00     0.016 A 
HETATM   19  C   UNL     1      42.049 -14.195   3.265  1.00  0.00     0.103 A 
HETATM   20  N   UNL     1      41.806 -12.930   2.896  1.00  0.00    -0.173 NA
HETATM   21  N   UNL     1      42.108 -12.188   3.963  1.00  0.00    -0.288 N 
HETATM   22  H   UNL     1      41.964 -11.181   3.909  1.00  0.00     0.188 HD
HETATM   23  C   UNL     1      42.588 -12.925   5.003  1.00  0.00     0.120 A 
BRANCH  19  24
HETATM   24  C   UNL     1      41.784 -15.313   2.286  1.00  0.00     0.035 A 
HETATM   25  S   UNL     1      41.828 -15.194   0.583  1.00  0.00    -0.100 SA
HETATM   26  C   UNL     1      41.442 -16.845   0.376  1.00  0.00     0.050 A 
HETATM   27  C   UNL     1      41.268 -17.482   1.583  1.00  0.00     0.008 A 
HETATM   28  C   UNL     1      41.462 -16.598   2.683  1.00  0.00     0.022 A 
ENDBRANCH  19  24
ENDBRANCH  17  18
ENDBRANCH   2  17
TORSDOF 6
ENDMDL
MODEL 8
REMARK VINA RESULT:      -7.2      3.432      6.323
REMARK  6 active torsions:
REMARK  status: ('A' for Active; 'I' for Inactive)
REMARK    1  A    between atoms: N_2  and  C_4 
REMARK    2  A    between atoms: N_2  and  C_16 
REMARK    3  A    between atoms: C_4  and  C_5 
REMARK       I    between atoms: C_5  and  N_6 
REMARK    4  A    between atoms: N_6  and  C_7 
REMARK    5  A    between atoms: C_16  and  C_17 
REMARK    6  A    between atoms: C_18  and  C_19 
ROOT
HETATM    1  C   UNL     1      40.483 -15.054   5.355  1.00  0.00     0.270 C 
HETATM    2  N   UNL     1      41.670 -15.967   5.226  1.00  0.00    -0.063 N 
HETATM    3  H   UNL     1      42.358 -15.478   4.640  1.00  0.00     0.280 HD
ENDROOT
BRANCH   2   4
HETATM    4  C   UNL     1      42.368 -16.215   6.573  1.00  0.00     0.337 C 
BRANCH   4   5
HETATM    5  C   UNL     1      43.890 -16.103   6.565  1.00  0.00     0.248 C 
HETATM    6  N   UNL     1      44.700 -17.197   6.494  1.00  0.00    -0.326 N 
HETATM    7  H   UNL     1      45.678 -16.909   6.480  1.00  0.00     0.169 HD
HETATM    8  O   UNL     1      44.431 -14.994   6.621  1.00  0.00    -0.271 OA
BRANCH   6   9
HETATM    9  C   UNL     1      44.487 -18.587   6.424  1.00  0.00     0.040 A 
HETATM   10  C   UNL     1      43.887 -19.378   7.403  1.00  0.00     0.072 A 
HETATM   11  C   UNL     1      43.726 -20.752   7.195  1.00  0.00     0.121 A 
HETATM   12  F   UNL     1      43.138 -21.482   8.153  1.00  0.00    -0.206 F 
HETATM   13  C   UNL     1      44.157 -21.371   6.035  1.00  0.00     0.084 A 
HETATM   14  C   UNL     1      44.764 -20.591   5.069  1.00  0.00     0.121 A 
HETATM   15  F   UNL     1      45.197 -21.157   3.936  1.00  0.00    -0.206 F 
HETATM   16  C   UNL     1      44.933 -19.218   5.252  1.00  0.00     0.072 A 
ENDBRANCH   6   9
ENDBRANCH   4   5
ENDBRANCH   2   4
BRANCH   2  17
HETATM   17  C   UNL     1      41.340 -17.246   4.481  1.00  0.00     0.277 C 
BRANCH  17  18
HETATM   18  C   UNL     1      41.949 -17.293   3.124  1.00  0.00     0.016 A 
HETATM   19  C   UNL     1      41.710 -16.478   1.975  1.00  0.00     0.103 A 
HETATM   20  N   UNL     1      42.476 -16.864   0.947  1.00  0.00    -0.173 NA
HETATM   21  N   UNL     1      43.223 -17.864   1.420  1.00  0.00    -0.288 N 
HETATM   22  H   UNL     1      43.910 -18.291   0.800  1.00  0.00     0.188 HD
HETATM   23  C   UNL     1      42.934 -18.176   2.713  1.00  0.00     0.120 A 
BRANCH  19  24
HETATM   24  C   UNL     1      40.748 -15.329   1.789  1.00  0.00     0.035 A 
HETATM   25  S   UNL     1      41.169 -13.695   1.529  1.00  0.00    -0.100 SA
HETATM   26  C   UNL     1      39.536 -13.205   1.431  1.00  0.00     0.050 A 
HETATM   27  C   UNL     1      38.676 -14.264   1.606  1.00  0.00     0.008 A 
HETATM   28  C   UNL     1      39.375 -15.488   1.816  1.00  0.00     0.022 A 
ENDBRANCH  19  24
ENDBRANCH  17  18
ENDBRANCH   2  17
TORSDOF 6
ENDMDL
MODEL 9
REMARK VINA RESULT:      -7.2      3.864      7.121
REMARK  6 active torsions:
REMARK  status: ('A' for Active; 'I' for Inactive)
REMARK    1  A    between atoms: N_2  and  C_4 
REMARK    2  A    between atoms: N_2  and  C_16 
REMARK    3  A    between atoms: C_4  and  C_5 
REMARK       I    between atoms: C_5  and  N_6 
REMARK    4  A    between atoms: N_6  and  C_7 
REMARK    5  A    between atoms: C_16  and  C_17 
REMARK    6  A    between atoms: C_18  and  C_19 
ROOT
HETATM    1  C   UNL     1      42.950 -17.096   1.185  1.00  0.00     0.270 C 
HETATM    2  N   UNL     1      41.687 -17.450   1.919  1.00  0.00    -0.063 N 
HETATM    3  H   UNL     1      41.328 -18.312   1.492  1.00  0.00     0.280 HD
ENDROOT
BRANCH   2   4
HETATM    4  C   UNL     1      41.942 -17.787   3.397  1.00  0.00     0.337 C 
BRANCH   4   5
HETATM    5  C   UNL     1      43.315 -17.400   3.941  1.00  0.00     0.248 C 
HETATM    6  N   UNL     1      44.310 -18.313   4.122  1.00  0.00    -0.326 N 
HETATM    7  H   UNL     1      45.149 -17.853   4.472  1.00  0.00     0.169 HD
HETATM    8  O   UNL     1      43.559 -16.224   4.231  1.00  0.00    -0.271 OA
BRANCH   6   9
HETATM    9  C   UNL     1      44.430 -19.703   3.926  1.00  0.00     0.040 A 
HETATM   10  C   UNL     1      44.710 -20.651   4.909  1.00  0.00     0.072 A 
HETATM   11  C   UNL     1      44.787 -22.008   4.574  1.00  0.00     0.121 A 
HETATM   12  F   UNL     1      45.051 -22.894   5.544  1.00  0.00    -0.206 F 
HETATM   13  C   UNL     1      44.602 -22.453   3.277  1.00  0.00     0.084 A 
HETATM   14  C   UNL     1      44.337 -21.512   2.299  1.00  0.00     0.121 A 
HETATM   15  F   UNL     1      44.156 -21.905   1.033  1.00  0.00    -0.206 F 
HETATM   16  C   UNL     1      44.253 -20.154   2.609  1.00  0.00     0.072 A 
ENDBRANCH   6   9
ENDBRANCH   4   5
ENDBRANCH   2   4
BRANCH   2  17
HETATM   17  C   UNL     1      40.594 -16.416   1.724  1.00  0.00     0.277 C 
BRANCH  17  18
HETATM   18  C   UNL     1      41.133 -15.061   1.427  1.00  0.00     0.016 A 
HETATM   19  C   UNL     1      41.125 -14.309   0.213  1.00  0.00     0.103 A 
HETATM   20  N   UNL     1      41.725 -13.124   0.380  1.00  0.00    -0.173 NA
HETATM   21  N   UNL     1      42.071 -13.082   1.668  1.00  0.00    -0.288 N 
HETATM   22  H   UNL     1      42.522 -12.240   2.021  1.00  0.00     0.188 HD
HETATM   23  C   UNL     1      41.759 -14.226   2.338  1.00  0.00     0.120 A 
BRANCH  19  24
HETATM   24  C   UNL     1      40.578 -14.675  -1.146  1.00  0.00     0.035 A 
HETATM   25  S   UNL     1      39.276 -13.914  -1.947  1.00  0.00    -0.100 SA
HETATM   26  C   UNL     1      39.410 -14.936  -3.309  1.00  0.00     0.050 A 
HETATM   27  C   UNL     1      40.422 -15.856  -3.157  1.00  0.00     0.008 A 
HETATM   28  C   UNL     1      41.092 -15.708  -1.908  1.00  0.00     0.022 A 
ENDBRANCH  19  24
ENDBRANCH  17  18
ENDBRANCH   2  17
TORSDOF 6
ENDMDL
MODEL 10
REMARK VINA RESULT:      -7.1      3.500      6.901
REMARK  6 active torsions:
REMARK  status: ('A' for Active; 'I' for Inactive)
REMARK    1  A    between atoms: N_2  and  C_4 
REMARK    2  A    between atoms: N_2  and  C_16 
REMARK    3  A    between atoms: C_4  and  C_5 
REMARK       I    between atoms: C_5  and  N_6 
REMARK    4  A    between atoms: N_6  and  C_7 
REMARK    5  A    between atoms: C_16  and  C_17 
REMARK    6  A    between atoms: C_18  and  C_19 
ROOT
HETATM    1  C   UNL     1      41.662 -14.130   3.735  1.00  0.00     0.270 C 
HETATM    2  N   UNL     1      41.669 -15.628   3.604  1.00  0.00    -0.063 N 
HETATM    3  H   UNL     1      42.558 -15.882   3.156  1.00  0.00     0.280 HD
ENDROOT
BRANCH   2   4
HETATM    4  C   UNL     1      41.669 -16.335   4.969  1.00  0.00     0.337 C 
BRANCH   4   5
HETATM    5  C   UNL     1      42.990 -16.310   5.732  1.00  0.00     0.248 C 
HETATM    6  N   UNL     1      43.980 -17.218   5.503  1.00  0.00    -0.326 N 
HETATM    7  H   UNL     1      44.784 -17.018   6.096  1.00  0.00     0.169 HD
HETATM    8  O   UNL     1      43.196 -15.445   6.590  1.00  0.00    -0.271 OA
BRANCH   6   9
HETATM    9  C   UNL     1      44.134 -18.325   4.645  1.00  0.00     0.040 A 
HETATM   10  C   UNL     1      43.792 -18.372   3.294  1.00  0.00     0.072 A 
HETATM   11  C   UNL     1      44.012 -19.540   2.554  1.00  0.00     0.121 A 
HETATM   12  F   UNL     1      43.679 -19.549   1.256  1.00  0.00    -0.206 F 
HETATM   13  C   UNL     1      44.559 -20.675   3.125  1.00  0.00     0.084 A 
HETATM   14  C   UNL     1      44.887 -20.633   4.468  1.00  0.00     0.121 A 
HETATM   15  F   UNL     1      45.415 -21.714   5.055  1.00  0.00    -0.206 F 
HETATM   16  C   UNL     1      44.679 -19.480   5.226  1.00  0.00     0.072 A 
ENDBRANCH   6   9
ENDBRANCH   4   5
ENDBRANCH   2   4
BRANCH   2  17
HETATM   17  C   UNL     1      40.586 -16.133   2.670  1.00  0.00     0.277 C 
BRANCH  17  18
HETATM   18  C   UNL     1      40.890 -15.861   1.240  1.00  0.00     0.016 A 
HETATM   19  C   UNL     1      40.360 -14.874   0.353  1.00  0.00     0.103 A 
HETATM   20  N   UNL     1      40.908 -14.979  -0.864  1.00  0.00    -0.173 NA
HETATM   21  N   UNL     1      41.799 -15.968  -0.765  1.00  0.00    -0.288 N 
HETATM   22  H   UNL     1      42.361 -16.198  -1.584  1.00  0.00     0.188 HD
HETATM   23  C   UNL     1      41.815 -16.546   0.468  1.00  0.00     0.120 A 
BRANCH  19  24
HETATM   24  C   UNL     1      39.313 -13.816   0.602  1.00  0.00     0.035 A 
HETATM   25  S   UNL     1      39.601 -12.214   1.119  1.00  0.00    -0.100 SA
HETATM   26  C   UNL     1      37.939 -11.822   1.100  1.00  0.00     0.050 A 
HETATM   27  C   UNL     1      37.167 -12.895   0.719  1.00  0.00     0.008 A 
HETATM   28  C   UNL     1      37.959 -14.045   0.436  1.00  0.00     0.022 A 
ENDBRANCH  19  24
ENDBRANCH  17  18
ENDBRANCH   2  17
TORSDOF 6
ENDMDL
