MODEL 1
REMARK VINA RESULT:      -7.5      0.000      0.000
REMARK  4 active torsions:
REMARK  status: ('A' for Active; 'I' for Inactive)
REMARK    1  A    between atoms: O_2  and  C_3 
REMARK    2  A    between atoms: C_4  and  O_5 
REMARK    3  A    between atoms: C_9  and  N_10 
REMARK    4  A    between atoms: N_10  and  C_11 
ROOT
HETATM    1  C   UNL     1      44.363 -20.013   4.264  1.00  0.00     0.102 A 
HETATM    2  C   UNL     1      44.056 -18.723   4.712  1.00  0.00     0.118 A 
HETATM    3  C   UNL     1      43.691 -17.780   3.757  1.00  0.00     0.085 A 
HETATM    4  C   UNL     1      43.652 -18.060   2.401  1.00  0.00     0.005 A 
HETATM    5  C   UNL     1      43.238 -16.852   1.659  1.00  0.00     0.245 A 
HETATM    6  O   UNL     1      43.052 -15.871   2.690  1.00  0.00    -0.291 OA
HETATM    7  C   UNL     1      43.296 -16.387   3.936  1.00  0.00     0.298 A 
HETATM    8  O   UNL     1      43.170 -15.743   4.954  1.00  0.00    -0.259 OA
HETATM    9  C   UNL     1      43.996 -19.318   1.939  1.00  0.00     0.015 A 
HETATM   10  C   UNL     1      44.354 -20.289   2.879  1.00  0.00     0.040 A 
ENDROOT
BRANCH   5  11
HETATM   11  N   UNL     1      41.992 -17.067   0.945  1.00  0.00    -0.248 NA
HETATM   12  H   UNL     1      42.174 -17.455   0.020  1.00  0.00     0.132 HD
BRANCH  11  13
HETATM   13  C   UNL     1      41.005 -16.087   0.912  1.00  0.00     0.082 A 
HETATM   14  N   UNL     1      39.985 -16.082   1.791  1.00  0.00    -0.355 N 
HETATM   15  H   UNL     1      39.974 -16.815   2.505  1.00  0.00     0.166 HD
HETATM   16  C   UNL     1      38.967 -15.210   1.750  1.00  0.00     0.108 A 
HETATM   17  C   UNL     1      38.914 -14.257   0.745  1.00  0.00     0.026 A 
HETATM   18 BR   UNL     1      37.490 -13.026   0.678  1.00  0.00    -0.050 Br
HETATM   19  C   UNL     1      39.913 -14.237  -0.220  1.00  0.00     0.024 A 
HETATM   20  C   UNL     1      40.951 -15.168  -0.145  1.00  0.00     0.043 A 
ENDBRANCH  11  13
ENDBRANCH   5  11
BRANCH   2  21
HETATM   21  O   UNL     1      44.047 -18.406   6.037  1.00  0.00    -0.352 OA
HETATM   22  C   UNL     1      45.343 -18.035   6.515  1.00  0.00     0.210 C 
ENDBRANCH   2  21
BRANCH   1  23
HETATM   23  O   UNL     1      44.733 -21.091   5.020  1.00  0.00    -0.353 OA
HETATM   24  C   UNL     1      44.711 -22.371   4.396  1.00  0.00     0.210 C 
ENDBRANCH   1  23
TORSDOF 4
ENDMDL
MODEL 2
REMARK VINA RESULT:      -7.2      1.641      2.340
REMARK  4 active torsions:
REMARK  status: ('A' for Active; 'I' for Inactive)
REMARK    1  A    between atoms: O_2  and  C_3 
REMARK    2  A    between atoms: C_4  and  O_5 
REMARK    3  A    between atoms: C_9  and  N_10 
REMARK    4  A    between atoms: N_10  and  C_11 
ROOT
HETATM    1  C   UNL     1      44.198 -19.804   2.872  1.00  0.00     0.102 A 
HETATM    2  C   UNL     1      44.366 -19.267   4.153  1.00  0.00     0.118 A 
HETATM    3  C   UNL     1      43.699 -18.081   4.447  1.00  0.00     0.085 A 
HETATM    4  C   UNL     1      42.917 -17.411   3.521  1.00  0.00     0.005 A 
HETATM    5  C   UNL     1      42.361 -16.190   4.139  1.00  0.00     0.245 A 
HETATM    6  O   UNL     1      42.889 -16.216   5.473  1.00  0.00    -0.291 OA
HETATM    7  C   UNL     1      43.668 -17.322   5.692  1.00  0.00     0.298 A 
HETATM    8  O   UNL     1      44.190 -17.561   6.758  1.00  0.00    -0.259 OA
HETATM    9  C   UNL     1      42.778 -17.906   2.237  1.00  0.00     0.015 A 
HETATM   10  C   UNL     1      43.426 -19.103   1.920  1.00  0.00     0.040 A 
ENDROOT
BRANCH   5  11
HETATM   11  N   UNL     1      40.910 -16.226   4.176  1.00  0.00    -0.248 NA
HETATM   12  H   UNL     1      40.574 -17.181   4.056  1.00  0.00     0.132 HD
BRANCH  11  13
HETATM   13  C   UNL     1      40.149 -15.313   3.452  1.00  0.00     0.082 A 
HETATM   14  N   UNL     1      39.403 -15.695   2.398  1.00  0.00    -0.355 N 
HETATM   15  H   UNL     1      39.395 -16.690   2.160  1.00  0.00     0.166 HD
HETATM   16  C   UNL     1      38.718 -14.844   1.619  1.00  0.00     0.108 A 
HETATM   17  C   UNL     1      38.776 -13.482   1.869  1.00  0.00     0.026 A 
HETATM   18 BR   UNL     1      37.818 -12.277   0.783  1.00  0.00    -0.050 Br
HETATM   19  C   UNL     1      39.563 -13.019   2.914  1.00  0.00     0.024 A 
HETATM   20  C   UNL     1      40.266 -13.938   3.696  1.00  0.00     0.043 A 
ENDBRANCH  11  13
ENDBRANCH   5  11
BRANCH   2  21
HETATM   21  O   UNL     1      45.098 -19.904   5.109  1.00  0.00    -0.352 OA
HETATM   22  C   UNL     1      44.365 -20.953   5.748  1.00  0.00     0.210 C 
ENDBRANCH   2  21
BRANCH   1  23
HETATM   23  O   UNL     1      44.744 -20.954   2.372  1.00  0.00    -0.353 OA
HETATM   24  C   UNL     1      43.867 -21.874   1.730  1.00  0.00     0.210 C 
ENDBRANCH   1  23
TORSDOF 4
ENDMDL
MODEL 3
REMARK VINA RESULT:      -7.1      1.696      3.050
REMARK  4 active torsions:
REMARK  status: ('A' for Active; 'I' for Inactive)
REMARK    1  A    between atoms: O_2  and  C_3 
REMARK    2  A    between atoms: C_4  and  O_5 
REMARK    3  A    between atoms: C_9  and  N_10 
REMARK    4  A    between atoms: N_10  and  C_11 
ROOT
HETATM    1  C   UNL     1      44.417 -18.445   5.633  1.00  0.00     0.102 A 
HETATM    2  C   UNL     1      44.502 -19.441   4.655  1.00  0.00     0.118 A 
HETATM    3  C   UNL     1      43.774 -19.257   3.483  1.00  0.00     0.085 A 
HETATM    4  C   UNL     1      42.960 -18.157   3.271  1.00  0.00     0.005 A 
HETATM    5  C   UNL     1      42.323 -18.264   1.942  1.00  0.00     0.245 A 
HETATM    6  O   UNL     1      42.831 -19.502   1.424  1.00  0.00    -0.291 OA
HETATM    7  C   UNL     1      43.697 -20.105   2.299  1.00  0.00     0.298 A 
HETATM    8  O   UNL     1      44.266 -21.145   2.053  1.00  0.00    -0.259 OA
HETATM    9  C   UNL     1      42.831 -17.185   4.247  1.00  0.00     0.015 A 
HETATM   10  C   UNL     1      43.562 -17.340   5.428  1.00  0.00     0.040 A 
ENDROOT
BRANCH   5  11
HETATM   11  N   UNL     1      42.712 -17.165   1.076  1.00  0.00    -0.248 NA
HETATM   12  H   UNL     1      43.524 -16.681   1.457  1.00  0.00     0.132 HD
BRANCH  11  13
HETATM   13  C   UNL     1      41.766 -16.276   0.574  1.00  0.00     0.082 A 
HETATM   14  N   UNL     1      41.813 -15.839  -0.699  1.00  0.00    -0.355 N 
HETATM   15  H   UNL     1      42.559 -16.203  -1.296  1.00  0.00     0.166 HD
HETATM   16  C   UNL     1      40.975 -14.922  -1.205  1.00  0.00     0.108 A 
HETATM   17  C   UNL     1      40.005 -14.351  -0.396  1.00  0.00     0.026 A 
HETATM   18 BR   UNL     1      38.822 -13.064  -1.097  1.00  0.00    -0.050 Br
HETATM   19  C   UNL     1      39.932 -14.727   0.938  1.00  0.00     0.024 A 
HETATM   20  C   UNL     1      40.829 -15.679   1.428  1.00  0.00     0.043 A 
ENDBRANCH  11  13
ENDBRANCH   5  11
BRANCH   2  21
HETATM   21  O   UNL     1      45.312 -20.526   4.802  1.00  0.00    -0.352 OA
HETATM   22  C   UNL     1      44.662 -21.603   5.482  1.00  0.00     0.210 C 
ENDBRANCH   2  21
BRANCH   1  23
HETATM   23  O   UNL     1      45.048 -18.412   6.846  1.00  0.00    -0.353 OA
HETATM   24  C   UNL     1      44.242 -18.556   8.011  1.00  0.00     0.210 C 
ENDBRANCH   1  23
TORSDOF 4
ENDMDL
MODEL 4
REMARK VINA RESULT:      -7.0      2.123      2.560
REMARK  4 active torsions:
REMARK  status: ('A' for Active; 'I' for Inactive)
REMARK    1  A    between atoms: O_2  and  C_3 
REMARK    2  A    between atoms: C_4  and  O_5 
REMARK    3  A    between atoms: C_9  and  N_10 
REMARK    4  A    between atoms: N_10  and  C_11 
ROOT
HETATM    1  C   UNL     1      43.477 -18.817   3.210  1.00  0.00     0.102 A 
HETATM    2  C   UNL     1      42.510 -17.881   3.593  1.00  0.00     0.118 A 
HETATM    3  C   UNL     1      42.145 -16.914   2.662  1.00  0.00     0.085 A 
HETATM    4  C   UNL     1      42.718 -16.828   1.405  1.00  0.00     0.005 A 
HETATM    5  C   UNL     1      42.123 -15.695   0.667  1.00  0.00     0.245 A 
HETATM    6  O   UNL     1      41.179 -15.146   1.598  1.00  0.00    -0.291 OA
HETATM    7  C   UNL     1      41.156 -15.848   2.776  1.00  0.00     0.298 A 
HETATM    8  O   UNL     1      40.412 -15.576   3.691  1.00  0.00    -0.259 OA
HETATM    9  C   UNL     1      43.708 -17.718   1.028  1.00  0.00     0.015 A 
HETATM   10  C   UNL     1      44.084 -18.709   1.940  1.00  0.00     0.040 A 
ENDROOT
BRANCH   5  11
HETATM   11  N   UNL     1      41.438 -16.142  -0.532  1.00  0.00    -0.248 NA
HETATM   12  H   UNL     1      42.077 -16.654  -1.138  1.00  0.00     0.132 HD
BRANCH  11  13
HETATM   13  C   UNL     1      40.617 -15.282  -1.254  1.00  0.00     0.082 A 
HETATM   14  N   UNL     1      39.603 -14.616  -0.669  1.00  0.00    -0.355 N 
HETATM   15  H   UNL     1      39.470 -14.747   0.336  1.00  0.00     0.166 HD
HETATM   16  C   UNL     1      38.735 -13.840  -1.335  1.00  0.00     0.108 A 
HETATM   17  C   UNL     1      38.842 -13.708  -2.711  1.00  0.00     0.026 A 
HETATM   18 BR   UNL     1      37.630 -12.620  -3.657  1.00  0.00    -0.050 Br
HETATM   19  C   UNL     1      39.839 -14.404  -3.381  1.00  0.00     0.024 A 
HETATM   20  C   UNL     1      40.718 -15.207  -2.650  1.00  0.00     0.043 A 
ENDBRANCH  11  13
ENDBRANCH   5  11
BRANCH   2  21
HETATM   21  O   UNL     1      41.892 -17.942   4.806  1.00  0.00    -0.352 OA
HETATM   22  C   UNL     1      42.654 -17.307   5.837  1.00  0.00     0.210 C 
ENDBRANCH   2  21
BRANCH   1  23
HETATM   23  O   UNL     1      43.976 -19.852   3.952  1.00  0.00    -0.353 OA
HETATM   24  C   UNL     1      44.699 -20.866   3.264  1.00  0.00     0.210 C 
ENDBRANCH   1  23
TORSDOF 4
ENDMDL
MODEL 5
REMARK VINA RESULT:      -6.6      2.183      3.314
REMARK  4 active torsions:
REMARK  status: ('A' for Active; 'I' for Inactive)
REMARK    1  A    between atoms: O_2  and  C_3 
REMARK    2  A    between atoms: C_4  and  O_5 
REMARK    3  A    between atoms: C_9  and  N_10 
REMARK    4  A    between atoms: N_10  and  C_11 
ROOT
HETATM    1  C   UNL     1      42.991 -18.141   6.169  1.00  0.00     0.102 A 
HETATM    2  C   UNL     1      43.576 -18.472   4.941  1.00  0.00     0.118 A 
HETATM    3  C   UNL     1      42.931 -18.043   3.785  1.00  0.00     0.085 A 
HETATM    4  C   UNL     1      41.738 -17.341   3.807  1.00  0.00     0.005 A 
HETATM    5  C   UNL     1      41.314 -17.044   2.423  1.00  0.00     0.245 A 
HETATM    6  O   UNL     1      42.349 -17.632   1.622  1.00  0.00    -0.291 OA
HETATM    7  C   UNL     1      43.322 -18.216   2.390  1.00  0.00     0.298 A 
HETATM    8  O   UNL     1      44.304 -18.746   1.921  1.00  0.00    -0.259 OA
HETATM    9  C   UNL     1      41.125 -17.045   5.012  1.00  0.00     0.015 A 
HETATM   10  C   UNL     1      41.759 -17.453   6.189  1.00  0.00     0.040 A 
ENDROOT
BRANCH   5  11
HETATM   11  N   UNL     1      41.250 -15.613   2.182  1.00  0.00    -0.248 NA
HETATM   12  H   UNL     1      40.563 -15.179   2.798  1.00  0.00     0.132 HD
BRANCH  11  13
HETATM   13  C   UNL     1      41.182 -15.105   0.889  1.00  0.00     0.082 A 
HETATM   14  N   UNL     1      40.982 -15.905  -0.175  1.00  0.00    -0.355 N 
HETATM   15  H   UNL     1      40.857 -16.904   0.003  1.00  0.00     0.166 HD
HETATM   16  C   UNL     1      40.991 -15.476  -1.446  1.00  0.00     0.108 A 
HETATM   17  C   UNL     1      41.238 -14.140  -1.721  1.00  0.00     0.026 A 
HETATM   18 BR   UNL     1      41.251 -13.525  -3.502  1.00  0.00    -0.050 Br
HETATM   19  C   UNL     1      41.496 -13.270  -0.671  1.00  0.00     0.024 A 
HETATM   20  C   UNL     1      41.486 -13.759   0.637  1.00  0.00     0.043 A 
ENDBRANCH  11  13
ENDBRANCH   5  11
BRANCH   2  21
HETATM   21  O   UNL     1      44.764 -19.133   4.866  1.00  0.00    -0.352 OA
HETATM   22  C   UNL     1      44.606 -20.550   4.973  1.00  0.00     0.210 C 
ENDBRANCH   2  21
BRANCH   1  23
HETATM   23  O   UNL     1      43.451 -18.448   7.420  1.00  0.00    -0.353 OA
HETATM   24  C   UNL     1      43.446 -17.410   8.395  1.00  0.00     0.210 C 
ENDBRANCH   1  23
TORSDOF 4
ENDMDL
MODEL 6
REMARK VINA RESULT:      -6.6      3.743      7.300
REMARK  4 active torsions:
REMARK  status: ('A' for Active; 'I' for Inactive)
REMARK    1  A    between atoms: O_2  and  C_3 
REMARK    2  A    between atoms: C_4  and  O_5 
REMARK    3  A    between atoms: C_9  and  N_10 
REMARK    4  A    between atoms: N_10  and  C_11 
ROOT
HETATM    1  C   UNL     1      40.656 -12.607  -1.526  1.00  0.00     0.102 A 
HETATM    2  C   UNL     1      41.457 -12.611  -0.378  1.00  0.00     0.118 A 
HETATM    3  C   UNL     1      40.995 -13.319   0.727  1.00  0.00     0.085 A 
HETATM    4  C   UNL     1      39.779 -13.981   0.740  1.00  0.00     0.005 A 
HETATM    5  C   UNL     1      39.581 -14.622   2.056  1.00  0.00     0.245 A 
HETATM    6  O   UNL     1      40.766 -14.271   2.784  1.00  0.00    -0.291 OA
HETATM    7  C   UNL     1      41.626 -13.517   2.027  1.00  0.00     0.298 A 
HETATM    8  O   UNL     1      42.700 -13.135   2.433  1.00  0.00    -0.259 OA
HETATM    9  C   UNL     1      38.956 -13.949  -0.372  1.00  0.00     0.015 A 
HETATM   10  C   UNL     1      39.402 -13.256  -1.500  1.00  0.00     0.040 A 
ENDROOT
BRANCH   5  11
HETATM   11  N   UNL     1      39.480 -16.066   1.934  1.00  0.00    -0.248 NA
HETATM   12  H   UNL     1      38.573 -16.389   2.266  1.00  0.00     0.132 HD
BRANCH  11  13
HETATM   13  C   UNL     1      40.513 -16.897   2.357  1.00  0.00     0.082 A 
HETATM   14  N   UNL     1      40.834 -17.017   3.659  1.00  0.00    -0.355 N 
HETATM   15  H   UNL     1      40.273 -16.492   4.334  1.00  0.00     0.166 HD
HETATM   16  C   UNL     1      41.871 -17.739   4.110  1.00  0.00     0.108 A 
HETATM   17  C   UNL     1      42.697 -18.397   3.212  1.00  0.00     0.026 A 
HETATM   18 BR   UNL     1      44.155 -19.415   3.833  1.00  0.00    -0.050 Br
HETATM   19  C   UNL     1      42.446 -18.277   1.852  1.00  0.00     0.024 A 
HETATM   20  C   UNL     1      41.361 -17.509   1.424  1.00  0.00     0.043 A 
ENDBRANCH  11  13
ENDBRANCH   5  11
BRANCH   2  21
HETATM   21  O   UNL     1      42.675 -12.002  -0.351  1.00  0.00    -0.352 OA
HETATM   22  C   UNL     1      42.574 -10.592  -0.135  1.00  0.00     0.210 C 
ENDBRANCH   2  21
BRANCH   1  23
HETATM   23  O   UNL     1      40.913 -11.991  -2.720  1.00  0.00    -0.353 OA
HETATM   24  C   UNL     1      41.388 -12.803  -3.789  1.00  0.00     0.210 C 
ENDBRANCH   1  23
TORSDOF 4
ENDMDL
MODEL 7
REMARK VINA RESULT:      -6.4      3.592      7.252
REMARK  4 active torsions:
REMARK  status: ('A' for Active; 'I' for Inactive)
REMARK    1  A    between atoms: O_2  and  C_3 
REMARK    2  A    between atoms: C_4  and  O_5 
REMARK    3  A    between atoms: C_9  and  N_10 
REMARK    4  A    between atoms: N_10  and  C_11 
ROOT
HETATM    1  C   UNL     1      40.486 -14.683  -0.555  1.00  0.00     0.102 A 
HETATM    2  C   UNL     1      40.090 -14.315   0.735  1.00  0.00     0.118 A 
HETATM    3  C   UNL     1      40.498 -15.127   1.789  1.00  0.00     0.085 A 
HETATM    4  C   UNL     1      41.242 -16.280   1.605  1.00  0.00     0.005 A 
HETATM    5  C   UNL     1      41.502 -16.914   2.914  1.00  0.00     0.245 A 
HETATM    6  O   UNL     1      40.849 -16.041   3.846  1.00  0.00    -0.291 OA
HETATM    7  C   UNL     1      40.261 -14.972   3.220  1.00  0.00     0.298 A 
HETATM    8  O   UNL     1      39.680 -14.095   3.819  1.00  0.00    -0.259 OA
HETATM    9  C   UNL     1      41.602 -16.681   0.331  1.00  0.00     0.015 A 
HETATM   10  C   UNL     1      41.217 -15.876  -0.745  1.00  0.00     0.040 A 
ENDROOT
BRANCH   5  11
HETATM   11  N   UNL     1      42.924 -16.977   3.201  1.00  0.00    -0.248 NA
HETATM   12  H   UNL     1      43.458 -16.530   2.456  1.00  0.00     0.132 HD
BRANCH  11  13
HETATM   13  C   UNL     1      43.519 -18.159   3.628  1.00  0.00     0.082 A 
HETATM   14  N   UNL     1      43.863 -19.131   2.761  1.00  0.00    -0.355 N 
HETATM   15  H   UNL     1      43.691 -18.959   1.768  1.00  0.00     0.166 HD
HETATM   16  C   UNL     1      44.363 -20.320   3.131  1.00  0.00     0.108 A 
HETATM   17  C   UNL     1      44.530 -20.611   4.475  1.00  0.00     0.026 A 
HETATM   18 BR   UNL     1      45.233 -22.276   5.006  1.00  0.00    -0.050 Br
HETATM   19  C   UNL     1      44.154 -19.668   5.422  1.00  0.00     0.024 A 
HETATM   20  C   UNL     1      43.630 -18.445   4.996  1.00  0.00     0.043 A 
ENDBRANCH  11  13
ENDBRANCH   5  11
BRANCH   2  21
HETATM   21  O   UNL     1      39.386 -13.173   0.973  1.00  0.00    -0.352 OA
HETATM   22  C   UNL     1      37.976 -13.364   0.829  1.00  0.00     0.210 C 
ENDBRANCH   2  21
BRANCH   1  23
HETATM   23  O   UNL     1      40.210 -14.035  -1.728  1.00  0.00    -0.353 OA
HETATM   24  C   UNL     1      39.846 -14.832  -2.850  1.00  0.00     0.210 C 
ENDBRANCH   1  23
TORSDOF 4
ENDMDL
MODEL 8
REMARK VINA RESULT:      -6.4      1.873      2.999
REMARK  4 active torsions:
REMARK  status: ('A' for Active; 'I' for Inactive)
REMARK    1  A    between atoms: O_2  and  C_3 
REMARK    2  A    between atoms: C_4  and  O_5 
REMARK    3  A    between atoms: C_9  and  N_10 
REMARK    4  A    between atoms: N_10  and  C_11 
ROOT
HETATM    1  C   UNL     1      43.288 -18.818   5.036  1.00  0.00     0.102 A 
HETATM    2  C   UNL     1      43.578 -18.672   3.675  1.00  0.00     0.118 A 
HETATM    3  C   UNL     1      42.714 -17.891   2.913  1.00  0.00     0.085 A 
HETATM    4  C   UNL     1      41.583 -17.291   3.439  1.00  0.00     0.005 A 
HETATM    5  C   UNL     1      40.880 -16.545   2.375  1.00  0.00     0.245 A 
HETATM    6  O   UNL     1      41.692 -16.771   1.214  1.00  0.00    -0.291 OA
HETATM    7  C   UNL     1      42.786 -17.547   1.498  1.00  0.00     0.298 A 
HETATM    8  O   UNL     1      43.621 -17.837   0.671  1.00  0.00    -0.259 OA
HETATM    9  C   UNL     1      41.258 -17.463   4.773  1.00  0.00     0.015 A 
HETATM   10  C   UNL     1      42.116 -18.232   5.564  1.00  0.00     0.040 A 
ENDROOT
BRANCH   5  11
HETATM   11  N   UNL     1      40.820 -15.125   2.673  1.00  0.00    -0.248 NA
HETATM   12  H   UNL     1      40.926 -14.966   3.673  1.00  0.00     0.132 HD
BRANCH  11  13
HETATM   13  C   UNL     1      39.831 -14.316   2.121  1.00  0.00     0.082 A 
HETATM   14  N   UNL     1      39.783 -12.993   2.364  1.00  0.00    -0.355 N 
HETATM   15  H   UNL     1      40.518 -12.595   2.954  1.00  0.00     0.166 HD
HETATM   16  C   UNL     1      38.806 -12.187   1.924  1.00  0.00     0.108 A 
HETATM   17  C   UNL     1      37.754 -12.714   1.191  1.00  0.00     0.026 A 
HETATM   18 BR   UNL     1      36.377 -11.591   0.565  1.00  0.00    -0.050 Br
HETATM   19  C   UNL     1      37.721 -14.079   0.942  1.00  0.00     0.024 A 
HETATM   20  C   UNL     1      38.754 -14.885   1.426  1.00  0.00     0.043 A 
ENDBRANCH  11  13
ENDBRANCH   5  11
BRANCH   2  21
HETATM   21  O   UNL     1      44.696 -19.215   3.117  1.00  0.00    -0.352 OA
HETATM   22  C   UNL     1      44.508 -20.583   2.746  1.00  0.00     0.210 C 
ENDBRANCH   2  21
BRANCH   1  23
HETATM   23  O   UNL     1      43.997 -19.525   5.969  1.00  0.00    -0.353 OA
HETATM   24  C   UNL     1      43.892 -19.112   7.327  1.00  0.00     0.210 C 
ENDBRANCH   1  23
TORSDOF 4
ENDMDL
MODEL 9
REMARK VINA RESULT:      -6.4      1.650      2.875
REMARK  4 active torsions:
REMARK  status: ('A' for Active; 'I' for Inactive)
REMARK    1  A    between atoms: O_2  and  C_3 
REMARK    2  A    between atoms: C_4  and  O_5 
REMARK    3  A    between atoms: C_9  and  N_10 
REMARK    4  A    between atoms: N_10  and  C_11 
ROOT
HETATM    1  C   UNL     1      44.353 -18.346   5.814  1.00  0.00     0.102 A 
HETATM    2  C   UNL     1      44.392 -19.225   4.725  1.00  0.00     0.118 A 
HETATM    3  C   UNL     1      43.576 -18.936   3.636  1.00  0.00     0.085 A 
HETATM    4  C   UNL     1      42.721 -17.848   3.606  1.00  0.00     0.005 A 
HETATM    5  C   UNL     1      41.992 -17.829   2.320  1.00  0.00     0.245 A 
HETATM    6  O   UNL     1      42.493 -18.984   1.632  1.00  0.00    -0.291 OA
HETATM    7  C   UNL     1      43.436 -19.650   2.371  1.00  0.00     0.298 A 
HETATM    8  O   UNL     1      44.013 -20.636   1.971  1.00  0.00    -0.259 OA
HETATM    9  C   UNL     1      42.638 -16.995   4.692  1.00  0.00     0.015 A 
HETATM   10  C   UNL     1      43.457 -17.255   5.795  1.00  0.00     0.040 A 
ENDROOT
BRANCH   5  11
HETATM   11  N   UNL     1      42.288 -16.628   1.559  1.00  0.00    -0.248 NA
HETATM   12  H   UNL     1      43.255 -16.342   1.706  1.00  0.00     0.132 HD
BRANCH  11  13
HETATM   13  C   UNL     1      41.420 -15.541   1.565  1.00  0.00     0.082 A 
HETATM   14  N   UNL     1      40.102 -15.688   1.329  1.00  0.00    -0.355 N 
HETATM   15  H   UNL     1      39.755 -16.636   1.167  1.00  0.00     0.166 HD
HETATM   16  C   UNL     1      39.239 -14.665   1.243  1.00  0.00     0.108 A 
HETATM   17  C   UNL     1      39.696 -13.363   1.378  1.00  0.00     0.026 A 
HETATM   18 BR   UNL     1      38.493 -11.918   1.261  1.00  0.00    -0.050 Br
HETATM   19  C   UNL     1      41.051 -13.140   1.580  1.00  0.00     0.024 A 
HETATM   20  C   UNL     1      41.918 -14.233   1.655  1.00  0.00     0.043 A 
ENDBRANCH  11  13
ENDBRANCH   5  11
BRANCH   2  21
HETATM   21  O   UNL     1      45.239 -20.291   4.693  1.00  0.00    -0.352 OA
HETATM   22  C   UNL     1      44.685 -21.446   5.327  1.00  0.00     0.210 C 
ENDBRANCH   2  21
BRANCH   1  23
HETATM   23  O   UNL     1      45.069 -18.426   6.976  1.00  0.00    -0.353 OA
HETATM   24  C   UNL     1      44.338 -18.516   8.195  1.00  0.00     0.210 C 
ENDBRANCH   1  23
TORSDOF 4
ENDMDL
MODEL 10
REMARK VINA RESULT:      -6.2      3.857      7.521
REMARK  4 active torsions:
REMARK  status: ('A' for Active; 'I' for Inactive)
REMARK    1  A    between atoms: O_2  and  C_3 
REMARK    2  A    between atoms: C_4  and  O_5 
REMARK    3  A    between atoms: C_9  and  N_10 
REMARK    4  A    between atoms: N_10  and  C_11 
ROOT
HETATM    1  C   UNL     1      39.004 -13.394  -0.683  1.00  0.00     0.102 A 
HETATM    2  C   UNL     1      40.236 -13.074  -0.101  1.00  0.00     0.118 A 
HETATM    3  C   UNL     1      40.459 -13.496   1.205  1.00  0.00     0.085 A 
HETATM    4  C   UNL     1      39.511 -14.182   1.945  1.00  0.00     0.005 A 
HETATM    5  C   UNL     1      40.051 -14.476   3.289  1.00  0.00     0.245 A 
HETATM    6  O   UNL     1      41.367 -13.904   3.255  1.00  0.00    -0.291 OA
HETATM    7  C   UNL     1      41.644 -13.332   2.040  1.00  0.00     0.298 A 
HETATM    8  O   UNL     1      42.709 -12.817   1.781  1.00  0.00    -0.259 OA
HETATM    9  C   UNL     1      38.272 -14.466   1.399  1.00  0.00     0.015 A 
HETATM   10  C   UNL     1      38.026 -14.064   0.083  1.00  0.00     0.040 A 
ENDROOT
BRANCH   5  11
HETATM   11  N   UNL     1      40.135 -15.906   3.527  1.00  0.00    -0.248 NA
HETATM   12  H   UNL     1      39.241 -16.265   3.860  1.00  0.00     0.132 HD
BRANCH  11  13
HETATM   13  C   UNL     1      41.207 -16.456   4.223  1.00  0.00     0.082 A 
HETATM   14  N   UNL     1      41.653 -15.919   5.374  1.00  0.00    -0.355 N 
HETATM   15  H   UNL     1      41.159 -15.099   5.734  1.00  0.00     0.166 HD
HETATM   16  C   UNL     1      42.731 -16.362   6.038  1.00  0.00     0.108 A 
HETATM   17  C   UNL     1      43.468 -17.421   5.530  1.00  0.00     0.026 A 
HETATM   18 BR   UNL     1      44.982 -18.054   6.454  1.00  0.00    -0.050 Br
HETATM   19  C   UNL     1      43.086 -17.992   4.323  1.00  0.00     0.024 A 
HETATM   20  C   UNL     1      41.962 -17.495   3.659  1.00  0.00     0.043 A 
ENDBRANCH  11  13
ENDBRANCH   5  11
BRANCH   2  21
HETATM   21  O   UNL     1      41.214 -12.430  -0.798  1.00  0.00    -0.352 OA
HETATM   22  C   UNL     1      41.961 -13.318  -1.633  1.00  0.00     0.210 C 
ENDBRANCH   2  21
BRANCH   1  23
HETATM   23  O   UNL     1      38.576 -13.091  -1.947  1.00  0.00    -0.353 OA
HETATM   24  C   UNL     1      38.431 -14.168  -2.867  1.00  0.00     0.210 C 
ENDBRANCH   1  23
TORSDOF 4
ENDMDL
