MODEL 1
REMARK VINA RESULT:      -7.6      0.000      0.000
REMARK  7 active torsions:
REMARK  status: ('A' for Active; 'I' for Inactive)
REMARK    1  A    between atoms: O_2  and  C_3 
REMARK    2  A    between atoms: C_4  and  O_5 
REMARK    3  A    between atoms: C_9  and  C_10 
REMARK    4  A    between atoms: C_10  and  N_11 
REMARK    5  A    between atoms: C_14  and  C_15 
REMARK    6  A    between atoms: C_15  and  N_16 
REMARK    7  A    between atoms: N_16  and  C_17 
ROOT
HETATM    1  N   UNL     1      41.543 -16.596   6.527  1.00  0.00    -0.067 N 
HETATM    2  H   UNL     1      40.829 -16.373   7.237  1.00  0.00     0.280 HD
HETATM    3  C   UNL     1      42.069 -15.274   5.997  1.00  0.00     0.241 C 
HETATM    4  C   UNL     1      43.584 -15.358   6.180  1.00  0.00     0.031 C 
HETATM    5  C   UNL     1      43.712 -16.195   7.448  1.00  0.00     0.035 C 
HETATM    6  C   UNL     1      42.682 -17.293   7.236  1.00  0.00     0.235 C 
ENDROOT
BRANCH   1   7
HETATM    7  C   UNL     1      40.844 -17.474   5.512  1.00  0.00     0.273 C 
BRANCH   7   8
HETATM    8  C   UNL     1      41.575 -17.541   4.197  1.00  0.00    -0.028 A 
HETATM    9  C   UNL     1      41.186 -16.712   3.132  1.00  0.00     0.031 A 
HETATM   10  C   UNL     1      41.887 -16.737   1.923  1.00  0.00     0.047 A 
HETATM   11  C   UNL     1      42.974 -17.595   1.771  1.00  0.00     0.116 A 
HETATM   12 BR   UNL     1      41.325 -15.580   0.534  1.00  0.00    -0.048 Br
HETATM   13  C   UNL     1      43.366 -18.446   2.812  1.00  0.00     0.103 A 
HETATM   14  C   UNL     1      42.666 -18.416   4.021  1.00  0.00     0.048 A 
BRANCH  11  15
HETATM   15  O   UNL     1      43.673 -17.617   0.594  1.00  0.00    -0.357 OA
HETATM   16  H   UNL     1      43.261 -16.951   0.008  1.00  0.00     0.218 HD
ENDBRANCH  11  15
BRANCH  13  17
HETATM   17  O   UNL     1      44.449 -19.236   2.532  1.00  0.00    -0.353 OA
HETATM   18  C   UNL     1      44.249 -20.644   2.492  1.00  0.00     0.210 C 
ENDBRANCH  13  17
ENDBRANCH   7   8
ENDBRANCH   1   7
BRANCH   4  19
HETATM   19  C   UNL     1      44.235 -13.972   6.256  1.00  0.00     0.127 C 
BRANCH  19  20
HETATM   20  N   UNL     1      45.025 -13.826   7.478  1.00  0.00    -0.376 N 
HETATM   21  H   UNL     1      45.495 -14.653   7.825  1.00  0.00     0.161 HD
BRANCH  20  22
HETATM   22  C   UNL     1      44.862 -12.745   8.324  1.00  0.00     0.100 A 
HETATM   23  N   UNL     1      43.628 -12.220   8.454  1.00  0.00    -0.353 N 
HETATM   24  H   UNL     1      42.873 -12.638   7.922  1.00  0.00     0.166 HD
HETATM   25  C   UNL     1      43.334 -11.187   9.259  1.00  0.00     0.089 A 
HETATM   26  C   UNL     1      44.325 -10.597  10.025  1.00  0.00     0.017 A 
HETATM   27  C   UNL     1      45.614 -11.100   9.943  1.00  0.00     0.005 A 
HETATM   28  C   UNL     1      45.884 -12.176   9.097  1.00  0.00     0.048 A 
ENDBRANCH  20  22
ENDBRANCH  19  20
ENDBRANCH   4  19
TORSDOF 7
ENDMDL
MODEL 2
REMARK VINA RESULT:      -7.6      5.015      8.416
REMARK  7 active torsions:
REMARK  status: ('A' for Active; 'I' for Inactive)
REMARK    1  A    between atoms: O_2  and  C_3 
REMARK    2  A    between atoms: C_4  and  O_5 
REMARK    3  A    between atoms: C_9  and  C_10 
REMARK    4  A    between atoms: C_10  and  N_11 
REMARK    5  A    between atoms: C_14  and  C_15 
REMARK    6  A    between atoms: C_15  and  N_16 
REMARK    7  A    between atoms: N_16  and  C_17 
ROOT
HETATM    1  N   UNL     1      42.196 -16.651   1.665  1.00  0.00    -0.067 N 
HETATM    2  H   UNL     1      42.178 -17.509   1.093  1.00  0.00     0.280 HD
HETATM    3  C   UNL     1      41.938 -15.486   0.726  1.00  0.00     0.241 C 
HETATM    4  C   UNL     1      40.754 -14.744   1.344  1.00  0.00     0.031 C 
HETATM    5  C   UNL     1      39.956 -15.878   1.979  1.00  0.00     0.035 C 
HETATM    6  C   UNL     1      41.034 -16.730   2.630  1.00  0.00     0.235 C 
ENDROOT
BRANCH   1   7
HETATM    7  C   UNL     1      43.543 -16.649   2.352  1.00  0.00     0.273 C 
BRANCH   7   8
HETATM    8  C   UNL     1      43.846 -17.950   3.047  1.00  0.00    -0.028 A 
HETATM    9  C   UNL     1      43.933 -19.141   2.306  1.00  0.00     0.031 A 
HETATM   10  C   UNL     1      44.257 -20.345   2.937  1.00  0.00     0.047 A 
HETATM   11  C   UNL     1      44.487 -20.366   4.311  1.00  0.00     0.116 A 
HETATM   12 BR   UNL     1      44.379 -21.910   1.878  1.00  0.00    -0.048 Br
HETATM   13  C   UNL     1      44.385 -19.196   5.073  1.00  0.00     0.103 A 
HETATM   14  C   UNL     1      44.064 -17.992   4.439  1.00  0.00     0.048 A 
BRANCH  11  15
HETATM   15  O   UNL     1      44.817 -21.540   4.934  1.00  0.00    -0.357 OA
HETATM   16  H   UNL     1      45.161 -21.304   5.818  1.00  0.00     0.218 HD
ENDBRANCH  11  15
BRANCH  13  17
HETATM   17  O   UNL     1      44.637 -19.355   6.409  1.00  0.00    -0.353 OA
HETATM   18  C   UNL     1      43.746 -18.737   7.330  1.00  0.00     0.210 C 
ENDBRANCH  13  17
ENDBRANCH   7   8
ENDBRANCH   1   7
BRANCH   4  19
HETATM   19  C   UNL     1      39.984 -13.918   0.308  1.00  0.00     0.127 C 
BRANCH  19  20
HETATM   20  N   UNL     1      40.532 -14.110  -1.034  1.00  0.00    -0.376 N 
HETATM   21  H   UNL     1      41.371 -13.592  -1.268  1.00  0.00     0.161 HD
BRANCH  20  22
HETATM   22  C   UNL     1      39.781 -14.660  -2.056  1.00  0.00     0.100 A 
HETATM   23  N   UNL     1      38.479 -14.325  -2.138  1.00  0.00    -0.353 N 
HETATM   24  H   UNL     1      38.105 -13.686  -1.445  1.00  0.00     0.166 HD
HETATM   25  C   UNL     1      37.649 -14.773  -3.094  1.00  0.00     0.089 A 
HETATM   26  C   UNL     1      38.116 -15.627  -4.077  1.00  0.00     0.017 A 
HETATM   27  C   UNL     1      39.450 -16.001  -4.053  1.00  0.00     0.005 A 
HETATM   28  C   UNL     1      40.285 -15.515  -3.046  1.00  0.00     0.048 A 
ENDBRANCH  20  22
ENDBRANCH  19  20
ENDBRANCH   4  19
TORSDOF 7
ENDMDL
MODEL 3
REMARK VINA RESULT:      -7.4      1.394      2.290
REMARK  7 active torsions:
REMARK  status: ('A' for Active; 'I' for Inactive)
REMARK    1  A    between atoms: O_2  and  C_3 
REMARK    2  A    between atoms: C_4  and  O_5 
REMARK    3  A    between atoms: C_9  and  C_10 
REMARK    4  A    between atoms: C_10  and  N_11 
REMARK    5  A    between atoms: C_14  and  C_15 
REMARK    6  A    between atoms: C_15  and  N_16 
REMARK    7  A    between atoms: N_16  and  C_17 
ROOT
HETATM    1  N   UNL     1      41.517 -16.489   6.479  1.00  0.00    -0.067 N 
HETATM    2  H   UNL     1      40.795 -16.287   7.187  1.00  0.00     0.280 HD
HETATM    3  C   UNL     1      42.060 -15.154   6.004  1.00  0.00     0.241 C 
HETATM    4  C   UNL     1      43.572 -15.256   6.205  1.00  0.00     0.031 C 
HETATM    5  C   UNL     1      43.676 -16.139   7.444  1.00  0.00     0.035 C 
HETATM    6  C   UNL     1      42.641 -17.221   7.178  1.00  0.00     0.235 C 
ENDROOT
BRANCH   1   7
HETATM    7  C   UNL     1      40.827 -17.325   5.423  1.00  0.00     0.273 C 
BRANCH   7   8
HETATM    8  C   UNL     1      41.611 -17.409   4.141  1.00  0.00    -0.028 A 
HETATM    9  C   UNL     1      42.552 -18.436   3.956  1.00  0.00     0.031 A 
HETATM   10  C   UNL     1      43.252 -18.546   2.752  1.00  0.00     0.047 A 
HETATM   11  C   UNL     1      43.020 -17.628   1.730  1.00  0.00     0.116 A 
HETATM   12 BR   UNL     1      44.491 -19.965   2.560  1.00  0.00    -0.048 Br
HETATM   13  C   UNL     1      42.102 -16.585   1.899  1.00  0.00     0.103 A 
HETATM   14  C   UNL     1      41.401 -16.478   3.104  1.00  0.00     0.048 A 
BRANCH  11  15
HETATM   15  O   UNL     1      43.693 -17.738   0.542  1.00  0.00    -0.357 OA
HETATM   16  H   UNL     1      43.714 -16.845   0.146  1.00  0.00     0.218 HD
ENDBRANCH  11  15
BRANCH  13  17
HETATM   17  O   UNL     1      41.968 -15.755   0.818  1.00  0.00    -0.353 OA
HETATM   18  C   UNL     1      41.765 -14.369   1.067  1.00  0.00     0.210 C 
ENDBRANCH  13  17
ENDBRANCH   7   8
ENDBRANCH   1   7
BRANCH   4  19
HETATM   19  C   UNL     1      44.232 -13.879   6.340  1.00  0.00     0.127 C 
BRANCH  19  20
HETATM   20  N   UNL     1      44.981 -13.772   7.591  1.00  0.00    -0.376 N 
HETATM   21  H   UNL     1      45.406 -14.619   7.948  1.00  0.00     0.161 HD
BRANCH  20  22
HETATM   22  C   UNL     1      44.827 -12.692   8.441  1.00  0.00     0.100 A 
HETATM   23  N   UNL     1      43.603 -12.142   8.553  1.00  0.00    -0.353 N 
HETATM   24  H   UNL     1      42.848 -12.541   8.006  1.00  0.00     0.166 HD
HETATM   25  C   UNL     1      43.318 -11.106   9.359  1.00  0.00     0.089 A 
HETATM   26  C   UNL     1      44.309 -10.542  10.144  1.00  0.00     0.017 A 
HETATM   27  C   UNL     1      45.588 -11.072  10.081  1.00  0.00     0.005 A 
HETATM   28  C   UNL     1      45.848 -12.150   9.234  1.00  0.00     0.048 A 
ENDBRANCH  20  22
ENDBRANCH  19  20
ENDBRANCH   4  19
TORSDOF 7
ENDMDL
MODEL 4
REMARK VINA RESULT:      -7.4      5.019      7.808
REMARK  7 active torsions:
REMARK  status: ('A' for Active; 'I' for Inactive)
REMARK    1  A    between atoms: O_2  and  C_3 
REMARK    2  A    between atoms: C_4  and  O_5 
REMARK    3  A    between atoms: C_9  and  C_10 
REMARK    4  A    between atoms: C_10  and  N_11 
REMARK    5  A    between atoms: C_14  and  C_15 
REMARK    6  A    between atoms: C_15  and  N_16 
REMARK    7  A    between atoms: N_16  and  C_17 
ROOT
HETATM    1  N   UNL     1      42.013 -16.692   1.890  1.00  0.00    -0.067 N 
HETATM    2  H   UNL     1      41.773 -17.694   1.850  1.00  0.00     0.280 HD
HETATM    3  C   UNL     1      42.133 -16.207   0.457  1.00  0.00     0.241 C 
HETATM    4  C   UNL     1      41.187 -15.009   0.371  1.00  0.00     0.031 C 
HETATM    5  C   UNL     1      40.076 -15.404   1.339  1.00  0.00     0.035 C 
HETATM    6  C   UNL     1      40.842 -15.974   2.522  1.00  0.00     0.235 C 
ENDROOT
BRANCH   1   7
HETATM    7  C   UNL     1      43.278 -16.610   2.714  1.00  0.00     0.273 C 
BRANCH   7   8
HETATM    8  C   UNL     1      43.662 -17.931   3.328  1.00  0.00    -0.028 A 
HETATM    9  C   UNL     1      43.799 -19.071   2.518  1.00  0.00     0.031 A 
HETATM   10  C   UNL     1      44.197 -20.289   3.073  1.00  0.00     0.047 A 
HETATM   11  C   UNL     1      44.452 -20.377   4.440  1.00  0.00     0.116 A 
HETATM   12 BR   UNL     1      44.384 -21.783   1.924  1.00  0.00    -0.048 Br
HETATM   13  C   UNL     1      44.301 -19.259   5.270  1.00  0.00     0.103 A 
HETATM   14  C   UNL     1      43.906 -18.040   4.711  1.00  0.00     0.048 A 
BRANCH  11  15
HETATM   15  O   UNL     1      44.854 -21.565   4.989  1.00  0.00    -0.357 OA
HETATM   16  H   UNL     1      45.609 -21.364   5.578  1.00  0.00     0.218 HD
ENDBRANCH  11  15
BRANCH  13  17
HETATM   17  O   UNL     1      44.585 -19.481   6.591  1.00  0.00    -0.353 OA
HETATM   18  C   UNL     1      43.761 -18.845   7.561  1.00  0.00     0.210 C 
ENDBRANCH  13  17
ENDBRANCH   7   8
ENDBRANCH   1   7
BRANCH   4  19
HETATM   19  C   UNL     1      40.723 -14.739  -1.065  1.00  0.00     0.127 C 
BRANCH  19  20
HETATM   20  N   UNL     1      41.858 -14.465  -1.944  1.00  0.00    -0.376 N 
HETATM   21  H   UNL     1      42.574 -15.179  -2.011  1.00  0.00     0.161 HD
BRANCH  20  22
HETATM   22  C   UNL     1      42.150 -13.185  -2.378  1.00  0.00     0.100 A 
HETATM   23  N   UNL     1      41.902 -12.879  -3.666  1.00  0.00    -0.353 N 
HETATM   24  H   UNL     1      41.514 -13.602  -4.263  1.00  0.00     0.166 HD
HETATM   25  C   UNL     1      42.119 -11.668  -4.204  1.00  0.00     0.089 A 
HETATM   26  C   UNL     1      42.624 -10.641  -3.426  1.00  0.00     0.017 A 
HETATM   27  C   UNL     1      42.891 -10.891  -2.089  1.00  0.00     0.005 A 
HETATM   28  C   UNL     1      42.650 -12.160  -1.562  1.00  0.00     0.048 A 
ENDBRANCH  20  22
ENDBRANCH  19  20
ENDBRANCH   4  19
TORSDOF 7
ENDMDL
MODEL 5
REMARK VINA RESULT:      -7.3      5.085      8.378
REMARK  7 active torsions:
REMARK  status: ('A' for Active; 'I' for Inactive)
REMARK    1  A    between atoms: O_2  and  C_3 
REMARK    2  A    between atoms: C_4  and  O_5 
REMARK    3  A    between atoms: C_9  and  C_10 
REMARK    4  A    between atoms: C_10  and  N_11 
REMARK    5  A    between atoms: C_14  and  C_15 
REMARK    6  A    between atoms: C_15  and  N_16 
REMARK    7  A    between atoms: N_16  and  C_17 
ROOT
HETATM    1  N   UNL     1      42.178 -16.557   1.731  1.00  0.00    -0.067 N 
HETATM    2  H   UNL     1      42.295 -17.357   1.090  1.00  0.00     0.280 HD
HETATM    3  C   UNL     1      41.831 -15.351   0.877  1.00  0.00     0.241 C 
HETATM    4  C   UNL     1      40.535 -14.809   1.477  1.00  0.00     0.031 C 
HETATM    5  C   UNL     1      39.847 -16.080   1.965  1.00  0.00     0.035 C 
HETATM    6  C   UNL     1      40.985 -16.856   2.611  1.00  0.00     0.235 C 
ENDROOT
BRANCH   1   7
HETATM    7  C   UNL     1      43.477 -16.460   2.500  1.00  0.00     0.273 C 
BRANCH   7   8
HETATM    8  C   UNL     1      43.834 -17.741   3.206  1.00  0.00    -0.028 A 
HETATM    9  C   UNL     1      43.798 -17.806   4.609  1.00  0.00     0.031 A 
HETATM   10  C   UNL     1      44.086 -19.003   5.270  1.00  0.00     0.047 A 
HETATM   11  C   UNL     1      44.418 -20.138   4.533  1.00  0.00     0.116 A 
HETATM   12 BR   UNL     1      43.999 -19.029   7.161  1.00  0.00    -0.048 Br
HETATM   13  C   UNL     1      44.481 -20.091   3.135  1.00  0.00     0.103 A 
HETATM   14  C   UNL     1      44.189 -18.893   2.476  1.00  0.00     0.048 A 
BRANCH  11  15
HETATM   15  O   UNL     1      44.690 -21.318   5.173  1.00  0.00    -0.357 OA
HETATM   16  H   UNL     1      45.659 -21.439   5.143  1.00  0.00     0.218 HD
ENDBRANCH  11  15
BRANCH  13  17
HETATM   17  O   UNL     1      44.817 -21.274   2.534  1.00  0.00    -0.353 OA
HETATM   18  C   UNL     1      43.892 -21.833   1.608  1.00  0.00     0.210 C 
ENDBRANCH  13  17
ENDBRANCH   7   8
ENDBRANCH   1   7
BRANCH   4  19
HETATM   19  C   UNL     1      39.726 -13.989   0.466  1.00  0.00     0.127 C 
BRANCH  19  20
HETATM   20  N   UNL     1      40.298 -14.092  -0.876  1.00  0.00    -0.376 N 
HETATM   21  H   UNL     1      41.158 -13.586  -1.052  1.00  0.00     0.161 HD
BRANCH  20  22
HETATM   22  C   UNL     1      39.553 -14.537  -1.953  1.00  0.00     0.100 A 
HETATM   23  N   UNL     1      40.076 -15.505  -2.730  1.00  0.00    -0.353 N 
HETATM   24  H   UNL     1      40.994 -15.864  -2.493  1.00  0.00     0.166 HD
HETATM   25  C   UNL     1      39.445 -16.037  -3.789  1.00  0.00     0.089 A 
HETATM   26  C   UNL     1      38.180 -15.599  -4.138  1.00  0.00     0.017 A 
HETATM   27  C   UNL     1      37.584 -14.612  -3.371  1.00  0.00     0.005 A 
HETATM   28  C   UNL     1      38.267 -14.082  -2.275  1.00  0.00     0.048 A 
ENDBRANCH  20  22
ENDBRANCH  19  20
ENDBRANCH   4  19
TORSDOF 7
ENDMDL
MODEL 6
REMARK VINA RESULT:      -7.2      5.634      7.753
REMARK  7 active torsions:
REMARK  status: ('A' for Active; 'I' for Inactive)
REMARK    1  A    between atoms: O_2  and  C_3 
REMARK    2  A    between atoms: C_4  and  O_5 
REMARK    3  A    between atoms: C_9  and  C_10 
REMARK    4  A    between atoms: C_10  and  N_11 
REMARK    5  A    between atoms: C_14  and  C_15 
REMARK    6  A    between atoms: C_15  and  N_16 
REMARK    7  A    between atoms: N_16  and  C_17 
ROOT
HETATM    1  N   UNL     1      40.684 -14.959   2.150  1.00  0.00    -0.067 N 
HETATM    2  H   UNL     1      40.553 -14.679   3.134  1.00  0.00     0.280 HD
HETATM    3  C   UNL     1      42.177 -15.123   1.930  1.00  0.00     0.241 C 
HETATM    4  C   UNL     1      42.334 -16.535   1.367  1.00  0.00     0.031 C 
HETATM    5  C   UNL     1      41.209 -17.290   2.067  1.00  0.00     0.035 C 
HETATM    6  C   UNL     1      40.042 -16.318   1.981  1.00  0.00     0.235 C 
ENDROOT
BRANCH   1   7
HETATM    7  C   UNL     1      40.018 -13.878   1.328  1.00  0.00     0.273 C 
BRANCH   7   8
HETATM    8  C   UNL     1      40.722 -13.619   0.023  1.00  0.00    -0.028 A 
HETATM    9  C   UNL     1      41.542 -12.487  -0.123  1.00  0.00     0.031 A 
HETATM   10  C   UNL     1      42.233 -12.263  -1.316  1.00  0.00     0.047 A 
HETATM   11  C   UNL     1      42.104 -13.165  -2.370  1.00  0.00     0.116 A 
HETATM   12 BR   UNL     1      43.337 -10.729  -1.441  1.00  0.00    -0.048 Br
HETATM   13  C   UNL     1      41.277 -14.288  -2.255  1.00  0.00     0.103 A 
HETATM   14  C   UNL     1      40.589 -14.512  -1.059  1.00  0.00     0.048 A 
BRANCH  11  15
HETATM   15  O   UNL     1      42.789 -12.958  -3.538  1.00  0.00    -0.357 OA
HETATM   16  H   UNL     1      43.139 -12.046  -3.504  1.00  0.00     0.218 HD
ENDBRANCH  11  15
BRANCH  13  17
HETATM   17  O   UNL     1      41.242 -15.093  -3.363  1.00  0.00    -0.353 OA
HETATM   18  C   UNL     1      39.979 -15.610  -3.765  1.00  0.00     0.210 C 
ENDBRANCH  13  17
ENDBRANCH   7   8
ENDBRANCH   1   7
BRANCH   4  19
HETATM   19  C   UNL     1      43.738 -17.102   1.611  1.00  0.00     0.127 C 
BRANCH  19  20
HETATM   20  N   UNL     1      43.778 -17.905   2.833  1.00  0.00    -0.376 N 
HETATM   21  H   UNL     1      43.919 -17.410   3.706  1.00  0.00     0.161 HD
BRANCH  20  22
HETATM   22  C   UNL     1      43.985 -19.271   2.800  1.00  0.00     0.100 A 
HETATM   23  N   UNL     1      44.608 -19.845   3.847  1.00  0.00    -0.353 N 
HETATM   24  H   UNL     1      44.901 -19.249   4.614  1.00  0.00     0.166 HD
HETATM   25  C   UNL     1      44.849 -21.162   3.946  1.00  0.00     0.089 A 
HETATM   26  C   UNL     1      44.447 -22.021   2.938  1.00  0.00     0.017 A 
HETATM   27  C   UNL     1      43.791 -21.492   1.838  1.00  0.00     0.005 A 
HETATM   28  C   UNL     1      43.555 -20.118   1.769  1.00  0.00     0.048 A 
ENDBRANCH  20  22
ENDBRANCH  19  20
ENDBRANCH   4  19
TORSDOF 7
ENDMDL
MODEL 7
REMARK VINA RESULT:      -7.1      3.073      6.084
REMARK  7 active torsions:
REMARK  status: ('A' for Active; 'I' for Inactive)
REMARK    1  A    between atoms: O_2  and  C_3 
REMARK    2  A    between atoms: C_4  and  O_5 
REMARK    3  A    between atoms: C_9  and  C_10 
REMARK    4  A    between atoms: C_10  and  N_11 
REMARK    5  A    between atoms: C_14  and  C_15 
REMARK    6  A    between atoms: C_15  and  N_16 
REMARK    7  A    between atoms: N_16  and  C_17 
ROOT
HETATM    1  N   UNL     1      42.350 -15.018   6.208  1.00  0.00    -0.067 N 
HETATM    2  H   UNL     1      42.243 -14.543   7.117  1.00  0.00     0.280 HD
HETATM    3  C   UNL     1      43.740 -15.628   6.187  1.00  0.00     0.241 C 
HETATM    4  C   UNL     1      43.511 -17.104   5.864  1.00  0.00     0.031 C 
HETATM    5  C   UNL     1      42.169 -17.379   6.534  1.00  0.00     0.035 C 
HETATM    6  C   UNL     1      41.349 -16.151   6.170  1.00  0.00     0.235 C 
ENDROOT
BRANCH   1   7
HETATM    7  C   UNL     1      42.089 -13.956   5.163  1.00  0.00     0.273 C 
BRANCH   7   8
HETATM    8  C   UNL     1      41.703 -14.534   3.827  1.00  0.00    -0.028 A 
HETATM    9  C   UNL     1      40.423 -14.293   3.299  1.00  0.00     0.031 A 
HETATM   10  C   UNL     1      40.072 -14.789   2.041  1.00  0.00     0.047 A 
HETATM   11  C   UNL     1      40.995 -15.533   1.308  1.00  0.00     0.116 A 
HETATM   12 BR   UNL     1      38.339 -14.413   1.378  1.00  0.00    -0.048 Br
HETATM   13  C   UNL     1      42.268 -15.803   1.824  1.00  0.00     0.103 A 
HETATM   14  C   UNL     1      42.618 -15.302   3.081  1.00  0.00     0.048 A 
BRANCH  11  15
HETATM   15  O   UNL     1      40.662 -16.012   0.069  1.00  0.00    -0.357 OA
HETATM   16  H   UNL     1      40.933 -15.332  -0.579  1.00  0.00     0.218 HD
ENDBRANCH  11  15
BRANCH  13  17
HETATM   17  O   UNL     1      43.077 -16.542   1.002  1.00  0.00    -0.353 OA
HETATM   18  C   UNL     1      44.139 -17.274   1.602  1.00  0.00     0.210 C 
ENDBRANCH  13  17
ENDBRANCH   7   8
ENDBRANCH   1   7
BRANCH   4  19
HETATM   19  C   UNL     1      44.665 -17.989   6.349  1.00  0.00     0.127 C 
BRANCH  19  20
HETATM   20  N   UNL     1      44.233 -19.376   6.518  1.00  0.00    -0.376 N 
HETATM   21  H   UNL     1      44.086 -19.702   7.466  1.00  0.00     0.161 HD
BRANCH  20  22
HETATM   22  C   UNL     1      44.364 -20.307   5.505  1.00  0.00     0.100 A 
HETATM   23  N   UNL     1      44.360 -19.866   4.232  1.00  0.00    -0.353 N 
HETATM   24  H   UNL     1      44.258 -18.870   4.072  1.00  0.00     0.166 HD
HETATM   25  C   UNL     1      44.501 -20.664   3.162  1.00  0.00     0.089 A 
HETATM   26  C   UNL     1      44.668 -22.028   3.327  1.00  0.00     0.017 A 
HETATM   27  C   UNL     1      44.691 -22.542   4.614  1.00  0.00     0.005 A 
HETATM   28  C   UNL     1      44.543 -21.683   5.704  1.00  0.00     0.048 A 
ENDBRANCH  20  22
ENDBRANCH  19  20
ENDBRANCH   4  19
TORSDOF 7
ENDMDL
MODEL 8
REMARK VINA RESULT:      -7.1      3.354      6.604
REMARK  7 active torsions:
REMARK  status: ('A' for Active; 'I' for Inactive)
REMARK    1  A    between atoms: O_2  and  C_3 
REMARK    2  A    between atoms: C_4  and  O_5 
REMARK    3  A    between atoms: C_9  and  C_10 
REMARK    4  A    between atoms: C_10  and  N_11 
REMARK    5  A    between atoms: C_14  and  C_15 
REMARK    6  A    between atoms: C_15  and  N_16 
REMARK    7  A    between atoms: N_16  and  C_17 
ROOT
HETATM    1  N   UNL     1      42.355 -15.265   6.149  1.00  0.00    -0.067 N 
HETATM    2  H   UNL     1      42.283 -14.702   7.011  1.00  0.00     0.280 HD
HETATM    3  C   UNL     1      43.437 -16.302   6.385  1.00  0.00     0.241 C 
HETATM    4  C   UNL     1      42.767 -17.641   6.077  1.00  0.00     0.031 C 
HETATM    5  C   UNL     1      41.329 -17.392   6.519  1.00  0.00     0.035 C 
HETATM    6  C   UNL     1      41.043 -15.999   5.981  1.00  0.00     0.235 C 
ENDROOT
BRANCH   1   7
HETATM    7  C   UNL     1      42.631 -14.274   5.040  1.00  0.00     0.273 C 
BRANCH   7   8
HETATM    8  C   UNL     1      42.206 -14.780   3.686  1.00  0.00    -0.028 A 
HETATM    9  C   UNL     1      42.960 -15.773   3.037  1.00  0.00     0.031 A 
HETATM   10  C   UNL     1      42.549 -16.278   1.801  1.00  0.00     0.047 A 
HETATM   11  C   UNL     1      41.388 -15.791   1.206  1.00  0.00     0.116 A 
HETATM   12 BR   UNL     1      43.598 -17.630   0.989  1.00  0.00    -0.048 Br
HETATM   13  C   UNL     1      40.633 -14.787   1.824  1.00  0.00     0.103 A 
HETATM   14  C   UNL     1      41.044 -14.285   3.062  1.00  0.00     0.048 A 
BRANCH  11  15
HETATM   15  O   UNL     1      40.972 -16.290   0.000  1.00  0.00    -0.357 OA
HETATM   16  H   UNL     1      40.957 -15.541  -0.627  1.00  0.00     0.218 HD
ENDBRANCH  11  15
BRANCH  13  17
HETATM   17  O   UNL     1      39.515 -14.400   1.134  1.00  0.00    -0.353 OA
HETATM   18  C   UNL     1      38.663 -13.435   1.740  1.00  0.00     0.210 C 
ENDBRANCH  13  17
ENDBRANCH   7   8
ENDBRANCH   1   7
BRANCH   4  19
HETATM   19  C   UNL     1      43.462 -18.812   6.781  1.00  0.00     0.127 C 
BRANCH  19  20
HETATM   20  N   UNL     1      44.643 -19.249   6.038  1.00  0.00    -0.376 N 
HETATM   21  H   UNL     1      45.427 -18.608   5.999  1.00  0.00     0.161 HD
BRANCH  20  22
HETATM   22  C   UNL     1      44.590 -20.294   5.135  1.00  0.00     0.100 A 
HETATM   23  N   UNL     1      44.435 -19.997   3.830  1.00  0.00    -0.353 N 
HETATM   24  H   UNL     1      44.361 -19.021   3.567  1.00  0.00     0.166 HD
HETATM   25  C   UNL     1      44.390 -20.918   2.853  1.00  0.00     0.089 A 
HETATM   26  C   UNL     1      44.512 -22.262   3.157  1.00  0.00     0.017 A 
HETATM   27  C   UNL     1      44.684 -22.630   4.482  1.00  0.00     0.005 A 
HETATM   28  C   UNL     1      44.728 -21.647   5.472  1.00  0.00     0.048 A 
ENDBRANCH  20  22
ENDBRANCH  19  20
ENDBRANCH   4  19
TORSDOF 7
ENDMDL
MODEL 9
REMARK VINA RESULT:      -6.9      5.121      7.880
REMARK  7 active torsions:
REMARK  status: ('A' for Active; 'I' for Inactive)
REMARK    1  A    between atoms: O_2  and  C_3 
REMARK    2  A    between atoms: C_4  and  O_5 
REMARK    3  A    between atoms: C_9  and  C_10 
REMARK    4  A    between atoms: C_10  and  N_11 
REMARK    5  A    between atoms: C_14  and  C_15 
REMARK    6  A    between atoms: C_15  and  N_16 
REMARK    7  A    between atoms: N_16  and  C_17 
ROOT
HETATM    1  N   UNL     1      42.049 -16.801   1.634  1.00  0.00    -0.067 N 
HETATM    2  H   UNL     1      41.949 -17.766   1.283  1.00  0.00     0.280 HD
HETATM    3  C   UNL     1      41.806 -15.872   0.459  1.00  0.00     0.241 C 
HETATM    4  C   UNL     1      40.705 -14.925   0.933  1.00  0.00     0.031 C 
HETATM    5  C   UNL     1      39.880 -15.821   1.851  1.00  0.00     0.035 C 
HETATM    6  C   UNL     1      40.942 -16.571   2.639  1.00  0.00     0.235 C 
ENDROOT
BRANCH   1   7
HETATM    7  C   UNL     1      43.432 -16.734   2.244  1.00  0.00     0.273 C 
BRANCH   7   8
HETATM    8  C   UNL     1      43.801 -17.987   2.993  1.00  0.00    -0.028 A 
HETATM    9  C   UNL     1      43.905 -19.210   2.310  1.00  0.00     0.031 A 
HETATM   10  C   UNL     1      44.290 -20.369   2.990  1.00  0.00     0.047 A 
HETATM   11  C   UNL     1      44.566 -20.312   4.354  1.00  0.00     0.116 A 
HETATM   12 BR   UNL     1      44.430 -21.982   2.008  1.00  0.00    -0.048 Br
HETATM   13  C   UNL     1      44.449 -19.108   5.059  1.00  0.00     0.103 A 
HETATM   14  C   UNL     1      44.067 -17.949   4.376  1.00  0.00     0.048 A 
BRANCH  11  15
HETATM   15  O   UNL     1      44.956 -21.441   5.024  1.00  0.00    -0.357 OA
HETATM   16  H   UNL     1      45.832 -21.250   5.413  1.00  0.00     0.218 HD
ENDBRANCH  11  15
BRANCH  13  17
HETATM   17  O   UNL     1      44.751 -19.190   6.392  1.00  0.00    -0.353 OA
HETATM   18  C   UNL     1      43.700 -18.965   7.324  1.00  0.00     0.210 C 
ENDBRANCH  13  17
ENDBRANCH   7   8
ENDBRANCH   1   7
BRANCH   4  19
HETATM   19  C   UNL     1      39.925 -14.311  -0.236  1.00  0.00     0.127 C 
BRANCH  19  20
HETATM   20  N   UNL     1      38.493 -14.256   0.055  1.00  0.00    -0.376 N 
HETATM   21  H   UNL     1      38.028 -15.134   0.251  1.00  0.00     0.161 HD
BRANCH  20  22
HETATM   22  C   UNL     1      37.727 -13.152  -0.270  1.00  0.00     0.100 A 
HETATM   23  N   UNL     1      37.789 -12.686  -1.532  1.00  0.00    -0.353 N 
HETATM   24  H   UNL     1      38.397 -13.163  -2.189  1.00  0.00     0.166 HD
HETATM   25  C   UNL     1      37.079 -11.637  -1.980  1.00  0.00     0.089 A 
HETATM   26  C   UNL     1      36.215 -10.968  -1.130  1.00  0.00     0.017 A 
HETATM   27  C   UNL     1      36.100 -11.407   0.180  1.00  0.00     0.005 A 
HETATM   28  C   UNL     1      36.851 -12.502   0.610  1.00  0.00     0.048 A 
ENDBRANCH  20  22
ENDBRANCH  19  20
ENDBRANCH   4  19
TORSDOF 7
ENDMDL
MODEL 10
REMARK VINA RESULT:      -6.8      2.692      5.080
REMARK  7 active torsions:
REMARK  status: ('A' for Active; 'I' for Inactive)
REMARK    1  A    between atoms: O_2  and  C_3 
REMARK    2  A    between atoms: C_4  and  O_5 
REMARK    3  A    between atoms: C_9  and  C_10 
REMARK    4  A    between atoms: C_10  and  N_11 
REMARK    5  A    between atoms: C_14  and  C_15 
REMARK    6  A    between atoms: C_15  and  N_16 
REMARK    7  A    between atoms: N_16  and  C_17 
ROOT
HETATM    1  N   UNL     1      42.527 -15.868   6.932  1.00  0.00    -0.067 N 
HETATM    2  H   UNL     1      42.406 -15.622   7.926  1.00  0.00     0.280 HD
HETATM    3  C   UNL     1      41.768 -14.833   6.122  1.00  0.00     0.241 C 
HETATM    4  C   UNL     1      42.796 -14.282   5.135  1.00  0.00     0.031 C 
HETATM    5  C   UNL     1      44.090 -14.358   5.938  1.00  0.00     0.035 C 
HETATM    6  C   UNL     1      43.996 -15.720   6.607  1.00  0.00     0.235 C 
ENDROOT
BRANCH   1   7
HETATM    7  C   UNL     1      42.028 -17.290   6.803  1.00  0.00     0.273 C 
BRANCH   7   8
HETATM    8  C   UNL     1      42.595 -18.002   5.604  1.00  0.00    -0.028 A 
HETATM    9  C   UNL     1      42.116 -17.705   4.317  1.00  0.00     0.031 A 
HETATM   10  C   UNL     1      42.667 -18.329   3.195  1.00  0.00     0.047 A 
HETATM   11  C   UNL     1      43.694 -19.257   3.354  1.00  0.00     0.116 A 
HETATM   12 BR   UNL     1      41.991 -17.869   1.487  1.00  0.00    -0.048 Br
HETATM   13  C   UNL     1      44.173 -19.584   4.628  1.00  0.00     0.103 A 
HETATM   14  C   UNL     1      43.622 -18.956   5.749  1.00  0.00     0.048 A 
BRANCH  11  15
HETATM   15  O   UNL     1      44.248 -19.863   2.258  1.00  0.00    -0.357 OA
HETATM   16  H   UNL     1      44.620 -20.714   2.563  1.00  0.00     0.218 HD
ENDBRANCH  11  15
BRANCH  13  17
HETATM   17  O   UNL     1      45.184 -20.508   4.643  1.00  0.00    -0.353 OA
HETATM   18  C   UNL     1      44.892 -21.800   5.162  1.00  0.00     0.210 C 
ENDBRANCH  13  17
ENDBRANCH   7   8
ENDBRANCH   1   7
BRANCH   4  19
HETATM   19  C   UNL     1      42.428 -12.878   4.639  1.00  0.00     0.127 C 
BRANCH  19  20
HETATM   20  N   UNL     1      41.039 -12.824   4.187  1.00  0.00    -0.376 N 
HETATM   21  H   UNL     1      40.344 -12.532   4.863  1.00  0.00     0.161 HD
BRANCH  20  22
HETATM   22  C   UNL     1      40.621 -13.473   3.040  1.00  0.00     0.100 A 
HETATM   23  N   UNL     1      41.191 -13.125   1.870  1.00  0.00    -0.353 N 
HETATM   24  H   UNL     1      41.900 -12.400   1.881  1.00  0.00     0.166 HD
HETATM   25  C   UNL     1      40.891 -13.693   0.691  1.00  0.00     0.089 A 
HETATM   26  C   UNL     1      39.948 -14.704   0.626  1.00  0.00     0.017 A 
HETATM   27  C   UNL     1      39.333 -15.115   1.798  1.00  0.00     0.005 A 
HETATM   28  C   UNL     1      39.671 -14.504   3.007  1.00  0.00     0.048 A 
ENDBRANCH  20  22
ENDBRANCH  19  20
ENDBRANCH   4  19
TORSDOF 7
ENDMDL
