MODEL 1
REMARK VINA RESULT:      -9.0      0.000      0.000
REMARK  5 active torsions:
REMARK  status: ('A' for Active; 'I' for Inactive)
REMARK    1  A    between atoms: C_3  and  C_4 
REMARK    2  A    between atoms: C_4  and  N_5 
REMARK       I    between atoms: N_5  and  C_6 
REMARK    3  A    between atoms: C_6  and  C_7 
REMARK    4  A    between atoms: C_10  and  N_11 
REMARK       I    between atoms: N_11  and  C_12 
REMARK       I    between atoms: C_12  and  N_13 
REMARK    5  A    between atoms: N_13  and  C_14 
ROOT
HETATM    1  C   UNL     1      43.395 -15.750   5.125  1.00  0.00     0.032 A 
HETATM    2  C   UNL     1      43.022 -14.415   4.932  1.00  0.00     0.019 A 
HETATM    3  C   UNL     1      43.300 -13.457   5.918  1.00  0.00     0.030 A 
HETATM    4  C   UNL     1      43.945 -13.820   7.102  1.00  0.00     0.036 A 
HETATM    5  C   UNL     1      44.351 -15.148   7.272  1.00  0.00     0.030 A 
HETATM    6  C   UNL     1      44.080 -16.106   6.291  1.00  0.00     0.019 A 
ENDROOT
BRANCH   1   7
HETATM    7  C   UNL     1      43.109 -16.817   4.125  1.00  0.00     0.251 C 
HETATM    8  N   UNL     1      44.054 -17.811   3.990  1.00  0.00    -0.353 N 
HETATM    9  H   UNL     1      44.972 -17.670   4.386  1.00  0.00     0.163 HD
HETATM   10  O   UNL     1      42.091 -16.758   3.444  1.00  0.00    -0.268 OA
BRANCH   8  11
HETATM   11  C   UNL     1      43.947 -18.777   2.915  1.00  0.00     0.164 C 
BRANCH  11  12
HETATM   12  C   UNL     1      44.279 -20.166   3.382  1.00  0.00    -0.002 A 
HETATM   13  C   UNL     1      44.582 -20.421   4.728  1.00  0.00     0.012 A 
HETATM   14  C   UNL     1      44.846 -21.721   5.164  1.00  0.00     0.001 A 
HETATM   15  C   UNL     1      44.803 -22.784   4.262  1.00  0.00     0.003 A 
HETATM   16  C   UNL     1      44.494 -22.545   2.924  1.00  0.00     0.043 A 
HETATM   17  C   UNL     1      44.233 -21.247   2.497  1.00  0.00     0.124 A 
HETATM   18  F   UNL     1      43.930 -21.044   1.207  1.00  0.00    -0.205 F 
ENDBRANCH  11  12
ENDBRANCH   8  11
ENDBRANCH   1   7
BRANCH   4  19
HETATM   19  N   UNL     1      44.235 -12.922   8.149  1.00  0.00    -0.309 N 
HETATM   20  C   UNL     1      45.456 -12.410   8.500  1.00  0.00     0.325 C 
HETATM   21  N   UNL     1      45.479 -11.591   9.598  1.00  0.00    -0.306 N 
HETATM   22  O   UNL     1      46.504 -12.568   7.879  1.00  0.00    -0.247 OA
HETATM   23  H   UNL     1      46.348 -11.080   9.687  1.00  0.00     0.171 HD
HETATM   24  H   UNL     1      43.444 -12.425   8.531  1.00  0.00     0.170 HD
BRANCH  21  25
HETATM   25  C   UNL     1      44.568 -11.450  10.627  1.00  0.00     0.072 A 
HETATM   26  C   UNL     1      43.808 -10.356  11.095  1.00  0.00     0.169 A 
HETATM   27  N   UNL     1      43.046 -10.673  12.145  1.00  0.00    -0.185 NA
HETATM   28  N   UNL     1      43.281 -11.983  12.322  1.00  0.00    -0.287 N 
HETATM   29  H   UNL     1      42.794 -12.463  13.072  1.00  0.00     0.188 HD
HETATM   30  C   UNL     1      44.172 -12.498  11.425  1.00  0.00     0.140 A 
ENDBRANCH  21  25
ENDBRANCH   4  19
TORSDOF 5
ENDMDL
MODEL 2
REMARK VINA RESULT:      -8.7      5.543      9.209
REMARK  5 active torsions:
REMARK  status: ('A' for Active; 'I' for Inactive)
REMARK    1  A    between atoms: C_3  and  C_4 
REMARK    2  A    between atoms: C_4  and  N_5 
REMARK       I    between atoms: N_5  and  C_6 
REMARK    3  A    between atoms: C_6  and  C_7 
REMARK    4  A    between atoms: C_10  and  N_11 
REMARK       I    between atoms: N_11  and  C_12 
REMARK       I    between atoms: C_12  and  N_13 
REMARK    5  A    between atoms: N_13  and  C_14 
ROOT
HETATM    1  C   UNL     1      41.525 -16.829   3.008  1.00  0.00     0.032 A 
HETATM    2  C   UNL     1      40.518 -15.869   2.857  1.00  0.00     0.019 A 
HETATM    3  C   UNL     1      40.188 -15.388   1.582  1.00  0.00     0.030 A 
HETATM    4  C   UNL     1      40.860 -15.854   0.449  1.00  0.00     0.036 A 
HETATM    5  C   UNL     1      41.839 -16.843   0.602  1.00  0.00     0.030 A 
HETATM    6  C   UNL     1      42.168 -17.328   1.870  1.00  0.00     0.019 A 
ENDROOT
BRANCH   1   7
HETATM    7  C   UNL     1      41.935 -17.362   4.337  1.00  0.00     0.251 C 
HETATM    8  N   UNL     1      43.280 -17.319   4.636  1.00  0.00    -0.353 N 
HETATM    9  H   UNL     1      43.941 -17.148   3.891  1.00  0.00     0.163 HD
HETATM   10  O   UNL     1      41.094 -17.846   5.087  1.00  0.00    -0.268 OA
BRANCH   8  11
HETATM   11  C   UNL     1      43.786 -17.984   5.819  1.00  0.00     0.164 C 
BRANCH  11  12
HETATM   12  C   UNL     1      44.092 -19.430   5.555  1.00  0.00    -0.002 A 
HETATM   13  C   UNL     1      44.596 -19.845   4.313  1.00  0.00     0.012 A 
HETATM   14  C   UNL     1      44.921 -21.185   4.089  1.00  0.00     0.001 A 
HETATM   15  C   UNL     1      44.755 -22.125   5.105  1.00  0.00     0.003 A 
HETATM   16  C   UNL     1      44.264 -21.724   6.347  1.00  0.00     0.043 A 
HETATM   17  C   UNL     1      43.942 -20.388   6.563  1.00  0.00     0.124 A 
HETATM   18  F   UNL     1      43.480 -20.025   7.768  1.00  0.00    -0.205 F 
ENDBRANCH  11  12
ENDBRANCH   8  11
ENDBRANCH   1   7
BRANCH   4  19
HETATM   19  N   UNL     1      40.604 -15.401  -0.860  1.00  0.00    -0.309 N 
HETATM   20  C   UNL     1      41.122 -14.295  -1.480  1.00  0.00     0.325 C 
HETATM   21  N   UNL     1      40.670 -14.041  -2.749  1.00  0.00    -0.306 N 
HETATM   22  O   UNL     1      41.996 -13.562  -1.024  1.00  0.00    -0.247 OA
HETATM   23  H   UNL     1      41.230 -13.350  -3.232  1.00  0.00     0.171 HD
HETATM   24  H   UNL     1      40.185 -16.075  -1.483  1.00  0.00     0.170 HD
BRANCH  21  25
HETATM   25  C   UNL     1      39.539 -14.490  -3.401  1.00  0.00     0.072 A 
HETATM   26  C   UNL     1      39.217 -15.706  -4.043  1.00  0.00     0.169 A 
HETATM   27  N   UNL     1      37.985 -15.704  -4.558  1.00  0.00    -0.185 NA
HETATM   28  N   UNL     1      37.498 -14.503  -4.206  1.00  0.00    -0.287 N 
HETATM   29  H   UNL     1      36.549 -14.268  -4.482  1.00  0.00     0.188 HD
HETATM   30  C   UNL     1      38.385 -13.747  -3.496  1.00  0.00     0.140 A 
ENDBRANCH  21  25
ENDBRANCH   4  19
TORSDOF 5
ENDMDL
MODEL 3
REMARK VINA RESULT:      -8.5      5.668      9.056
REMARK  5 active torsions:
REMARK  status: ('A' for Active; 'I' for Inactive)
REMARK    1  A    between atoms: C_3  and  C_4 
REMARK    2  A    between atoms: C_4  and  N_5 
REMARK       I    between atoms: N_5  and  C_6 
REMARK    3  A    between atoms: C_6  and  C_7 
REMARK    4  A    between atoms: C_10  and  N_11 
REMARK       I    between atoms: N_11  and  C_12 
REMARK       I    between atoms: C_12  and  N_13 
REMARK    5  A    between atoms: N_13  and  C_14 
ROOT
HETATM    1  C   UNL     1      41.857 -16.980   2.712  1.00  0.00     0.032 A 
HETATM    2  C   UNL     1      40.666 -16.247   2.768  1.00  0.00     0.019 A 
HETATM    3  C   UNL     1      40.158 -15.639   1.611  1.00  0.00     0.030 A 
HETATM    4  C   UNL     1      40.832 -15.751   0.393  1.00  0.00     0.036 A 
HETATM    5  C   UNL     1      42.001 -16.518   0.334  1.00  0.00     0.030 A 
HETATM    6  C   UNL     1      42.509 -17.129   1.484  1.00  0.00     0.019 A 
ENDROOT
BRANCH   1   7
HETATM    7  C   UNL     1      42.457 -17.631   3.910  1.00  0.00     0.251 C 
HETATM    8  N   UNL     1      43.819 -17.845   3.883  1.00  0.00    -0.353 N 
HETATM    9  H   UNL     1      44.309 -17.768   3.003  1.00  0.00     0.163 HD
HETATM   10  O   UNL     1      41.739 -17.982   4.839  1.00  0.00    -0.268 OA
BRANCH   8  11
HETATM   11  C   UNL     1      44.453 -18.637   4.918  1.00  0.00     0.164 C 
BRANCH  11  12
HETATM   12  C   UNL     1      44.571 -20.080   4.518  1.00  0.00    -0.002 A 
HETATM   13  C   UNL     1      44.562 -21.098   5.484  1.00  0.00     0.012 A 
HETATM   14  C   UNL     1      44.628 -22.441   5.103  1.00  0.00     0.001 A 
HETATM   15  C   UNL     1      44.695 -22.782   3.752  1.00  0.00     0.003 A 
HETATM   16  C   UNL     1      44.695 -21.780   2.783  1.00  0.00     0.043 A 
HETATM   17  C   UNL     1      44.630 -20.445   3.170  1.00  0.00     0.124 A 
HETATM   18  F   UNL     1      44.623 -19.500   2.219  1.00  0.00    -0.205 F 
ENDBRANCH  11  12
ENDBRANCH   8  11
ENDBRANCH   1   7
BRANCH   4  19
HETATM   19  N   UNL     1      40.400 -15.147  -0.805  1.00  0.00    -0.309 N 
HETATM   20  C   UNL     1      40.361 -13.812  -1.103  1.00  0.00     0.325 C 
HETATM   21  N   UNL     1      39.844 -13.476  -2.328  1.00  0.00    -0.306 N 
HETATM   22  O   UNL     1      40.808 -12.907  -0.401  1.00  0.00    -0.247 OA
HETATM   23  H   UNL     1      40.030 -12.514  -2.581  1.00  0.00     0.171 HD
HETATM   24  H   UNL     1      40.332 -15.760  -1.604  1.00  0.00     0.170 HD
BRANCH  21  25
HETATM   25  C   UNL     1      39.040 -14.200  -3.186  1.00  0.00     0.072 A 
HETATM   26  C   UNL     1      39.224 -15.413  -3.885  1.00  0.00     0.169 A 
HETATM   27  N   UNL     1      38.163 -15.744  -4.625  1.00  0.00    -0.185 NA
HETATM   28  N   UNL     1      37.278 -14.769  -4.365  1.00  0.00    -0.287 N 
HETATM   29  H   UNL     1      36.369 -14.810  -4.815  1.00  0.00     0.188 HD
HETATM   30  C   UNL     1      37.751 -13.829  -3.494  1.00  0.00     0.140 A 
ENDBRANCH  21  25
ENDBRANCH   4  19
TORSDOF 5
ENDMDL
MODEL 4
REMARK VINA RESULT:      -8.3      2.274      2.706
REMARK  5 active torsions:
REMARK  status: ('A' for Active; 'I' for Inactive)
REMARK    1  A    between atoms: C_3  and  C_4 
REMARK    2  A    between atoms: C_4  and  N_5 
REMARK       I    between atoms: N_5  and  C_6 
REMARK    3  A    between atoms: C_6  and  C_7 
REMARK    4  A    between atoms: C_10  and  N_11 
REMARK       I    between atoms: N_11  and  C_12 
REMARK       I    between atoms: C_12  and  N_13 
REMARK    5  A    between atoms: N_13  and  C_14 
ROOT
HETATM    1  C   UNL     1      42.078 -16.002   3.924  1.00  0.00     0.032 A 
HETATM    2  C   UNL     1      40.789 -15.470   4.042  1.00  0.00     0.019 A 
HETATM    3  C   UNL     1      40.560 -14.351   4.855  1.00  0.00     0.030 A 
HETATM    4  C   UNL     1      41.610 -13.756   5.559  1.00  0.00     0.036 A 
HETATM    5  C   UNL     1      42.903 -14.268   5.407  1.00  0.00     0.030 A 
HETATM    6  C   UNL     1      43.137 -15.381   4.594  1.00  0.00     0.019 A 
ENDROOT
BRANCH   1   7
HETATM    7  C   UNL     1      42.380 -17.201   3.093  1.00  0.00     0.251 C 
HETATM    8  N   UNL     1      43.589 -17.824   3.318  1.00  0.00    -0.353 N 
HETATM    9  H   UNL     1      44.298 -17.339   3.850  1.00  0.00     0.163 HD
HETATM   10  O   UNL     1      41.586 -17.564   2.233  1.00  0.00    -0.268 OA
BRANCH   8  11
HETATM   11  C   UNL     1      44.043 -18.876   2.432  1.00  0.00     0.164 C 
BRANCH  11  12
HETATM   12  C   UNL     1      44.333 -20.146   3.180  1.00  0.00    -0.002 A 
HETATM   13  C   UNL     1      44.552 -20.132   4.566  1.00  0.00     0.012 A 
HETATM   14  C   UNL     1      44.778 -21.322   5.262  1.00  0.00     0.001 A 
HETATM   15  C   UNL     1      44.778 -22.541   4.585  1.00  0.00     0.003 A 
HETATM   16  C   UNL     1      44.553 -22.569   3.209  1.00  0.00     0.043 A 
HETATM   17  C   UNL     1      44.330 -21.380   2.522  1.00  0.00     0.124 A 
HETATM   18  F   UNL     1      44.107 -21.434   1.201  1.00  0.00    -0.205 F 
ENDBRANCH  11  12
ENDBRANCH   8  11
ENDBRANCH   1   7
BRANCH   4  19
HETATM   19  N   UNL     1      41.455 -12.648   6.416  1.00  0.00    -0.309 N 
HETATM   20  C   UNL     1      41.468 -11.320   6.078  1.00  0.00     0.325 C 
HETATM   21  N   UNL     1      41.348 -10.429   7.112  1.00  0.00    -0.306 N 
HETATM   22  O   UNL     1      41.507 -10.872   4.935  1.00  0.00    -0.247 OA
HETATM   23  H   UNL     1      41.153  -9.487   6.796  1.00  0.00     0.171 HD
HETATM   24  H   UNL     1      41.067 -12.848   7.325  1.00  0.00     0.170 HD
BRANCH  21  25
HETATM   25  C   UNL     1      41.560 -10.598   8.466  1.00  0.00     0.072 A 
HETATM   26  C   UNL     1      42.729 -10.672   9.256  1.00  0.00     0.169 A 
HETATM   27  N   UNL     1      42.461 -10.854  10.551  1.00  0.00    -0.185 NA
HETATM   28  N   UNL     1      41.119 -10.851  10.601  1.00  0.00    -0.287 N 
HETATM   29  H   UNL     1      40.670 -10.964  11.504  1.00  0.00     0.188 HD
HETATM   30  C   UNL     1      40.534 -10.682   9.379  1.00  0.00     0.140 A 
ENDBRANCH  21  25
ENDBRANCH   4  19
TORSDOF 5
ENDMDL
MODEL 5
REMARK VINA RESULT:      -8.3      5.524      8.525
REMARK  5 active torsions:
REMARK  status: ('A' for Active; 'I' for Inactive)
REMARK    1  A    between atoms: C_3  and  C_4 
REMARK    2  A    between atoms: C_4  and  N_5 
REMARK       I    between atoms: N_5  and  C_6 
REMARK    3  A    between atoms: C_6  and  C_7 
REMARK    4  A    between atoms: C_10  and  N_11 
REMARK       I    between atoms: N_11  and  C_12 
REMARK       I    between atoms: C_12  and  N_13 
REMARK    5  A    between atoms: N_13  and  C_14 
ROOT
HETATM    1  C   UNL     1      41.509 -16.673   3.385  1.00  0.00     0.032 A 
HETATM    2  C   UNL     1      40.980 -15.439   3.779  1.00  0.00     0.019 A 
HETATM    3  C   UNL     1      40.326 -14.622   2.845  1.00  0.00     0.030 A 
HETATM    4  C   UNL     1      40.199 -15.024   1.513  1.00  0.00     0.036 A 
HETATM    5  C   UNL     1      40.696 -16.277   1.134  1.00  0.00     0.030 A 
HETATM    6  C   UNL     1      41.344 -17.096   2.063  1.00  0.00     0.019 A 
ENDROOT
BRANCH   1   7
HETATM    7  C   UNL     1      42.232 -17.574   4.326  1.00  0.00     0.251 C 
HETATM    8  N   UNL     1      43.582 -17.748   4.106  1.00  0.00    -0.353 N 
HETATM    9  H   UNL     1      43.974 -17.457   3.222  1.00  0.00     0.163 HD
HETATM   10  O   UNL     1      41.616 -18.149   5.217  1.00  0.00    -0.268 OA
BRANCH   8  11
HETATM   11  C   UNL     1      44.319 -18.748   4.852  1.00  0.00     0.164 C 
BRANCH  11  12
HETATM   12  C   UNL     1      44.375 -20.058   4.119  1.00  0.00    -0.002 A 
HETATM   13  C   UNL     1      44.307 -20.103   2.718  1.00  0.00     0.012 A 
HETATM   14  C   UNL     1      44.404 -21.322   2.041  1.00  0.00     0.001 A 
HETATM   15  C   UNL     1      44.580 -22.507   2.754  1.00  0.00     0.003 A 
HETATM   16  C   UNL     1      44.658 -22.474   4.145  1.00  0.00     0.043 A 
HETATM   17  C   UNL     1      44.559 -21.257   4.813  1.00  0.00     0.124 A 
HETATM   18  F   UNL     1      44.647 -21.250   6.151  1.00  0.00    -0.205 F 
ENDBRANCH  11  12
ENDBRANCH   8  11
ENDBRANCH   1   7
BRANCH   4  19
HETATM   19  N   UNL     1      39.581 -14.249   0.512  1.00  0.00    -0.309 N 
HETATM   20  C   UNL     1      38.240 -14.081   0.290  1.00  0.00     0.325 C 
HETATM   21  N   UNL     1      37.893 -13.313  -0.790  1.00  0.00    -0.306 N 
HETATM   22  O   UNL     1      37.337 -14.500   1.011  1.00  0.00    -0.247 OA
HETATM   23  H   UNL     1      36.916 -13.050  -0.785  1.00  0.00     0.171 HD
HETATM   24  H   UNL     1      40.172 -13.568   0.059  1.00  0.00     0.170 HD
BRANCH  21  25
HETATM   25  C   UNL     1      38.628 -12.953  -1.902  1.00  0.00     0.072 A 
HETATM   26  C   UNL     1      39.368 -11.796  -2.233  1.00  0.00     0.169 A 
HETATM   27  N   UNL     1      39.923 -11.873  -3.445  1.00  0.00    -0.185 NA
HETATM   28  N   UNL     1      39.579 -13.097  -3.875  1.00  0.00    -0.287 N 
HETATM   29  H   UNL     1      39.902 -13.396  -4.789  1.00  0.00     0.188 HD
HETATM   30  C   UNL     1      38.818 -13.790  -2.978  1.00  0.00     0.140 A 
ENDBRANCH  21  25
ENDBRANCH   4  19
TORSDOF 5
ENDMDL
MODEL 6
REMARK VINA RESULT:      -8.2      6.157      9.447
REMARK  5 active torsions:
REMARK  status: ('A' for Active; 'I' for Inactive)
REMARK    1  A    between atoms: C_3  and  C_4 
REMARK    2  A    between atoms: C_4  and  N_5 
REMARK       I    between atoms: N_5  and  C_6 
REMARK    3  A    between atoms: C_6  and  C_7 
REMARK    4  A    between atoms: C_10  and  N_11 
REMARK       I    between atoms: N_11  and  C_12 
REMARK       I    between atoms: C_12  and  N_13 
REMARK    5  A    between atoms: N_13  and  C_14 
ROOT
HETATM    1  C   UNL     1      41.317 -16.261   2.200  1.00  0.00     0.032 A 
HETATM    2  C   UNL     1      40.159 -15.494   2.373  1.00  0.00     0.019 A 
HETATM    3  C   UNL     1      39.556 -14.870   1.271  1.00  0.00     0.030 A 
HETATM    4  C   UNL     1      40.104 -14.999  -0.007  1.00  0.00     0.036 A 
HETATM    5  C   UNL     1      41.239 -15.798  -0.180  1.00  0.00     0.030 A 
HETATM    6  C   UNL     1      41.840 -16.426   0.914  1.00  0.00     0.019 A 
ENDROOT
BRANCH   1   7
HETATM    7  C   UNL     1      42.014 -16.930   3.334  1.00  0.00     0.251 C 
HETATM    8  N   UNL     1      43.308 -17.348   3.107  1.00  0.00    -0.353 N 
HETATM    9  H   UNL     1      43.648 -17.394   2.157  1.00  0.00     0.163 HD
HETATM   10  O   UNL     1      41.420 -17.120   4.390  1.00  0.00    -0.268 OA
BRANCH   8  11
HETATM   11  C   UNL     1      43.990 -18.171   4.086  1.00  0.00     0.164 C 
BRANCH  11  12
HETATM   12  C   UNL     1      44.106 -19.597   3.628  1.00  0.00    -0.002 A 
HETATM   13  C   UNL     1      43.784 -19.960   2.311  1.00  0.00     0.012 A 
HETATM   14  C   UNL     1      43.937 -21.280   1.879  1.00  0.00     0.001 A 
HETATM   15  C   UNL     1      44.422 -22.251   2.754  1.00  0.00     0.003 A 
HETATM   16  C   UNL     1      44.754 -21.901   4.062  1.00  0.00     0.043 A 
HETATM   17  C   UNL     1      44.598 -20.585   4.486  1.00  0.00     0.124 A 
HETATM   18  F   UNL     1      44.934 -20.272   5.745  1.00  0.00    -0.205 F 
ENDBRANCH  11  12
ENDBRANCH   8  11
ENDBRANCH   1   7
BRANCH   4  19
HETATM   19  N   UNL     1      39.573 -14.381  -1.158  1.00  0.00    -0.309 N 
HETATM   20  C   UNL     1      39.608 -13.052  -1.486  1.00  0.00     0.325 C 
HETATM   21  N   UNL     1      38.968 -12.695  -2.644  1.00  0.00    -0.306 N 
HETATM   22  O   UNL     1      40.216 -12.178  -0.873  1.00  0.00    -0.247 OA
HETATM   23  H   UNL     1      39.200 -11.757  -2.946  1.00  0.00     0.171 HD
HETATM   24  H   UNL     1      39.351 -14.999  -1.923  1.00  0.00     0.170 HD
BRANCH  21  25
HETATM   25  C   UNL     1      38.001 -13.360  -3.372  1.00  0.00     0.072 A 
HETATM   26  C   UNL     1      37.865 -14.702  -3.790  1.00  0.00     0.169 A 
HETATM   27  N   UNL     1      36.752 -14.908  -4.498  1.00  0.00    -0.185 NA
HETATM   28  N   UNL     1      36.149 -13.708  -4.497  1.00  0.00    -0.287 N 
HETATM   29  H   UNL     1      35.259 -13.615  -4.975  1.00  0.00     0.188 HD
HETATM   30  C   UNL     1      36.851 -12.752  -3.820  1.00  0.00     0.140 A 
ENDBRANCH  21  25
ENDBRANCH   4  19
TORSDOF 5
ENDMDL
MODEL 7
REMARK VINA RESULT:      -8.0      6.159      9.257
REMARK  5 active torsions:
REMARK  status: ('A' for Active; 'I' for Inactive)
REMARK    1  A    between atoms: C_3  and  C_4 
REMARK    2  A    between atoms: C_4  and  N_5 
REMARK       I    between atoms: N_5  and  C_6 
REMARK    3  A    between atoms: C_6  and  C_7 
REMARK    4  A    between atoms: C_10  and  N_11 
REMARK       I    between atoms: N_11  and  C_12 
REMARK       I    between atoms: C_12  and  N_13 
REMARK    5  A    between atoms: N_13  and  C_14 
ROOT
HETATM    1  C   UNL     1      42.389 -15.973   1.613  1.00  0.00     0.032 A 
HETATM    2  C   UNL     1      41.987 -16.824   0.578  1.00  0.00     0.019 A 
HETATM    3  C   UNL     1      41.273 -16.315  -0.516  1.00  0.00     0.030 A 
HETATM    4  C   UNL     1      40.949 -14.958  -0.586  1.00  0.00     0.036 A 
HETATM    5  C   UNL     1      41.388 -14.104   0.433  1.00  0.00     0.030 A 
HETATM    6  C   UNL     1      42.104 -14.607   1.523  1.00  0.00     0.019 A 
ENDROOT
BRANCH   1   7
HETATM    7  C   UNL     1      43.131 -16.458   2.810  1.00  0.00     0.251 C 
HETATM    8  N   UNL     1      43.551 -17.771   2.791  1.00  0.00    -0.353 N 
HETATM    9  H   UNL     1      43.163 -18.398   2.101  1.00  0.00     0.163 HD
HETATM   10  O   UNL     1      43.306 -15.709   3.765  1.00  0.00    -0.268 OA
BRANCH   8  11
HETATM   11  C   UNL     1      44.110 -18.375   3.983  1.00  0.00     0.164 C 
BRANCH  11  12
HETATM   12  C   UNL     1      44.284 -19.858   3.825  1.00  0.00    -0.002 A 
HETATM   13  C   UNL     1      44.159 -20.469   2.568  1.00  0.00     0.012 A 
HETATM   14  C   UNL     1      44.365 -21.843   2.420  1.00  0.00     0.001 A 
HETATM   15  C   UNL     1      44.708 -22.622   3.525  1.00  0.00     0.003 A 
HETATM   16  C   UNL     1      44.844 -22.026   4.778  1.00  0.00     0.043 A 
HETATM   17  C   UNL     1      44.636 -20.657   4.917  1.00  0.00     0.124 A 
HETATM   18  F   UNL     1      44.782 -20.106   6.130  1.00  0.00    -0.205 F 
ENDBRANCH  11  12
ENDBRANCH   8  11
ENDBRANCH   1   7
BRANCH   4  19
HETATM   19  N   UNL     1      40.212 -14.377  -1.637  1.00  0.00    -0.309 N 
HETATM   20  C   UNL     1      40.540 -14.334  -2.966  1.00  0.00     0.325 C 
HETATM   21  N   UNL     1      39.674 -13.658  -3.785  1.00  0.00    -0.306 N 
HETATM   22  O   UNL     1      41.497 -14.903  -3.487  1.00  0.00    -0.247 OA
HETATM   23  H   UNL     1      39.846 -13.834  -4.767  1.00  0.00     0.171 HD
HETATM   24  H   UNL     1      39.244 -14.178  -1.435  1.00  0.00     0.170 HD
BRANCH  21  25
HETATM   25  C   UNL     1      38.708 -12.719  -3.482  1.00  0.00     0.072 A 
HETATM   26  C   UNL     1      38.767 -11.340  -3.181  1.00  0.00     0.169 A 
HETATM   27  N   UNL     1      37.564 -10.816  -2.938  1.00  0.00    -0.185 NA
HETATM   28  N   UNL     1      36.725 -11.847  -3.129  1.00  0.00    -0.287 N 
HETATM   29  H   UNL     1      35.730 -11.688  -3.010  1.00  0.00     0.188 HD
HETATM   30  C   UNL     1      37.362 -13.005  -3.474  1.00  0.00     0.140 A 
ENDBRANCH  21  25
ENDBRANCH   4  19
TORSDOF 5
ENDMDL
MODEL 8
REMARK VINA RESULT:      -7.9      6.103      9.558
REMARK  5 active torsions:
REMARK  status: ('A' for Active; 'I' for Inactive)
REMARK    1  A    between atoms: C_3  and  C_4 
REMARK    2  A    between atoms: C_4  and  N_5 
REMARK       I    between atoms: N_5  and  C_6 
REMARK    3  A    between atoms: C_6  and  C_7 
REMARK    4  A    between atoms: C_10  and  N_11 
REMARK       I    between atoms: N_11  and  C_12 
REMARK       I    between atoms: C_12  and  N_13 
REMARK    5  A    between atoms: N_13  and  C_14 
ROOT
HETATM    1  C   UNL     1      40.556 -15.907   1.662  1.00  0.00     0.032 A 
HETATM    2  C   UNL     1      40.554 -15.949   3.061  1.00  0.00     0.019 A 
HETATM    3  C   UNL     1      41.340 -16.892   3.739  1.00  0.00     0.030 A 
HETATM    4  C   UNL     1      42.129 -17.801   3.031  1.00  0.00     0.036 A 
HETATM    5  C   UNL     1      42.158 -17.729   1.634  1.00  0.00     0.030 A 
HETATM    6  C   UNL     1      41.380 -16.788   0.954  1.00  0.00     0.019 A 
ENDROOT
BRANCH   1   7
HETATM    7  C   UNL     1      39.727 -14.943   0.885  1.00  0.00     0.251 C 
HETATM    8  N   UNL     1      40.029 -14.802  -0.453  1.00  0.00    -0.353 N 
HETATM    9  H   UNL     1      40.907 -15.164  -0.797  1.00  0.00     0.163 HD
HETATM   10  O   UNL     1      38.854 -14.295   1.450  1.00  0.00    -0.268 OA
BRANCH   8  11
HETATM   11  C   UNL     1      39.402 -13.755  -1.234  1.00  0.00     0.164 C 
BRANCH  11  12
HETATM   12  C   UNL     1      40.420 -12.868  -1.892  1.00  0.00    -0.002 A 
HETATM   13  C   UNL     1      40.941 -11.750  -1.223  1.00  0.00     0.012 A 
HETATM   14  C   UNL     1      41.920 -10.954  -1.823  1.00  0.00     0.001 A 
HETATM   15  C   UNL     1      42.396 -11.270  -3.095  1.00  0.00     0.003 A 
HETATM   16  C   UNL     1      41.893 -12.384  -3.766  1.00  0.00     0.043 A 
HETATM   17  C   UNL     1      40.917 -13.171  -3.162  1.00  0.00     0.124 A 
HETATM   18  F   UNL     1      40.456 -14.242  -3.824  1.00  0.00    -0.205 F 
ENDBRANCH  11  12
ENDBRANCH   8  11
ENDBRANCH   1   7
BRANCH   4  19
HETATM   19  N   UNL     1      42.924 -18.794   3.639  1.00  0.00    -0.309 N 
HETATM   20  C   UNL     1      43.946 -18.617   4.534  1.00  0.00     0.325 C 
HETATM   21  N   UNL     1      44.602 -19.750   4.939  1.00  0.00    -0.306 N 
HETATM   22  O   UNL     1      44.271 -17.550   5.048  1.00  0.00    -0.247 OA
HETATM   23  H   UNL     1      45.194 -19.592   5.744  1.00  0.00     0.171 HD
HETATM   24  H   UNL     1      42.560 -19.734   3.594  1.00  0.00     0.170 HD
BRANCH  21  25
HETATM   25  C   UNL     1      44.660 -21.004   4.362  1.00  0.00     0.072 A 
HETATM   26  C   UNL     1      44.574 -21.453   3.026  1.00  0.00     0.169 A 
HETATM   27  N   UNL     1      44.673 -22.781   2.925  1.00  0.00    -0.185 NA
HETATM   28  N   UNL     1      44.869 -23.181   4.191  1.00  0.00    -0.287 N 
HETATM   29  H   UNL     1      44.987 -24.173   4.370  1.00  0.00     0.188 HD
HETATM   30  C   UNL     1      44.887 -22.151   5.087  1.00  0.00     0.140 A 
ENDBRANCH  21  25
ENDBRANCH   4  19
TORSDOF 5
ENDMDL
MODEL 9
REMARK VINA RESULT:      -7.7      7.609     10.708
REMARK  5 active torsions:
REMARK  status: ('A' for Active; 'I' for Inactive)
REMARK    1  A    between atoms: C_3  and  C_4 
REMARK    2  A    between atoms: C_4  and  N_5 
REMARK       I    between atoms: N_5  and  C_6 
REMARK    3  A    between atoms: C_6  and  C_7 
REMARK    4  A    between atoms: C_10  and  N_11 
REMARK       I    between atoms: N_11  and  C_12 
REMARK       I    between atoms: C_12  and  N_13 
REMARK    5  A    between atoms: N_13  and  C_14 
ROOT
HETATM    1  C   UNL     1      39.899 -14.786   1.337  1.00  0.00     0.032 A 
HETATM    2  C   UNL     1      38.552 -14.408   1.374  1.00  0.00     0.019 A 
HETATM    3  C   UNL     1      37.894 -14.028   0.195  1.00  0.00     0.030 A 
HETATM    4  C   UNL     1      38.571 -14.017  -1.026  1.00  0.00     0.036 A 
HETATM    5  C   UNL     1      39.907 -14.433  -1.064  1.00  0.00     0.030 A 
HETATM    6  C   UNL     1      40.565 -14.817   0.108  1.00  0.00     0.019 A 
ENDROOT
BRANCH   1   7
HETATM    7  C   UNL     1      40.657 -15.180   2.557  1.00  0.00     0.251 C 
HETATM    8  N   UNL     1      41.385 -16.349   2.486  1.00  0.00    -0.353 N 
HETATM    9  H   UNL     1      41.207 -16.990   1.726  1.00  0.00     0.163 HD
HETATM   10  O   UNL     1      40.582 -14.495   3.571  1.00  0.00    -0.268 OA
BRANCH   8  11
HETATM   11  C   UNL     1      41.996 -16.900   3.679  1.00  0.00     0.164 C 
BRANCH  11  12
HETATM   12  C   UNL     1      42.788 -18.139   3.374  1.00  0.00    -0.002 A 
HETATM   13  C   UNL     1      42.729 -18.739   2.107  1.00  0.00     0.012 A 
HETATM   14  C   UNL     1      43.503 -19.866   1.817  1.00  0.00     0.001 A 
HETATM   15  C   UNL     1      44.350 -20.402   2.786  1.00  0.00     0.003 A 
HETATM   16  C   UNL     1      44.425 -19.810   4.046  1.00  0.00     0.043 A 
HETATM   17  C   UNL     1      43.651 -18.688   4.328  1.00  0.00     0.124 A 
HETATM   18  F   UNL     1      43.746 -18.131   5.543  1.00  0.00    -0.205 F 
ENDBRANCH  11  12
ENDBRANCH   8  11
ENDBRANCH   1   7
BRANCH   4  19
HETATM   19  N   UNL     1      37.987 -13.622  -2.247  1.00  0.00    -0.309 N 
HETATM   20  C   UNL     1      38.148 -12.433  -2.906  1.00  0.00     0.325 C 
HETATM   21  N   UNL     1      37.423 -12.274  -4.058  1.00  0.00    -0.306 N 
HETATM   22  O   UNL     1      38.929 -11.538  -2.590  1.00  0.00    -0.247 OA
HETATM   23  H   UNL     1      37.732 -11.482  -4.609  1.00  0.00     0.171 HD
HETATM   24  H   UNL     1      37.601 -14.367  -2.807  1.00  0.00     0.170 HD
BRANCH  21  25
HETATM   25  C   UNL     1      36.302 -12.942  -4.508  1.00  0.00     0.072 A 
HETATM   26  C   UNL     1      36.100 -14.236  -5.038  1.00  0.00     0.169 A 
HETATM   27  N   UNL     1      34.824 -14.466  -5.357  1.00  0.00    -0.185 NA
HETATM   28  N   UNL     1      34.197 -13.338  -4.988  1.00  0.00    -0.287 N 
HETATM   29  H   UNL     1      33.193 -13.277  -5.124  1.00  0.00     0.188 HD
HETATM   30  C   UNL     1      35.037 -12.401  -4.457  1.00  0.00     0.140 A 
ENDBRANCH  21  25
ENDBRANCH   4  19
TORSDOF 5
ENDMDL
MODEL 10
REMARK VINA RESULT:      -7.5      5.802      8.909
REMARK  5 active torsions:
REMARK  status: ('A' for Active; 'I' for Inactive)
REMARK    1  A    between atoms: C_3  and  C_4 
REMARK    2  A    between atoms: C_4  and  N_5 
REMARK       I    between atoms: N_5  and  C_6 
REMARK    3  A    between atoms: C_6  and  C_7 
REMARK    4  A    between atoms: C_10  and  N_11 
REMARK       I    between atoms: N_11  and  C_12 
REMARK       I    between atoms: C_12  and  N_13 
REMARK    5  A    between atoms: N_13  and  C_14 
ROOT
HETATM    1  C   UNL     1      41.043 -15.851   0.949  1.00  0.00     0.032 A 
HETATM    2  C   UNL     1      42.396 -16.075   0.671  1.00  0.00     0.019 A 
HETATM    3  C   UNL     1      43.189 -16.803   1.569  1.00  0.00     0.030 A 
HETATM    4  C   UNL     1      42.644 -17.309   2.751  1.00  0.00     0.036 A 
HETATM    5  C   UNL     1      41.282 -17.116   3.005  1.00  0.00     0.030 A 
HETATM    6  C   UNL     1      40.487 -16.394   2.111  1.00  0.00     0.019 A 
ENDROOT
BRANCH   1   7
HETATM    7  C   UNL     1      40.155 -15.067   0.045  1.00  0.00     0.251 C 
HETATM    8  N   UNL     1      40.300 -15.284  -1.309  1.00  0.00    -0.353 N 
HETATM    9  H   UNL     1      41.120 -15.772  -1.641  1.00  0.00     0.163 HD
HETATM   10  O   UNL     1      39.374 -14.248   0.516  1.00  0.00    -0.268 OA
BRANCH   8  11
HETATM   11  C   UNL     1      39.615 -14.434  -2.260  1.00  0.00     0.164 C 
BRANCH  11  12
HETATM   12  C   UNL     1      40.518 -13.360  -2.797  1.00  0.00    -0.002 A 
HETATM   13  C   UNL     1      41.896 -13.379  -2.531  1.00  0.00     0.012 A 
HETATM   14  C   UNL     1      42.737 -12.402  -3.070  1.00  0.00     0.001 A 
HETATM   15  C   UNL     1      42.214 -11.401  -3.887  1.00  0.00     0.003 A 
HETATM   16  C   UNL     1      40.848 -11.376  -4.166  1.00  0.00     0.043 A 
HETATM   17  C   UNL     1      40.016 -12.352  -3.625  1.00  0.00     0.124 A 
HETATM   18  F   UNL     1      38.708 -12.313  -3.915  1.00  0.00    -0.205 F 
ENDBRANCH  11  12
ENDBRANCH   8  11
ENDBRANCH   1   7
BRANCH   4  19
HETATM   19  N   UNL     1      43.382 -18.027   3.714  1.00  0.00    -0.309 N 
HETATM   20  C   UNL     1      44.052 -19.209   3.546  1.00  0.00     0.325 C 
HETATM   21  N   UNL     1      44.651 -19.733   4.661  1.00  0.00    -0.306 N 
HETATM   22  O   UNL     1      44.215 -19.795   2.478  1.00  0.00    -0.247 OA
HETATM   23  H   UNL     1      45.298 -20.480   4.444  1.00  0.00     0.171 HD
HETATM   24  H   UNL     1      43.638 -17.511   4.542  1.00  0.00     0.170 HD
BRANCH  21  25
HETATM   25  C   UNL     1      44.427 -19.476   6.000  1.00  0.00     0.072 A 
HETATM   26  C   UNL     1      44.763 -18.393   6.841  1.00  0.00     0.169 A 
HETATM   27  N   UNL     1      44.346 -18.572   8.097  1.00  0.00    -0.185 NA
HETATM   28  N   UNL     1      43.701 -19.748   8.053  1.00  0.00    -0.287 N 
HETATM   29  H   UNL     1      43.277 -20.099   8.906  1.00  0.00     0.188 HD
HETATM   30  C   UNL     1      43.707 -20.321   6.813  1.00  0.00     0.140 A 
ENDBRANCH  21  25
ENDBRANCH   4  19
TORSDOF 5
ENDMDL
