MODEL 1
REMARK VINA RESULT:      -9.2      0.000      0.000
REMARK  5 active torsions:
REMARK  status: ('A' for Active; 'I' for Inactive)
REMARK    1  A    between atoms: C_4  and  N_5 
REMARK    2  A    between atoms: C_8  and  C_9 
REMARK    3  A    between atoms: C_9  and  N_10 
REMARK       I    between atoms: N_10  and  C_11 
REMARK       I    between atoms: C_11  and  N_12 
REMARK    4  A    between atoms: N_12  and  C_13 
REMARK    5  A    between atoms: C_13  and  C_14 
ROOT
HETATM    1  N   UNL     1      43.233 -16.197   5.379  1.00  0.00    -0.319 N 
HETATM    2  C   UNL     1      43.797 -14.921   5.468  1.00  0.00     0.021 A 
HETATM    3  C   UNL     1      43.833 -13.949   4.330  1.00  0.00     0.069 C 
HETATM    4  C   UNL     1      44.234 -14.716   6.775  1.00  0.00    -0.016 A 
HETATM    5  C   UNL     1      43.903 -15.884   7.501  1.00  0.00     0.035 A 
HETATM    6  C   UNL     1      43.315 -16.787   6.638  1.00  0.00     0.014 A 
HETATM    7  C   UNL     1      42.939 -18.198   6.946  1.00  0.00     0.068 C 
ENDROOT
BRANCH   4   8
HETATM    8  C   UNL     1      44.931 -13.514   7.337  1.00  0.00     0.165 C 
BRANCH   8   9
HETATM    9  N   UNL     1      44.221 -13.071   8.513  1.00  0.00    -0.339 N 
HETATM   10  C   UNL     1      44.599 -11.922   9.151  1.00  0.00     0.316 C 
HETATM   11  N   UNL     1      43.645 -11.507  10.040  1.00  0.00    -0.339 N 
HETATM   12  O   UNL     1      45.629 -11.308   8.918  1.00  0.00    -0.247 OA
HETATM   13  H   UNL     1      43.091 -12.225  10.479  1.00  0.00     0.164 HD
HETATM   14  H   UNL     1      43.251 -13.339   8.585  1.00  0.00     0.164 HD
BRANCH  11  15
HETATM   15  C   UNL     1      43.814 -10.269  10.767  1.00  0.00     0.162 C 
BRANCH  15  16
HETATM   16  C   UNL     1      43.073 -10.286  12.080  1.00  0.00    -0.040 A 
HETATM   17  C   UNL     1      43.544  -9.539  13.169  1.00  0.00     0.009 A 
HETATM   18  C   UNL     1      42.836  -9.514  14.373  1.00  0.00     0.001 A 
HETATM   19  C   UNL     1      41.645 -10.228  14.499  1.00  0.00     0.000 A 
HETATM   20  C   UNL     1      41.157 -10.963  13.421  1.00  0.00     0.001 A 
HETATM   21  C   UNL     1      41.862 -10.985  12.216  1.00  0.00     0.009 A 
ENDBRANCH  15  16
ENDBRANCH  11  15
ENDBRANCH   8   9
ENDBRANCH   4   8
BRANCH   1  22
HETATM   22  C   UNL     1      42.671 -16.793   4.208  1.00  0.00     0.040 A 
HETATM   23  C   UNL     1      43.360 -17.808   3.532  1.00  0.00     0.036 A 
HETATM   24  C   UNL     1      42.833 -18.372   2.361  1.00  0.00    -0.060 A 
HETATM   25  C   UNL     1      43.567 -19.471   1.650  1.00  0.00     0.048 C 
HETATM   26  C   UNL     1      41.587 -17.937   1.896  1.00  0.00     0.007 A 
HETATM   27  C   UNL     1      40.892 -16.935   2.573  1.00  0.00     0.003 A 
HETATM   28  C   UNL     1      41.432 -16.360   3.724  1.00  0.00     0.030 A 
ENDBRANCH   1  22
TORSDOF 5
ENDMDL
MODEL 2
REMARK VINA RESULT:      -9.0      0.658      1.576
REMARK  5 active torsions:
REMARK  status: ('A' for Active; 'I' for Inactive)
REMARK    1  A    between atoms: C_4  and  N_5 
REMARK    2  A    between atoms: C_8  and  C_9 
REMARK    3  A    between atoms: C_9  and  N_10 
REMARK       I    between atoms: N_10  and  C_11 
REMARK       I    between atoms: C_11  and  N_12 
REMARK    4  A    between atoms: N_12  and  C_13 
REMARK    5  A    between atoms: C_13  and  C_14 
ROOT
HETATM    1  N   UNL     1      43.014 -16.017   5.027  1.00  0.00    -0.319 N 
HETATM    2  C   UNL     1      43.671 -14.802   5.245  1.00  0.00     0.021 A 
HETATM    3  C   UNL     1      43.707 -13.687   4.248  1.00  0.00     0.069 C 
HETATM    4  C   UNL     1      44.199 -14.807   6.535  1.00  0.00    -0.016 A 
HETATM    5  C   UNL     1      43.831 -16.041   7.120  1.00  0.00     0.035 A 
HETATM    6  C   UNL     1      43.130 -16.779   6.188  1.00  0.00     0.014 A 
HETATM    7  C   UNL     1      42.674 -18.192   6.330  1.00  0.00     0.068 C 
ENDROOT
BRANCH   4   8
HETATM    8  C   UNL     1      45.012 -13.739   7.202  1.00  0.00     0.165 C 
BRANCH   8   9
HETATM    9  N   UNL     1      44.293 -13.261   8.360  1.00  0.00    -0.339 N 
HETATM   10  C   UNL     1      44.675 -12.100   8.974  1.00  0.00     0.316 C 
HETATM   11  N   UNL     1      43.715 -11.655   9.842  1.00  0.00    -0.339 N 
HETATM   12  O   UNL     1      45.714 -11.501   8.737  1.00  0.00    -0.247 OA
HETATM   13  H   UNL     1      43.150 -12.358  10.292  1.00  0.00     0.164 HD
HETATM   14  H   UNL     1      43.321 -13.518   8.427  1.00  0.00     0.164 HD
BRANCH  11  15
HETATM   15  C   UNL     1      43.889 -10.402  10.542  1.00  0.00     0.162 C 
BRANCH  15  16
HETATM   16  C   UNL     1      43.165 -10.396  11.865  1.00  0.00    -0.040 A 
HETATM   17  C   UNL     1      43.631  -9.601  12.922  1.00  0.00     0.009 A 
HETATM   18  C   UNL     1      42.938  -9.555  14.134  1.00  0.00     0.001 A 
HETATM   19  C   UNL     1      41.769 -10.295  14.300  1.00  0.00     0.000 A 
HETATM   20  C   UNL     1      41.287 -11.079  13.254  1.00  0.00     0.001 A 
HETATM   21  C   UNL     1      41.976 -11.122  12.040  1.00  0.00     0.009 A 
ENDBRANCH  15  16
ENDBRANCH  11  15
ENDBRANCH   8   9
ENDBRANCH   4   8
BRANCH   1  22
HETATM   22  C   UNL     1      42.341 -16.410   3.829  1.00  0.00     0.040 A 
HETATM   23  C   UNL     1      41.130 -15.804   3.468  1.00  0.00     0.036 A 
HETATM   24  C   UNL     1      40.444 -16.209   2.314  1.00  0.00    -0.060 A 
HETATM   25  C   UNL     1      39.156 -15.545   1.924  1.00  0.00     0.048 C 
HETATM   26  C   UNL     1      41.004 -17.201   1.501  1.00  0.00     0.007 A 
HETATM   27  C   UNL     1      42.216 -17.798   1.849  1.00  0.00     0.003 A 
HETATM   28  C   UNL     1      42.882 -17.408   3.012  1.00  0.00     0.030 A 
ENDBRANCH   1  22
TORSDOF 5
ENDMDL
MODEL 3
REMARK VINA RESULT:      -8.7      6.781     10.009
REMARK  5 active torsions:
REMARK  status: ('A' for Active; 'I' for Inactive)
REMARK    1  A    between atoms: C_4  and  N_5 
REMARK    2  A    between atoms: C_8  and  C_9 
REMARK    3  A    between atoms: C_9  and  N_10 
REMARK       I    between atoms: N_10  and  C_11 
REMARK       I    between atoms: C_11  and  N_12 
REMARK    4  A    between atoms: N_12  and  C_13 
REMARK    5  A    between atoms: C_13  and  C_14 
ROOT
HETATM    1  N   UNL     1      42.907 -17.600   3.364  1.00  0.00    -0.319 N 
HETATM    2  C   UNL     1      41.775 -17.091   4.008  1.00  0.00     0.021 A 
HETATM    3  C   UNL     1      41.111 -17.758   5.172  1.00  0.00     0.069 C 
HETATM    4  C   UNL     1      41.444 -15.868   3.428  1.00  0.00    -0.016 A 
HETATM    5  C   UNL     1      42.414 -15.617   2.428  1.00  0.00     0.035 A 
HETATM    6  C   UNL     1      43.286 -16.687   2.383  1.00  0.00     0.014 A 
HETATM    7  C   UNL     1      44.373 -16.908   1.386  1.00  0.00     0.068 C 
ENDROOT
BRANCH   4   8
HETATM    8  C   UNL     1      40.292 -14.970   3.761  1.00  0.00     0.165 C 
BRANCH   8   9
HETATM    9  N   UNL     1      39.311 -15.058   2.705  1.00  0.00    -0.339 N 
HETATM   10  C   UNL     1      39.241 -14.083   1.749  1.00  0.00     0.316 C 
HETATM   11  N   UNL     1      38.478 -14.480   0.685  1.00  0.00    -0.339 N 
HETATM   12  O   UNL     1      39.832 -13.015   1.807  1.00  0.00    -0.247 OA
HETATM   13  H   UNL     1      37.720 -15.115   0.882  1.00  0.00     0.164 HD
HETATM   14  H   UNL     1      39.013 -15.984   2.440  1.00  0.00     0.164 HD
BRANCH  11  15
HETATM   15  C   UNL     1      38.335 -13.623  -0.471  1.00  0.00     0.162 C 
BRANCH  15  16
HETATM   16  C   UNL     1      38.754 -14.322  -1.739  1.00  0.00    -0.040 A 
HETATM   17  C   UNL     1      40.070 -14.777  -1.895  1.00  0.00     0.009 A 
HETATM   18  C   UNL     1      40.452 -15.468  -3.048  1.00  0.00     0.001 A 
HETATM   19  C   UNL     1      39.519 -15.718  -4.053  1.00  0.00     0.000 A 
HETATM   20  C   UNL     1      38.204 -15.285  -3.906  1.00  0.00     0.001 A 
HETATM   21  C   UNL     1      37.821 -14.599  -2.752  1.00  0.00     0.009 A 
ENDBRANCH  15  16
ENDBRANCH  11  15
ENDBRANCH   8   9
ENDBRANCH   4   8
BRANCH   1  22
HETATM   22  C   UNL     1      43.562 -18.835   3.660  1.00  0.00     0.040 A 
HETATM   23  C   UNL     1      43.684 -19.823   2.673  1.00  0.00     0.036 A 
HETATM   24  C   UNL     1      44.293 -21.053   2.964  1.00  0.00    -0.060 A 
HETATM   25  C   UNL     1      44.436 -22.100   1.899  1.00  0.00     0.048 C 
HETATM   26  C   UNL     1      44.815 -21.268   4.244  1.00  0.00     0.007 A 
HETATM   27  C   UNL     1      44.707 -20.283   5.226  1.00  0.00     0.003 A 
HETATM   28  C   UNL     1      44.078 -19.071   4.938  1.00  0.00     0.030 A 
ENDBRANCH   1  22
TORSDOF 5
ENDMDL
MODEL 4
REMARK VINA RESULT:      -8.6      2.664      3.737
REMARK  5 active torsions:
REMARK  status: ('A' for Active; 'I' for Inactive)
REMARK    1  A    between atoms: C_4  and  N_5 
REMARK    2  A    between atoms: C_8  and  C_9 
REMARK    3  A    between atoms: C_9  and  N_10 
REMARK       I    between atoms: N_10  and  C_11 
REMARK       I    between atoms: C_11  and  N_12 
REMARK    4  A    between atoms: N_12  and  C_13 
REMARK    5  A    between atoms: C_13  and  C_14 
ROOT
HETATM    1  N   UNL     1      42.267 -15.381   4.939  1.00  0.00    -0.319 N 
HETATM    2  C   UNL     1      41.019 -15.217   5.546  1.00  0.00     0.021 A 
HETATM    3  C   UNL     1      40.301 -16.309   6.277  1.00  0.00     0.069 C 
HETATM    4  C   UNL     1      40.626 -13.887   5.406  1.00  0.00    -0.016 A 
HETATM    5  C   UNL     1      41.673 -13.225   4.721  1.00  0.00     0.035 A 
HETATM    6  C   UNL     1      42.656 -14.147   4.422  1.00  0.00     0.014 A 
HETATM    7  C   UNL     1      43.870 -13.915   3.587  1.00  0.00     0.068 C 
ENDROOT
BRANCH   4   8
HETATM    8  C   UNL     1      39.351 -13.249   5.866  1.00  0.00     0.165 C 
BRANCH   8   9
HETATM    9  N   UNL     1      39.406 -13.074   7.298  1.00  0.00    -0.339 N 
HETATM   10  C   UNL     1      39.669 -11.843   7.831  1.00  0.00     0.316 C 
HETATM   11  N   UNL     1      39.385 -11.805   9.169  1.00  0.00    -0.339 N 
HETATM   12  O   UNL     1      40.052 -10.878   7.186  1.00  0.00    -0.247 OA
HETATM   13  H   UNL     1      39.503 -12.665   9.681  1.00  0.00     0.164 HD
HETATM   14  H   UNL     1      38.849 -13.706   7.853  1.00  0.00     0.164 HD
BRANCH  11  15
HETATM   15  C   UNL     1      39.523 -10.572   9.910  1.00  0.00     0.162 C 
BRANCH  15  16
HETATM   16  C   UNL     1      40.575 -10.681  10.985  1.00  0.00    -0.040 A 
HETATM   17  C   UNL     1      40.204 -10.712  12.336  1.00  0.00     0.009 A 
HETATM   18  C   UNL     1      41.171 -10.861  13.334  1.00  0.00     0.001 A 
HETATM   19  C   UNL     1      42.516 -10.988  12.991  1.00  0.00     0.000 A 
HETATM   20  C   UNL     1      42.897 -10.973  11.652  1.00  0.00     0.001 A 
HETATM   21  C   UNL     1      41.931 -10.830  10.654  1.00  0.00     0.009 A 
ENDBRANCH  15  16
ENDBRANCH  11  15
ENDBRANCH   8   9
ENDBRANCH   4   8
BRANCH   1  22
HETATM   22  C   UNL     1      43.015 -16.597   4.861  1.00  0.00     0.040 A 
HETATM   23  C   UNL     1      42.896 -17.428   3.740  1.00  0.00     0.036 A 
HETATM   24  C   UNL     1      43.597 -18.641   3.672  1.00  0.00    -0.060 A 
HETATM   25  C   UNL     1      43.480 -19.520   2.461  1.00  0.00     0.048 C 
HETATM   26  C   UNL     1      44.453 -18.993   4.722  1.00  0.00     0.007 A 
HETATM   27  C   UNL     1      44.584 -18.163   5.834  1.00  0.00     0.003 A 
HETATM   28  C   UNL     1      43.865 -16.969   5.908  1.00  0.00     0.030 A 
ENDBRANCH   1  22
TORSDOF 5
ENDMDL
MODEL 5
REMARK VINA RESULT:      -8.5      2.401      3.834
REMARK  5 active torsions:
REMARK  status: ('A' for Active; 'I' for Inactive)
REMARK    1  A    between atoms: C_4  and  N_5 
REMARK    2  A    between atoms: C_8  and  C_9 
REMARK    3  A    between atoms: C_9  and  N_10 
REMARK       I    between atoms: N_10  and  C_11 
REMARK       I    between atoms: C_11  and  N_12 
REMARK    4  A    between atoms: N_12  and  C_13 
REMARK    5  A    between atoms: C_13  and  C_14 
ROOT
HETATM    1  N   UNL     1      43.252 -17.498   3.794  1.00  0.00    -0.319 N 
HETATM    2  C   UNL     1      42.446 -16.952   4.797  1.00  0.00     0.021 A 
HETATM    3  C   UNL     1      42.068 -17.683   6.047  1.00  0.00     0.069 C 
HETATM    4  C   UNL     1      42.138 -15.636   4.455  1.00  0.00    -0.016 A 
HETATM    5  C   UNL     1      42.794 -15.371   3.230  1.00  0.00     0.035 A 
HETATM    6  C   UNL     1      43.451 -16.516   2.825  1.00  0.00     0.014 A 
HETATM    7  C   UNL     1      44.151 -16.729   1.526  1.00  0.00     0.068 C 
ENDROOT
BRANCH   4   8
HETATM    8  C   UNL     1      41.277 -14.666   5.205  1.00  0.00     0.165 C 
BRANCH   8   9
HETATM    9  N   UNL     1      42.126 -13.753   5.932  1.00  0.00    -0.339 N 
HETATM   10  C   UNL     1      41.632 -12.557   6.373  1.00  0.00     0.316 C 
HETATM   11  N   UNL     1      42.470 -11.974   7.284  1.00  0.00    -0.339 N 
HETATM   12  O   UNL     1      40.551 -12.092   6.043  1.00  0.00    -0.247 OA
HETATM   13  H   UNL     1      43.455 -12.157   7.176  1.00  0.00     0.164 HD
HETATM   14  H   UNL     1      42.881 -14.161   6.462  1.00  0.00     0.164 HD
BRANCH  11  15
HETATM   15  C   UNL     1      42.097 -10.735   7.930  1.00  0.00     0.162 C 
BRANCH  15  16
HETATM   16  C   UNL     1      42.719 -10.610   9.299  1.00  0.00    -0.040 A 
HETATM   17  C   UNL     1      44.000 -11.124   9.542  1.00  0.00     0.009 A 
HETATM   18  C   UNL     1      44.601 -10.969  10.794  1.00  0.00     0.001 A 
HETATM   19  C   UNL     1      43.932 -10.292  11.812  1.00  0.00     0.000 A 
HETATM   20  C   UNL     1      42.664  -9.764  11.580  1.00  0.00     0.001 A 
HETATM   21  C   UNL     1      42.065  -9.914  10.328  1.00  0.00     0.009 A 
ENDBRANCH  15  16
ENDBRANCH  11  15
ENDBRANCH   8   9
ENDBRANCH   4   8
BRANCH   1  22
HETATM   22  C   UNL     1      43.781 -18.825   3.764  1.00  0.00     0.040 A 
HETATM   23  C   UNL     1      43.568 -19.645   2.648  1.00  0.00     0.036 A 
HETATM   24  C   UNL     1      44.051 -20.962   2.626  1.00  0.00    -0.060 A 
HETATM   25  C   UNL     1      43.835 -21.830   1.421  1.00  0.00     0.048 C 
HETATM   26  C   UNL     1      44.786 -21.436   3.718  1.00  0.00     0.007 A 
HETATM   27  C   UNL     1      45.012 -20.619   4.825  1.00  0.00     0.003 A 
HETATM   28  C   UNL     1      44.507 -19.318   4.853  1.00  0.00     0.030 A 
ENDBRANCH   1  22
TORSDOF 5
ENDMDL
MODEL 6
REMARK VINA RESULT:      -8.5      6.089      9.406
REMARK  5 active torsions:
REMARK  status: ('A' for Active; 'I' for Inactive)
REMARK    1  A    between atoms: C_4  and  N_5 
REMARK    2  A    between atoms: C_8  and  C_9 
REMARK    3  A    between atoms: C_9  and  N_10 
REMARK       I    between atoms: N_10  and  C_11 
REMARK       I    between atoms: C_11  and  N_12 
REMARK    4  A    between atoms: N_12  and  C_13 
REMARK    5  A    between atoms: C_13  and  C_14 
ROOT
HETATM    1  N   UNL     1      41.145 -14.321   0.686  1.00  0.00    -0.319 N 
HETATM    2  C   UNL     1      41.024 -15.155   1.801  1.00  0.00     0.021 A 
HETATM    3  C   UNL     1      40.352 -16.492   1.768  1.00  0.00     0.069 C 
HETATM    4  C   UNL     1      41.678 -14.559   2.877  1.00  0.00    -0.016 A 
HETATM    5  C   UNL     1      42.232 -13.349   2.396  1.00  0.00     0.035 A 
HETATM    6  C   UNL     1      41.883 -13.203   1.068  1.00  0.00     0.014 A 
HETATM    7  C   UNL     1      42.134 -12.011   0.208  1.00  0.00     0.068 C 
ENDROOT
BRANCH   4   8
HETATM    8  C   UNL     1      41.788 -15.063   4.284  1.00  0.00     0.165 C 
BRANCH   8   9
HETATM    9  N   UNL     1      43.021 -15.800   4.422  1.00  0.00    -0.339 N 
HETATM   10  C   UNL     1      43.015 -17.055   4.965  1.00  0.00     0.316 C 
HETATM   11  N   UNL     1      44.199 -17.704   4.738  1.00  0.00    -0.339 N 
HETATM   12  O   UNL     1      42.056 -17.560   5.529  1.00  0.00    -0.247 OA
HETATM   13  H   UNL     1      45.026 -17.131   4.682  1.00  0.00     0.164 HD
HETATM   14  H   UNL     1      43.751 -15.590   3.758  1.00  0.00     0.164 HD
BRANCH  11  15
HETATM   15  C   UNL     1      44.374 -19.073   5.166  1.00  0.00     0.162 C 
BRANCH  15  16
HETATM   16  C   UNL     1      44.301 -20.035   4.007  1.00  0.00    -0.040 A 
HETATM   17  C   UNL     1      44.724 -21.362   4.161  1.00  0.00     0.009 A 
HETATM   18  C   UNL     1      44.614 -22.270   3.105  1.00  0.00     0.001 A 
HETATM   19  C   UNL     1      44.073 -21.863   1.886  1.00  0.00     0.000 A 
HETATM   20  C   UNL     1      43.635 -20.550   1.723  1.00  0.00     0.001 A 
HETATM   21  C   UNL     1      43.740 -19.644   2.780  1.00  0.00     0.009 A 
ENDBRANCH  15  16
ENDBRANCH  11  15
ENDBRANCH   8   9
ENDBRANCH   4   8
BRANCH   1  22
HETATM   22  C   UNL     1      40.611 -14.569  -0.616  1.00  0.00     0.040 A 
HETATM   23  C   UNL     1      39.439 -13.923  -1.033  1.00  0.00     0.036 A 
HETATM   24  C   UNL     1      38.886 -14.189  -2.294  1.00  0.00    -0.060 A 
HETATM   25  C   UNL     1      37.640 -13.483  -2.742  1.00  0.00     0.048 C 
HETATM   26  C   UNL     1      39.543 -15.078  -3.152  1.00  0.00     0.007 A 
HETATM   27  C   UNL     1      40.717 -15.713  -2.747  1.00  0.00     0.003 A 
HETATM   28  C   UNL     1      41.249 -15.464  -1.481  1.00  0.00     0.030 A 
ENDBRANCH   1  22
TORSDOF 5
ENDMDL
MODEL 7
REMARK VINA RESULT:      -8.5      2.366      2.978
REMARK  5 active torsions:
REMARK  status: ('A' for Active; 'I' for Inactive)
REMARK    1  A    between atoms: C_4  and  N_5 
REMARK    2  A    between atoms: C_8  and  C_9 
REMARK    3  A    between atoms: C_9  and  N_10 
REMARK       I    between atoms: N_10  and  C_11 
REMARK       I    between atoms: C_11  and  N_12 
REMARK    4  A    between atoms: N_12  and  C_13 
REMARK    5  A    between atoms: C_13  and  C_14 
ROOT
HETATM    1  N   UNL     1      42.160 -15.883   5.089  1.00  0.00    -0.319 N 
HETATM    2  C   UNL     1      42.451 -14.562   4.738  1.00  0.00     0.021 A 
HETATM    3  C   UNL     1      43.639 -14.163   3.919  1.00  0.00     0.069 C 
HETATM    4  C   UNL     1      41.433 -13.739   5.215  1.00  0.00    -0.016 A 
HETATM    5  C   UNL     1      40.490 -14.584   5.846  1.00  0.00     0.035 A 
HETATM    6  C   UNL     1      40.953 -15.883   5.784  1.00  0.00     0.014 A 
HETATM    7  C   UNL     1      40.348 -17.076   6.444  1.00  0.00     0.068 C 
ENDROOT
BRANCH   4   8
HETATM    8  C   UNL     1      41.326 -12.248   5.110  1.00  0.00     0.165 C 
BRANCH   8   9
HETATM    9  N   UNL     1      41.778 -11.659   6.348  1.00  0.00    -0.339 N 
HETATM   10  C   UNL     1      40.872 -11.270   7.296  1.00  0.00     0.316 C 
HETATM   11  N   UNL     1      41.479 -11.024   8.497  1.00  0.00    -0.339 N 
HETATM   12  O   UNL     1      39.665 -11.208   7.114  1.00  0.00    -0.247 OA
HETATM   13  H   UNL     1      42.425 -10.679   8.464  1.00  0.00     0.164 HD
HETATM   14  H   UNL     1      42.693 -11.932   6.672  1.00  0.00     0.164 HD
BRANCH  11  15
HETATM   15  C   UNL     1      40.689 -10.672   9.655  1.00  0.00     0.162 C 
BRANCH  15  16
HETATM   16  C   UNL     1      41.535 -10.576  10.900  1.00  0.00    -0.040 A 
HETATM   17  C   UNL     1      42.849 -10.095  10.826  1.00  0.00     0.009 A 
HETATM   18  C   UNL     1      43.621  -9.959  11.982  1.00  0.00     0.001 A 
HETATM   19  C   UNL     1      43.085 -10.293  13.225  1.00  0.00     0.000 A 
HETATM   20  C   UNL     1      41.775 -10.758  13.315  1.00  0.00     0.001 A 
HETATM   21  C   UNL     1      41.001 -10.890  12.161  1.00  0.00     0.009 A 
ENDBRANCH  15  16
ENDBRANCH  11  15
ENDBRANCH   8   9
ENDBRANCH   4   8
BRANCH   1  22
HETATM   22  C   UNL     1      42.956 -17.032   4.789  1.00  0.00     0.040 A 
HETATM   23  C   UNL     1      42.749 -17.743   3.599  1.00  0.00     0.036 A 
HETATM   24  C   UNL     1      43.500 -18.893   3.315  1.00  0.00    -0.060 A 
HETATM   25  C   UNL     1      43.286 -19.641   2.032  1.00  0.00     0.048 C 
HETATM   26  C   UNL     1      44.490 -19.300   4.215  1.00  0.00     0.007 A 
HETATM   27  C   UNL     1      44.708 -18.588   5.394  1.00  0.00     0.003 A 
HETATM   28  C   UNL     1      43.941 -17.459   5.685  1.00  0.00     0.030 A 
ENDBRANCH   1  22
TORSDOF 5
ENDMDL
MODEL 8
REMARK VINA RESULT:      -8.4      6.244      9.438
REMARK  5 active torsions:
REMARK  status: ('A' for Active; 'I' for Inactive)
REMARK    1  A    between atoms: C_4  and  N_5 
REMARK    2  A    between atoms: C_8  and  C_9 
REMARK    3  A    between atoms: C_9  and  N_10 
REMARK       I    between atoms: N_10  and  C_11 
REMARK       I    between atoms: C_11  and  N_12 
REMARK    4  A    between atoms: N_12  and  C_13 
REMARK    5  A    between atoms: C_13  and  C_14 
ROOT
HETATM    1  N   UNL     1      40.886 -13.703  -1.121  1.00  0.00    -0.319 N 
HETATM    2  C   UNL     1      40.800 -13.872   0.263  1.00  0.00     0.021 A 
HETATM    3  C   UNL     1      39.977 -14.936   0.920  1.00  0.00     0.069 C 
HETATM    4  C   UNL     1      41.642 -12.948   0.879  1.00  0.00    -0.016 A 
HETATM    5  C   UNL     1      42.273 -12.221  -0.158  1.00  0.00     0.035 A 
HETATM    6  C   UNL     1      41.790 -12.673  -1.370  1.00  0.00     0.014 A 
HETATM    7  C   UNL     1      42.076 -12.093  -2.714  1.00  0.00     0.068 C 
ENDROOT
BRANCH   4   8
HETATM    8  C   UNL     1      41.857 -12.730   2.346  1.00  0.00     0.165 C 
BRANCH   8   9
HETATM    9  N   UNL     1      42.815 -13.696   2.826  1.00  0.00    -0.339 N 
HETATM   10  C   UNL     1      42.422 -14.686   3.684  1.00  0.00     0.316 C 
HETATM   11  N   UNL     1      43.372 -15.665   3.787  1.00  0.00    -0.339 N 
HETATM   12  O   UNL     1      41.336 -14.726   4.243  1.00  0.00    -0.247 OA
HETATM   13  H   UNL     1      44.332 -15.379   3.679  1.00  0.00     0.164 HD
HETATM   14  H   UNL     1      43.600 -13.895   2.224  1.00  0.00     0.164 HD
BRANCH  11  15
HETATM   15  C   UNL     1      43.123 -16.843   4.588  1.00  0.00     0.162 C 
BRANCH  15  16
HETATM   16  C   UNL     1      43.516 -18.106   3.862  1.00  0.00    -0.040 A 
HETATM   17  C   UNL     1      44.372 -19.033   4.471  1.00  0.00     0.009 A 
HETATM   18  C   UNL     1      44.701 -20.227   3.824  1.00  0.00     0.001 A 
HETATM   19  C   UNL     1      44.172 -20.509   2.566  1.00  0.00     0.000 A 
HETATM   20  C   UNL     1      43.309 -19.602   1.954  1.00  0.00     0.001 A 
HETATM   21  C   UNL     1      42.975 -18.412   2.603  1.00  0.00     0.009 A 
ENDBRANCH  15  16
ENDBRANCH  11  15
ENDBRANCH   8   9
ENDBRANCH   4   8
BRANCH   1  22
HETATM   22  C   UNL     1      40.176 -14.453  -2.110  1.00  0.00     0.040 A 
HETATM   23  C   UNL     1      38.916 -14.025  -2.550  1.00  0.00     0.036 A 
HETATM   24  C   UNL     1      38.196 -14.775  -3.492  1.00  0.00    -0.060 A 
HETATM   25  C   UNL     1      36.855 -14.304  -3.972  1.00  0.00     0.048 C 
HETATM   26  C   UNL     1      38.770 -15.938  -4.019  1.00  0.00     0.007 A 
HETATM   27  C   UNL     1      40.029 -16.360  -3.593  1.00  0.00     0.003 A 
HETATM   28  C   UNL     1      40.730 -15.624  -2.637  1.00  0.00     0.030 A 
ENDBRANCH   1  22
TORSDOF 5
ENDMDL
MODEL 9
REMARK VINA RESULT:      -8.3      6.220      9.734
REMARK  5 active torsions:
REMARK  status: ('A' for Active; 'I' for Inactive)
REMARK    1  A    between atoms: C_4  and  N_5 
REMARK    2  A    between atoms: C_8  and  C_9 
REMARK    3  A    between atoms: C_9  and  N_10 
REMARK       I    between atoms: N_10  and  C_11 
REMARK       I    between atoms: C_11  and  N_12 
REMARK    4  A    between atoms: N_12  and  C_13 
REMARK    5  A    between atoms: C_13  and  C_14 
ROOT
HETATM    1  N   UNL     1      43.505 -17.671   3.933  1.00  0.00    -0.319 N 
HETATM    2  C   UNL     1      43.618 -16.691   2.943  1.00  0.00     0.021 A 
HETATM    3  C   UNL     1      44.192 -16.947   1.584  1.00  0.00     0.069 C 
HETATM    4  C   UNL     1      43.056 -15.508   3.419  1.00  0.00    -0.016 A 
HETATM    5  C   UNL     1      42.568 -15.785   4.718  1.00  0.00     0.035 A 
HETATM    6  C   UNL     1      42.866 -17.097   5.030  1.00  0.00     0.014 A 
HETATM    7  C   UNL     1      42.661 -17.767   6.346  1.00  0.00     0.068 C 
ENDROOT
BRANCH   4   8
HETATM    8  C   UNL     1      42.975 -14.181   2.728  1.00  0.00     0.165 C 
BRANCH   8   9
HETATM    9  N   UNL     1      41.678 -14.058   2.105  1.00  0.00    -0.339 N 
HETATM   10  C   UNL     1      41.535 -13.333   0.954  1.00  0.00     0.316 C 
HETATM   11  N   UNL     1      40.327 -13.576   0.357  1.00  0.00    -0.339 N 
HETATM   12  O   UNL     1      42.396 -12.606   0.483  1.00  0.00    -0.247 OA
HETATM   13  H   UNL     1      39.557 -13.801   0.968  1.00  0.00     0.164 HD
HETATM   14  H   UNL     1      41.030 -14.815   2.255  1.00  0.00     0.164 HD
BRANCH  11  15
HETATM   15  C   UNL     1      40.005 -12.965  -0.913  1.00  0.00     0.162 C 
BRANCH  15  16
HETATM   16  C   UNL     1      39.724 -13.999  -1.974  1.00  0.00    -0.040 A 
HETATM   17  C   UNL     1      40.677 -14.981  -2.275  1.00  0.00     0.009 A 
HETATM   18  C   UNL     1      40.404 -15.969  -3.223  1.00  0.00     0.001 A 
HETATM   19  C   UNL     1      39.171 -15.991  -3.875  1.00  0.00     0.000 A 
HETATM   20  C   UNL     1      38.209 -15.030  -3.576  1.00  0.00     0.001 A 
HETATM   21  C   UNL     1      38.480 -14.045  -2.624  1.00  0.00     0.009 A 
ENDBRANCH  15  16
ENDBRANCH  11  15
ENDBRANCH   8   9
ENDBRANCH   4   8
BRANCH   1  22
HETATM   22  C   UNL     1      43.962 -19.022   3.841  1.00  0.00     0.040 A 
HETATM   23  C   UNL     1      43.694 -19.780   2.693  1.00  0.00     0.036 A 
HETATM   24  C   UNL     1      44.105 -21.119   2.609  1.00  0.00    -0.060 A 
HETATM   25  C   UNL     1      43.831 -21.921   1.371  1.00  0.00     0.048 C 
HETATM   26  C   UNL     1      44.825 -21.678   3.671  1.00  0.00     0.007 A 
HETATM   27  C   UNL     1      45.105 -20.923   4.810  1.00  0.00     0.003 A 
HETATM   28  C   UNL     1      44.671 -19.599   4.899  1.00  0.00     0.030 A 
ENDBRANCH   1  22
TORSDOF 5
ENDMDL
MODEL 10
REMARK VINA RESULT:      -8.3      7.305     10.569
REMARK  5 active torsions:
REMARK  status: ('A' for Active; 'I' for Inactive)
REMARK    1  A    between atoms: C_4  and  N_5 
REMARK    2  A    between atoms: C_8  and  C_9 
REMARK    3  A    between atoms: C_9  and  N_10 
REMARK       I    between atoms: N_10  and  C_11 
REMARK       I    between atoms: C_11  and  N_12 
REMARK    4  A    between atoms: N_12  and  C_13 
REMARK    5  A    between atoms: C_13  and  C_14 
ROOT
HETATM    1  N   UNL     1      39.233 -14.093  -1.395  1.00  0.00    -0.319 N 
HETATM    2  C   UNL     1      39.003 -14.137  -0.017  1.00  0.00     0.021 A 
HETATM    3  C   UNL     1      37.648 -14.000   0.603  1.00  0.00     0.069 C 
HETATM    4  C   UNL     1      40.212 -14.390   0.629  1.00  0.00    -0.016 A 
HETATM    5  C   UNL     1      41.191 -14.530  -0.383  1.00  0.00     0.035 A 
HETATM    6  C   UNL     1      40.589 -14.325  -1.609  1.00  0.00     0.014 A 
HETATM    7  C   UNL     1      41.272 -14.239  -2.932  1.00  0.00     0.068 C 
ENDROOT
BRANCH   4   8
HETATM    8  C   UNL     1      40.467 -14.492   2.102  1.00  0.00     0.165 C 
BRANCH   8   9
HETATM    9  N   UNL     1      40.872 -15.842   2.414  1.00  0.00    -0.339 N 
HETATM   10  C   UNL     1      42.183 -16.121   2.686  1.00  0.00     0.316 C 
HETATM   11  N   UNL     1      42.324 -17.361   3.246  1.00  0.00    -0.339 N 
HETATM   12  O   UNL     1      43.107 -15.341   2.509  1.00  0.00    -0.247 OA
HETATM   13  H   UNL     1      41.657 -18.063   2.966  1.00  0.00     0.164 HD
HETATM   14  H   UNL     1      40.178 -16.436   2.840  1.00  0.00     0.164 HD
BRANCH  11  15
HETATM   15  C   UNL     1      43.624 -17.823   3.678  1.00  0.00     0.162 C 
BRANCH  15  16
HETATM   16  C   UNL     1      43.846 -19.274   3.332  1.00  0.00    -0.040 A 
HETATM   17  C   UNL     1      43.396 -19.784   2.106  1.00  0.00     0.009 A 
HETATM   18  C   UNL     1      43.641 -21.115   1.759  1.00  0.00     0.001 A 
HETATM   19  C   UNL     1      44.344 -21.947   2.629  1.00  0.00     0.000 A 
HETATM   20  C   UNL     1      44.809 -21.449   3.844  1.00  0.00     0.001 A 
HETATM   21  C   UNL     1      44.570 -20.118   4.189  1.00  0.00     0.009 A 
ENDBRANCH  15  16
ENDBRANCH  11  15
ENDBRANCH   8   9
ENDBRANCH   4   8
BRANCH   1  22
HETATM   22  C   UNL     1      38.252 -13.855  -2.408  1.00  0.00     0.040 A 
HETATM   23  C   UNL     1      37.826 -12.549  -2.684  1.00  0.00     0.036 A 
HETATM   24  C   UNL     1      36.837 -12.309  -3.649  1.00  0.00    -0.060 A 
HETATM   25  C   UNL     1      36.396 -10.908  -3.953  1.00  0.00     0.048 C 
HETATM   26  C   UNL     1      36.308 -13.389  -4.365  1.00  0.00     0.007 A 
HETATM   27  C   UNL     1      36.740 -14.689  -4.103  1.00  0.00     0.003 A 
HETATM   28  C   UNL     1      37.705 -14.925  -3.124  1.00  0.00     0.030 A 
ENDBRANCH   1  22
TORSDOF 5
ENDMDL
