MODEL 1
REMARK VINA RESULT:      -6.8      0.000      0.000
REMARK  3 active torsions:
REMARK  status: ('A' for Active; 'I' for Inactive)
REMARK    1  A    between atoms: C_2  and  N_3 
REMARK    2  A    between atoms: C_2  and  C_14 
REMARK       I    between atoms: N_3  and  C_4 
REMARK    3  A    between atoms: C_4  and  C_5 
ROOT
HETATM    1  N   UNL     1      43.476 -18.006   4.298  1.00  0.00    -0.347 N 
HETATM    2  C   UNL     1      42.165 -17.615   4.402  1.00  0.00     0.268 C 
HETATM    3  O   UNL     1      41.381 -18.120   5.199  1.00  0.00    -0.266 OA
HETATM    4  H   UNL     1      44.081 -17.552   3.631  1.00  0.00     0.163 HD
ENDROOT
BRANCH   1   5
HETATM    5  C   UNL     1      44.046 -19.026   5.159  1.00  0.00     0.114 C 
HETATM    6  C   UNL     1      45.317 -18.521   5.852  1.00  0.00     0.037 C 
BRANCH   5   7
HETATM    7  C   UNL     1      44.287 -20.291   4.357  1.00  0.00    -0.033 A 
HETATM    8  C   UNL     1      44.585 -21.489   5.017  1.00  0.00     0.028 A 
HETATM    9  C   UNL     1      44.779 -22.637   4.266  1.00  0.00     0.116 A 
HETATM   10  N   UNL     1      44.692 -22.678   2.920  1.00  0.00    -0.273 NA
HETATM   11  C   UNL     1      44.396 -21.519   2.298  1.00  0.00     0.116 A 
HETATM   12  C   UNL     1      44.184 -20.319   2.962  1.00  0.00     0.028 A 
ENDBRANCH   5   7
ENDBRANCH   1   5
BRANCH   2  13
HETATM   13  C   UNL     1      41.760 -16.556   3.504  1.00  0.00     0.103 A 
HETATM   14  N   UNL     1      40.441 -16.421   3.111  1.00  0.00    -0.341 N 
HETATM   15  H   UNL     1      39.691 -17.033   3.410  1.00  0.00     0.167 HD
HETATM   16  C   UNL     1      40.316 -15.356   2.276  1.00  0.00     0.126 A 
HETATM   17 CL   UNL     1      38.771 -15.003   1.672  1.00  0.00    -0.063 Cl
HETATM   18  C   UNL     1      41.541 -14.773   2.104  1.00  0.00     0.074 A 
HETATM   19 CL   UNL     1      41.944 -13.418   1.169  1.00  0.00    -0.081 Cl
HETATM   20  C   UNL     1      42.460 -15.530   2.877  1.00  0.00     0.062 A 
ENDBRANCH   2  13
TORSDOF 3
ENDMDL
MODEL 2
REMARK VINA RESULT:      -6.7      2.028      2.191
REMARK  3 active torsions:
REMARK  status: ('A' for Active; 'I' for Inactive)
REMARK    1  A    between atoms: C_2  and  N_3 
REMARK    2  A    between atoms: C_2  and  C_14 
REMARK       I    between atoms: N_3  and  C_4 
REMARK    3  A    between atoms: C_4  and  C_5 
ROOT
HETATM    1  N   UNL     1      43.194 -17.815   5.445  1.00  0.00    -0.347 N 
HETATM    2  C   UNL     1      42.327 -17.130   6.257  1.00  0.00     0.268 C 
HETATM    3  O   UNL     1      42.258 -17.320   7.468  1.00  0.00    -0.266 OA
HETATM    4  H   UNL     1      43.216 -17.614   4.457  1.00  0.00     0.163 HD
ENDROOT
BRANCH   1   5
HETATM    5  C   UNL     1      44.131 -18.792   5.968  1.00  0.00     0.114 C 
HETATM    6  C   UNL     1      45.455 -18.133   6.368  1.00  0.00     0.037 C 
BRANCH   5   7
HETATM    7  C   UNL     1      44.321 -19.906   4.955  1.00  0.00    -0.033 A 
HETATM    8  C   UNL     1      44.612 -21.203   5.392  1.00  0.00     0.028 A 
HETATM    9  C   UNL     1      44.758 -22.210   4.451  1.00  0.00     0.116 A 
HETATM   10  N   UNL     1      44.631 -22.019   3.121  1.00  0.00    -0.273 NA
HETATM   11  C   UNL     1      44.342 -20.766   2.715  1.00  0.00     0.116 A 
HETATM   12  C   UNL     1      44.176 -19.694   3.579  1.00  0.00     0.028 A 
ENDBRANCH   5   7
ENDBRANCH   1   5
BRANCH   2  13
HETATM   13  C   UNL     1      41.489 -16.157   5.592  1.00  0.00     0.103 A 
HETATM   14  N   UNL     1      40.893 -15.128   6.298  1.00  0.00    -0.341 N 
HETATM   15  H   UNL     1      40.995 -14.987   7.296  1.00  0.00     0.167 HD
HETATM   16  C   UNL     1      40.166 -14.351   5.453  1.00  0.00     0.126 A 
HETATM   17 CL   UNL     1      39.348 -13.019   6.112  1.00  0.00    -0.063 Cl
HETATM   18  C   UNL     1      40.266 -14.850   4.184  1.00  0.00     0.074 A 
HETATM   19 CL   UNL     1      39.560 -14.263   2.759  1.00  0.00    -0.081 Cl
HETATM   20  C   UNL     1      41.101 -15.995   4.266  1.00  0.00     0.062 A 
ENDBRANCH   2  13
TORSDOF 3
ENDMDL
MODEL 3
REMARK VINA RESULT:      -6.7      2.520      2.955
REMARK  3 active torsions:
REMARK  status: ('A' for Active; 'I' for Inactive)
REMARK    1  A    between atoms: C_2  and  N_3 
REMARK    2  A    between atoms: C_2  and  C_14 
REMARK       I    between atoms: N_3  and  C_4 
REMARK    3  A    between atoms: C_4  and  C_5 
ROOT
HETATM    1  N   UNL     1      42.471 -16.883   2.268  1.00  0.00    -0.347 N 
HETATM    2  C   UNL     1      41.249 -16.550   1.741  1.00  0.00     0.268 C 
HETATM    3  O   UNL     1      40.188 -16.904   2.246  1.00  0.00    -0.266 OA
HETATM    4  H   UNL     1      43.314 -16.559   1.819  1.00  0.00     0.163 HD
ENDROOT
BRANCH   1   5
HETATM    5  C   UNL     1      42.599 -17.648   3.496  1.00  0.00     0.114 C 
HETATM    6  C   UNL     1      43.290 -16.828   4.591  1.00  0.00     0.037 C 
BRANCH   5   7
HETATM    7  C   UNL     1      43.316 -18.953   3.208  1.00  0.00    -0.033 A 
HETATM    8  C   UNL     1      44.247 -19.454   4.125  1.00  0.00     0.028 A 
HETATM    9  C   UNL     1      44.874 -20.660   3.852  1.00  0.00     0.116 A 
HETATM   10  N   UNL     1      44.637 -21.396   2.746  1.00  0.00    -0.273 NA
HETATM   11  C   UNL     1      43.733 -20.904   1.875  1.00  0.00     0.116 A 
HETATM   12  C   UNL     1      43.053 -19.709   2.059  1.00  0.00     0.028 A 
ENDBRANCH   5   7
ENDBRANCH   1   5
BRANCH   2  13
HETATM   13  C   UNL     1      41.289 -15.747   0.540  1.00  0.00     0.103 A 
HETATM   14  N   UNL     1      40.882 -16.263  -0.677  1.00  0.00    -0.341 N 
HETATM   15  H   UNL     1      40.541 -17.208  -0.811  1.00  0.00     0.167 HD
HETATM   16  C   UNL     1      41.009 -15.318  -1.644  1.00  0.00     0.126 A 
HETATM   17 CL   UNL     1      40.559 -15.740  -3.225  1.00  0.00    -0.063 Cl
HETATM   18  C   UNL     1      41.499 -14.168  -1.089  1.00  0.00     0.074 A 
HETATM   19 CL   UNL     1      41.840 -12.691  -1.846  1.00  0.00    -0.081 Cl
HETATM   20  C   UNL     1      41.680 -14.435   0.294  1.00  0.00     0.062 A 
ENDBRANCH   2  13
TORSDOF 3
ENDMDL
MODEL 4
REMARK VINA RESULT:      -6.6      3.663      6.727
REMARK  3 active torsions:
REMARK  status: ('A' for Active; 'I' for Inactive)
REMARK    1  A    between atoms: C_2  and  N_3 
REMARK    2  A    between atoms: C_2  and  C_14 
REMARK       I    between atoms: N_3  and  C_4 
REMARK    3  A    between atoms: C_4  and  C_5 
ROOT
HETATM    1  N   UNL     1      42.145 -17.522   4.535  1.00  0.00    -0.347 N 
HETATM    2  C   UNL     1      43.439 -17.869   4.832  1.00  0.00     0.268 C 
HETATM    3  O   UNL     1      44.179 -17.161   5.508  1.00  0.00    -0.266 OA
HETATM    4  H   UNL     1      41.576 -18.145   3.982  1.00  0.00     0.163 HD
ENDROOT
BRANCH   1   5
HETATM    5  C   UNL     1      41.540 -16.302   5.037  1.00  0.00     0.114 C 
HETATM    6  C   UNL     1      40.638 -16.586   6.243  1.00  0.00     0.037 C 
BRANCH   5   7
HETATM    7  C   UNL     1      40.801 -15.602   3.912  1.00  0.00    -0.033 A 
HETATM    8  C   UNL     1      40.617 -16.254   2.687  1.00  0.00     0.028 A 
HETATM    9  C   UNL     1      39.920 -15.605   1.681  1.00  0.00     0.116 A 
HETATM   10  N   UNL     1      39.393 -14.370   1.808  1.00  0.00    -0.273 NA
HETATM   11  C   UNL     1      39.570 -13.757   2.996  1.00  0.00     0.116 A 
HETATM   12  C   UNL     1      40.252 -14.324   4.063  1.00  0.00     0.028 A 
ENDBRANCH   5   7
ENDBRANCH   1   5
BRANCH   2  13
HETATM   13  C   UNL     1      43.882 -19.136   4.295  1.00  0.00     0.103 A 
HETATM   14  N   UNL     1      44.399 -20.118   5.121  1.00  0.00    -0.341 N 
HETATM   15  H   UNL     1      44.504 -20.023   6.124  1.00  0.00     0.167 HD
HETATM   16  C   UNL     1      44.735 -21.209   4.383  1.00  0.00     0.126 A 
HETATM   17 CL   UNL     1      45.392 -22.543   5.201  1.00  0.00    -0.063 Cl
HETATM   18  C   UNL     1      44.449 -20.969   3.068  1.00  0.00     0.074 A 
HETATM   19 CL   UNL     1      44.669 -21.992   1.735  1.00  0.00    -0.081 Cl
HETATM   20  C   UNL     1      43.910 -19.657   3.006  1.00  0.00     0.062 A 
ENDBRANCH   2  13
TORSDOF 3
ENDMDL
MODEL 5
REMARK VINA RESULT:      -6.6      2.283      3.244
REMARK  3 active torsions:
REMARK  status: ('A' for Active; 'I' for Inactive)
REMARK    1  A    between atoms: C_2  and  N_3 
REMARK    2  A    between atoms: C_2  and  C_14 
REMARK       I    between atoms: N_3  and  C_4 
REMARK    3  A    between atoms: C_4  and  C_5 
ROOT
HETATM    1  N   UNL     1      43.123 -18.868   2.146  1.00  0.00    -0.347 N 
HETATM    2  C   UNL     1      43.429 -17.671   1.551  1.00  0.00     0.268 C 
HETATM    3  O   UNL     1      44.579 -17.334   1.288  1.00  0.00    -0.266 OA
HETATM    4  H   UNL     1      42.159 -19.100   2.334  1.00  0.00     0.163 HD
ENDROOT
BRANCH   1   5
HETATM    5  C   UNL     1      44.141 -19.850   2.472  1.00  0.00     0.114 C 
HETATM    6  C   UNL     1      43.954 -21.135   1.658  1.00  0.00     0.037 C 
BRANCH   5   7
HETATM    7  C   UNL     1      44.140 -20.106   3.967  1.00  0.00    -0.033 A 
HETATM    8  C   UNL     1      43.663 -19.123   4.842  1.00  0.00     0.028 A 
HETATM    9  C   UNL     1      43.650 -19.386   6.203  1.00  0.00     0.116 A 
HETATM   10  N   UNL     1      44.067 -20.548   6.747  1.00  0.00    -0.273 NA
HETATM   11  C   UNL     1      44.517 -21.489   5.892  1.00  0.00     0.116 A 
HETATM   12  C   UNL     1      44.569 -21.320   4.515  1.00  0.00     0.028 A 
ENDBRANCH   5   7
ENDBRANCH   1   5
BRANCH   2  13
HETATM   13  C   UNL     1      42.300 -16.820   1.249  1.00  0.00     0.103 A 
HETATM   14  N   UNL     1      42.204 -16.167   0.033  1.00  0.00    -0.341 N 
HETATM   15  H   UNL     1      42.895 -16.233  -0.705  1.00  0.00     0.167 HD
HETATM   16  C   UNL     1      41.058 -15.439  -0.009  1.00  0.00     0.126 A 
HETATM   17 CL   UNL     1      40.737 -14.555  -1.421  1.00  0.00    -0.063 Cl
HETATM   18  C   UNL     1      40.380 -15.596   1.168  1.00  0.00     0.074 A 
HETATM   19 CL   UNL     1      38.900 -14.915   1.635  1.00  0.00    -0.081 Cl
HETATM   20  C   UNL     1      41.163 -16.469   1.970  1.00  0.00     0.062 A 
ENDBRANCH   2  13
TORSDOF 3
ENDMDL
MODEL 6
REMARK VINA RESULT:      -6.4      4.198      7.278
REMARK  3 active torsions:
REMARK  status: ('A' for Active; 'I' for Inactive)
REMARK    1  A    between atoms: C_2  and  N_3 
REMARK    2  A    between atoms: C_2  and  C_14 
REMARK       I    between atoms: N_3  and  C_4 
REMARK    3  A    between atoms: C_4  and  C_5 
ROOT
HETATM    1  N   UNL     1      41.975 -16.224   1.111  1.00  0.00    -0.347 N 
HETATM    2  C   UNL     1      42.974 -16.373   2.039  1.00  0.00     0.268 C 
HETATM    3  O   UNL     1      43.499 -15.421   2.610  1.00  0.00    -0.266 OA
HETATM    4  H   UNL     1      41.571 -17.040   0.678  1.00  0.00     0.163 HD
ENDROOT
BRANCH   1   5
HETATM    5  C   UNL     1      41.433 -14.923   0.763  1.00  0.00     0.114 C 
HETATM    6  C   UNL     1      40.059 -14.704   1.405  1.00  0.00     0.037 C 
BRANCH   5   7
HETATM    7  C   UNL     1      41.399 -14.775  -0.746  1.00  0.00    -0.033 A 
HETATM    8  C   UNL     1      41.866 -13.598  -1.342  1.00  0.00     0.028 A 
HETATM    9  C   UNL     1      41.846 -13.494  -2.724  1.00  0.00     0.116 A 
HETATM   10  N   UNL     1      41.405 -14.469  -3.545  1.00  0.00    -0.273 NA
HETATM   11  C   UNL     1      40.966 -15.601  -2.957  1.00  0.00     0.116 A 
HETATM   12  C   UNL     1      40.947 -15.801  -1.585  1.00  0.00     0.028 A 
ENDBRANCH   5   7
ENDBRANCH   1   5
BRANCH   2  13
HETATM   13  C   UNL     1      43.374 -17.736   2.310  1.00  0.00     0.103 A 
HETATM   14  N   UNL     1      43.917 -18.091   3.531  1.00  0.00    -0.341 N 
HETATM   15  H   UNL     1      44.072 -17.445   4.296  1.00  0.00     0.167 HD
HETATM   16  C   UNL     1      44.203 -19.419   3.539  1.00  0.00     0.126 A 
HETATM   17 CL   UNL     1      44.881 -20.072   4.951  1.00  0.00    -0.063 Cl
HETATM   18  C   UNL     1      43.857 -19.962   2.333  1.00  0.00     0.074 A 
HETATM   19 CL   UNL     1      44.000 -21.570   1.818  1.00  0.00    -0.081 Cl
HETATM   20  C   UNL     1      43.333 -18.900   1.549  1.00  0.00     0.062 A 
ENDBRANCH   2  13
TORSDOF 3
ENDMDL
MODEL 7
REMARK VINA RESULT:      -6.3      2.494      3.995
REMARK  3 active torsions:
REMARK  status: ('A' for Active; 'I' for Inactive)
REMARK    1  A    between atoms: C_2  and  N_3 
REMARK    2  A    between atoms: C_2  and  C_14 
REMARK       I    between atoms: N_3  and  C_4 
REMARK    3  A    between atoms: C_4  and  C_5 
ROOT
HETATM    1  N   UNL     1      43.122 -17.535   3.139  1.00  0.00    -0.347 N 
HETATM    2  C   UNL     1      43.415 -17.053   1.888  1.00  0.00     0.268 C 
HETATM    3  O   UNL     1      44.509 -17.205   1.356  1.00  0.00    -0.266 OA
HETATM    4  H   UNL     1      42.203 -17.389   3.527  1.00  0.00     0.163 HD
ENDROOT
BRANCH   1   5
HETATM    5  C   UNL     1      44.080 -18.304   3.912  1.00  0.00     0.114 C 
HETATM    6  C   UNL     1      44.043 -19.786   3.526  1.00  0.00     0.037 C 
BRANCH   5   7
HETATM    7  C   UNL     1      43.831 -18.083   5.392  1.00  0.00    -0.033 A 
HETATM    8  C   UNL     1      42.678 -17.411   5.812  1.00  0.00     0.028 A 
HETATM    9  C   UNL     1      42.459 -17.241   7.170  1.00  0.00     0.116 A 
HETATM   10  N   UNL     1      43.295 -17.693   8.128  1.00  0.00    -0.273 NA
HETATM   11  C   UNL     1      44.398 -18.345   7.709  1.00  0.00     0.116 A 
HETATM   12  C   UNL     1      44.704 -18.566   6.374  1.00  0.00     0.028 A 
ENDBRANCH   5   7
ENDBRANCH   1   5
BRANCH   2  13
HETATM   13  C   UNL     1      42.340 -16.345   1.228  1.00  0.00     0.103 A 
HETATM   14  N   UNL     1      42.260 -16.298  -0.152  1.00  0.00    -0.341 N 
HETATM   15  H   UNL     1      42.926 -16.736  -0.778  1.00  0.00     0.167 HD
HETATM   16  C   UNL     1      41.167 -15.584  -0.525  1.00  0.00     0.126 A 
HETATM   17 CL   UNL     1      40.873 -15.400  -2.186  1.00  0.00    -0.063 Cl
HETATM   18  C   UNL     1      40.509 -15.149   0.592  1.00  0.00     0.074 A 
HETATM   19 CL   UNL     1      39.092 -14.225   0.692  1.00  0.00    -0.081 Cl
HETATM   20  C   UNL     1      41.249 -15.627   1.706  1.00  0.00     0.062 A 
ENDBRANCH   2  13
TORSDOF 3
ENDMDL
MODEL 8
REMARK VINA RESULT:      -6.3      2.568      2.946
REMARK  3 active torsions:
REMARK  status: ('A' for Active; 'I' for Inactive)
REMARK    1  A    between atoms: C_2  and  N_3 
REMARK    2  A    between atoms: C_2  and  C_14 
REMARK       I    between atoms: N_3  and  C_4 
REMARK    3  A    between atoms: C_4  and  C_5 
ROOT
HETATM    1  N   UNL     1      42.708 -16.878   5.379  1.00  0.00    -0.347 N 
HETATM    2  C   UNL     1      41.514 -16.599   5.994  1.00  0.00     0.268 C 
HETATM    3  O   UNL     1      41.025 -17.320   6.857  1.00  0.00    -0.266 OA
HETATM    4  H   UNL     1      43.070 -16.246   4.682  1.00  0.00     0.163 HD
ENDROOT
BRANCH   1   5
HETATM    5  C   UNL     1      43.508 -18.035   5.739  1.00  0.00     0.114 C 
HETATM    6  C   UNL     1      44.838 -17.615   6.373  1.00  0.00     0.037 C 
BRANCH   5   7
HETATM    7  C   UNL     1      43.698 -18.918   4.520  1.00  0.00    -0.033 A 
HETATM    8  C   UNL     1      43.000 -18.637   3.340  1.00  0.00     0.028 A 
HETATM    9  C   UNL     1      43.207 -19.443   2.231  1.00  0.00     0.116 A 
HETATM   10  N   UNL     1      44.054 -20.493   2.213  1.00  0.00    -0.273 NA
HETATM   11  C   UNL     1      44.726 -20.746   3.355  1.00  0.00     0.116 A 
HETATM   12  C   UNL     1      44.589 -19.998   4.515  1.00  0.00     0.028 A 
ENDBRANCH   5   7
ENDBRANCH   1   5
BRANCH   2  13
HETATM   13  C   UNL     1      40.859 -15.385   5.557  1.00  0.00     0.103 A 
HETATM   14  N   UNL     1      40.436 -14.435   6.470  1.00  0.00    -0.341 N 
HETATM   15  H   UNL     1      40.548 -14.519   7.473  1.00  0.00     0.167 HD
HETATM   16  C   UNL     1      39.860 -13.394   5.815  1.00  0.00     0.126 A 
HETATM   17 CL   UNL     1      39.269 -12.105   6.748  1.00  0.00    -0.063 Cl
HETATM   18  C   UNL     1      39.891 -13.634   4.469  1.00  0.00     0.074 A 
HETATM   19 CL   UNL     1      39.311 -12.661   3.208  1.00  0.00    -0.081 Cl
HETATM   20  C   UNL     1      40.521 -14.895   4.300  1.00  0.00     0.062 A 
ENDBRANCH   2  13
TORSDOF 3
ENDMDL
MODEL 9
REMARK VINA RESULT:      -6.3      3.699      6.632
REMARK  3 active torsions:
REMARK  status: ('A' for Active; 'I' for Inactive)
REMARK    1  A    between atoms: C_2  and  N_3 
REMARK    2  A    between atoms: C_2  and  C_14 
REMARK       I    between atoms: N_3  and  C_4 
REMARK    3  A    between atoms: C_4  and  C_5 
ROOT
HETATM    1  N   UNL     1      42.766 -17.155   3.429  1.00  0.00    -0.347 N 
HETATM    2  C   UNL     1      43.601 -17.607   4.419  1.00  0.00     0.268 C 
HETATM    3  O   UNL     1      43.965 -16.903   5.355  1.00  0.00    -0.266 OA
HETATM    4  H   UNL     1      42.489 -17.778   2.685  1.00  0.00     0.163 HD
ENDROOT
BRANCH   1   5
HETATM    5  C   UNL     1      42.215 -15.812   3.439  1.00  0.00     0.114 C 
HETATM    6  C   UNL     1      40.952 -15.737   4.305  1.00  0.00     0.037 C 
BRANCH   5   7
HETATM    7  C   UNL     1      41.970 -15.353   2.014  1.00  0.00    -0.033 A 
HETATM    8  C   UNL     1      41.643 -16.289   1.027  1.00  0.00     0.028 A 
HETATM    9  C   UNL     1      41.401 -15.845  -0.264  1.00  0.00     0.116 A 
HETATM   10  N   UNL     1      41.455 -14.549  -0.634  1.00  0.00    -0.273 NA
HETATM   11  C   UNL     1      41.763 -13.657   0.329  1.00  0.00     0.116 A 
HETATM   12  C   UNL     1      42.020 -14.003   1.648  1.00  0.00     0.028 A 
ENDBRANCH   5   7
ENDBRANCH   1   5
BRANCH   2  13
HETATM   13  C   UNL     1      44.028 -18.983   4.290  1.00  0.00     0.103 A 
HETATM   14  N   UNL     1      44.020 -19.620   3.062  1.00  0.00    -0.341 N 
HETATM   15  H   UNL     1      43.722 -19.186   2.196  1.00  0.00     0.167 HD
HETATM   16  C   UNL     1      44.468 -20.895   3.202  1.00  0.00     0.126 A 
HETATM   17 CL   UNL     1      44.543 -21.863   1.811  1.00  0.00    -0.063 Cl
HETATM   18  C   UNL     1      44.778 -21.122   4.514  1.00  0.00     0.074 A 
HETATM   19 CL   UNL     1      45.378 -22.537   5.229  1.00  0.00    -0.081 Cl
HETATM   20  C   UNL     1      44.500 -19.915   5.208  1.00  0.00     0.062 A 
ENDBRANCH   2  13
TORSDOF 3
ENDMDL
MODEL 10
REMARK VINA RESULT:      -6.2      4.376      5.080
REMARK  3 active torsions:
REMARK  status: ('A' for Active; 'I' for Inactive)
REMARK    1  A    between atoms: C_2  and  N_3 
REMARK    2  A    between atoms: C_2  and  C_14 
REMARK       I    between atoms: N_3  and  C_4 
REMARK    3  A    between atoms: C_4  and  C_5 
ROOT
HETATM    1  N   UNL     1      43.542 -16.191   5.586  1.00  0.00    -0.347 N 
HETATM    2  C   UNL     1      43.390 -14.828   5.552  1.00  0.00     0.268 C 
HETATM    3  O   UNL     1      42.567 -14.268   4.834  1.00  0.00    -0.266 OA
HETATM    4  H   UNL     1      44.228 -16.601   6.201  1.00  0.00     0.163 HD
ENDROOT
BRANCH   1   5
HETATM    5  C   UNL     1      42.706 -17.080   4.800  1.00  0.00     0.114 C 
HETATM    6  C   UNL     1      41.423 -17.446   5.553  1.00  0.00     0.037 C 
BRANCH   5   7
HETATM    7  C   UNL     1      43.508 -18.301   4.391  1.00  0.00    -0.033 A 
HETATM    8  C   UNL     1      44.122 -19.091   5.370  1.00  0.00     0.028 A 
HETATM    9  C   UNL     1      44.830 -20.215   4.976  1.00  0.00     0.116 A 
HETATM   10  N   UNL     1      44.964 -20.607   3.692  1.00  0.00    -0.273 NA
HETATM   11  C   UNL     1      44.361 -19.841   2.760  1.00  0.00     0.116 A 
HETATM   12  C   UNL     1      43.630 -18.699   3.055  1.00  0.00     0.028 A 
ENDBRANCH   5   7
ENDBRANCH   1   5
BRANCH   2  13
HETATM   13  C   UNL     1      44.268 -14.083   6.427  1.00  0.00     0.103 A 
HETATM   14  N   UNL     1      43.846 -13.669   7.677  1.00  0.00    -0.341 N 
HETATM   15  H   UNL     1      42.923 -13.848   8.056  1.00  0.00     0.167 HD
HETATM   16  C   UNL     1      44.848 -12.997   8.302  1.00  0.00     0.126 A 
HETATM   17 CL   UNL     1      44.544 -12.398   9.860  1.00  0.00    -0.063 Cl
HETATM   18  C   UNL     1      45.942 -12.955   7.483  1.00  0.00     0.074 A 
HETATM   19 CL   UNL     1      47.453 -12.245   7.774  1.00  0.00    -0.081 Cl
HETATM   20  C   UNL     1      45.580 -13.640   6.293  1.00  0.00     0.062 A 
ENDBRANCH   2  13
TORSDOF 3
ENDMDL
