MODEL 1
REMARK VINA RESULT:      -8.7      0.000      0.000
REMARK  8 active torsions:
REMARK  status: ('A' for Active; 'I' for Inactive)
REMARK    1  A    between atoms: O_2  and  C_3 
REMARK    2  A    between atoms: C_5  and  O_6 
REMARK    3  A    between atoms: C_8  and  C_9 
REMARK    4  A    between atoms: N_10  and  C_12 
REMARK    5  A    between atoms: C_12  and  C_13 
REMARK       I    between atoms: C_13  and  N_14 
REMARK    6  A    between atoms: N_14  and  C_15 
REMARK    7  A    between atoms: C_16  and  C_17 
REMARK    8  A    between atoms: C_17  and  C_18 
ROOT
HETATM    1  C   UNL     1      41.448 -14.856   3.408  1.00  0.00     0.338 C 
ENDROOT
BRANCH   1   2
HETATM    2  N   UNL     1      41.498 -16.344   3.071  1.00  0.00    -0.054 N 
HETATM    3  C   UNL     1      42.821 -16.789   2.408  1.00  0.00     0.224 C 
HETATM    4  C   UNL     1      42.400 -17.046   0.958  1.00  0.00     0.040 C 
HETATM    5  C   UNL     1      41.006 -17.623   1.086  1.00  0.00     0.030 C 
HETATM    6  C   UNL     1      40.367 -16.760   2.152  1.00  0.00     0.236 C 
HETATM    7  H   UNL     1      41.428 -16.842   3.959  1.00  0.00     0.281 HD
BRANCH   3   8
HETATM    8  C   UNL     1      43.473 -18.014   3.040  1.00  0.00     0.006 A 
HETATM    9  C   UNL     1      43.807 -17.961   4.412  1.00  0.00     0.079 A 
HETATM   10  C   UNL     1      44.388 -19.066   5.042  1.00  0.00     0.074 A 
HETATM   11  C   UNL     1      44.678 -20.229   4.328  1.00  0.00     0.070 A 
HETATM   12  C   UNL     1      44.402 -20.277   2.966  1.00  0.00     0.037 A 
HETATM   13  C   UNL     1      43.813 -19.179   2.325  1.00  0.00     0.015 A 
BRANCH   9  14
HETATM   14  O   UNL     1      43.523 -16.776   5.043  1.00  0.00    -0.355 OA
HETATM   15  C   UNL     1      44.061 -16.602   6.354  1.00  0.00     0.210 C 
ENDBRANCH   9  14
BRANCH  11  16
HETATM   16  O   UNL     1      45.244 -21.226   5.068  1.00  0.00    -0.356 OA
HETATM   17  C   UNL     1      44.835 -22.561   4.790  1.00  0.00     0.210 C 
ENDBRANCH  11  16
ENDBRANCH   3   8
ENDBRANCH   1   2
BRANCH   1  18
HETATM   18  C   UNL     1      42.091 -13.968   2.342  1.00  0.00     0.248 C 
HETATM   19  N   UNL     1      41.250 -13.682   1.274  1.00  0.00    -0.325 N 
HETATM   20  H   UNL     1      40.255 -13.682   1.450  1.00  0.00     0.169 HD
HETATM   21  O   UNL     1      43.218 -13.517   2.513  1.00  0.00    -0.271 OA
BRANCH  19  22
HETATM   22  C   UNL     1      41.649 -12.858   0.194  1.00  0.00     0.041 A 
HETATM   23  C   UNL     1      41.932 -13.332  -1.100  1.00  0.00    -0.027 A 
HETATM   24  C   UNL     1      42.381 -12.406  -2.066  1.00  0.00     0.010 A 
HETATM   25  C   UNL     1      42.500 -11.048  -1.773  1.00  0.00     0.001 A 
HETATM   26  C   UNL     1      42.150 -10.583  -0.512  1.00  0.00     0.002 A 
HETATM   27  C   UNL     1      41.715 -11.480   0.462  1.00  0.00     0.030 A 
BRANCH  23  28
HETATM   28  C   UNL     1      41.626 -14.737  -1.586  1.00  0.00     0.079 C 
BRANCH  28  29
HETATM   29  C   UNL     1      40.295 -14.834  -2.306  1.00  0.00    -0.054 A 
HETATM   30  C   UNL     1      39.193 -14.083  -1.872  1.00  0.00     0.007 A 
HETATM   31  C   UNL     1      37.959 -14.196  -2.518  1.00  0.00     0.001 A 
HETATM   32  C   UNL     1      37.813 -15.060  -3.602  1.00  0.00     0.000 A 
HETATM   33  C   UNL     1      38.900 -15.811  -4.042  1.00  0.00     0.001 A 
HETATM   34  C   UNL     1      40.134 -15.701  -3.397  1.00  0.00     0.007 A 
ENDBRANCH  28  29
ENDBRANCH  23  28
ENDBRANCH  19  22
ENDBRANCH   1  18
TORSDOF 8
ENDMDL
MODEL 2
REMARK VINA RESULT:      -8.6      2.490      7.502
REMARK  8 active torsions:
REMARK  status: ('A' for Active; 'I' for Inactive)
REMARK    1  A    between atoms: O_2  and  C_3 
REMARK    2  A    between atoms: C_5  and  O_6 
REMARK    3  A    between atoms: C_8  and  C_9 
REMARK    4  A    between atoms: N_10  and  C_12 
REMARK    5  A    between atoms: C_12  and  C_13 
REMARK       I    between atoms: C_13  and  N_14 
REMARK    6  A    between atoms: N_14  and  C_15 
REMARK    7  A    between atoms: C_16  and  C_17 
REMARK    8  A    between atoms: C_17  and  C_18 
ROOT
HETATM    1  C   UNL     1      41.843 -12.979   5.751  1.00  0.00     0.338 C 
ENDROOT
BRANCH   1   2
HETATM    2  N   UNL     1      40.827 -13.119   4.621  1.00  0.00    -0.054 N 
HETATM    3  C   UNL     1      41.306 -12.532   3.275  1.00  0.00     0.224 C 
HETATM    4  C   UNL     1      40.449 -11.270   3.136  1.00  0.00     0.040 C 
HETATM    5  C   UNL     1      39.115 -11.675   3.726  1.00  0.00     0.030 C 
HETATM    6  C   UNL     1      39.503 -12.464   4.958  1.00  0.00     0.236 C 
HETATM    7  H   UNL     1      40.694 -14.122   4.478  1.00  0.00     0.281 HD
BRANCH   3   8
HETATM    8  C   UNL     1      41.150 -13.464   2.078  1.00  0.00     0.006 A 
HETATM    9  C   UNL     1      41.848 -13.150   0.891  1.00  0.00     0.079 A 
HETATM   10  C   UNL     1      41.753 -13.985  -0.227  1.00  0.00     0.074 A 
HETATM   11  C   UNL     1      40.948 -15.125  -0.206  1.00  0.00     0.070 A 
HETATM   12  C   UNL     1      40.216 -15.418   0.939  1.00  0.00     0.037 A 
HETATM   13  C   UNL     1      40.308 -14.593   2.067  1.00  0.00     0.015 A 
BRANCH   9  14
HETATM   14  O   UNL     1      42.593 -11.999   0.930  1.00  0.00    -0.355 OA
HETATM   15  C   UNL     1      42.448 -11.102  -0.171  1.00  0.00     0.210 C 
ENDBRANCH   9  14
BRANCH  11  16
HETATM   16  O   UNL     1      40.949 -15.846  -1.365  1.00  0.00    -0.356 OA
HETATM   17  C   UNL     1      41.081 -15.125  -2.585  1.00  0.00     0.210 C 
ENDBRANCH  11  16
ENDBRANCH   3   8
ENDBRANCH   1   2
BRANCH   1  18
HETATM   18  C   UNL     1      42.687 -14.236   5.971  1.00  0.00     0.248 C 
HETATM   19  N   UNL     1      41.967 -15.308   6.483  1.00  0.00    -0.325 N 
HETATM   20  H   UNL     1      40.979 -15.350   6.274  1.00  0.00     0.169 HD
HETATM   21  O   UNL     1      43.865 -14.254   5.631  1.00  0.00    -0.271 OA
BRANCH  19  22
HETATM   22  C   UNL     1      42.560 -16.568   6.737  1.00  0.00     0.041 A 
HETATM   23  C   UNL     1      42.314 -17.726   5.977  1.00  0.00    -0.027 A 
HETATM   24  C   UNL     1      42.925 -18.932   6.382  1.00  0.00     0.010 A 
HETATM   25  C   UNL     1      43.789 -18.979   7.475  1.00  0.00     0.001 A 
HETATM   26  C   UNL     1      44.079 -17.815   8.174  1.00  0.00     0.002 A 
HETATM   27  C   UNL     1      43.478 -16.614   7.801  1.00  0.00     0.030 A 
BRANCH  23  28
HETATM   28  C   UNL     1      41.576 -17.741   4.652  1.00  0.00     0.079 C 
BRANCH  28  29
HETATM   29  C   UNL     1      42.510 -17.688   3.457  1.00  0.00    -0.054 A 
HETATM   30  C   UNL     1      43.102 -16.477   3.068  1.00  0.00     0.007 A 
HETATM   31  C   UNL     1      43.937 -16.423   1.950  1.00  0.00     0.001 A 
HETATM   32  C   UNL     1      44.191 -17.576   1.210  1.00  0.00     0.000 A 
HETATM   33  C   UNL     1      43.610 -18.785   1.586  1.00  0.00     0.001 A 
HETATM   34  C   UNL     1      42.772 -18.841   2.702  1.00  0.00     0.007 A 
ENDBRANCH  28  29
ENDBRANCH  23  28
ENDBRANCH  19  22
ENDBRANCH   1  18
TORSDOF 8
ENDMDL
MODEL 3
REMARK VINA RESULT:      -8.5      2.685      8.903
REMARK  8 active torsions:
REMARK  status: ('A' for Active; 'I' for Inactive)
REMARK    1  A    between atoms: O_2  and  C_3 
REMARK    2  A    between atoms: C_5  and  O_6 
REMARK    3  A    between atoms: C_8  and  C_9 
REMARK    4  A    between atoms: N_10  and  C_12 
REMARK    5  A    between atoms: C_12  and  C_13 
REMARK       I    between atoms: C_13  and  N_14 
REMARK    6  A    between atoms: N_14  and  C_15 
REMARK    7  A    between atoms: C_16  and  C_17 
REMARK    8  A    between atoms: C_17  and  C_18 
ROOT
HETATM    1  C   UNL     1      41.116 -15.931   0.754  1.00  0.00     0.338 C 
ENDROOT
BRANCH   1   2
HETATM    2  N   UNL     1      39.793 -15.192   0.574  1.00  0.00    -0.054 N 
HETATM    3  C   UNL     1      39.939 -13.798  -0.077  1.00  0.00     0.224 C 
HETATM    4  C   UNL     1      39.666 -12.851   1.095  1.00  0.00     0.040 C 
HETATM    5  C   UNL     1      38.596 -13.565   1.892  1.00  0.00     0.030 C 
HETATM    6  C   UNL     1      39.059 -15.006   1.887  1.00  0.00     0.236 C 
HETATM    7  H   UNL     1      39.232 -15.761  -0.062  1.00  0.00     0.281 HD
BRANCH   3   8
HETATM    8  C   UNL     1      39.003 -13.540  -1.253  1.00  0.00     0.006 A 
HETATM    9  C   UNL     1      39.150 -14.334  -2.411  1.00  0.00     0.079 A 
HETATM   10  C   UNL     1      38.303 -14.149  -3.508  1.00  0.00     0.074 A 
HETATM   11  C   UNL     1      37.318 -13.160  -3.496  1.00  0.00     0.070 A 
HETATM   12  C   UNL     1      37.195 -12.338  -2.382  1.00  0.00     0.037 A 
HETATM   13  C   UNL     1      38.034 -12.518  -1.274  1.00  0.00     0.015 A 
BRANCH   9  14
HETATM   14  O   UNL     1      40.159 -15.264  -2.367  1.00  0.00    -0.355 OA
HETATM   15  C   UNL     1      41.232 -15.092  -3.292  1.00  0.00     0.210 C 
ENDBRANCH   9  14
BRANCH  11  16
HETATM   16  O   UNL     1      36.565 -13.091  -4.632  1.00  0.00    -0.356 OA
HETATM   17  C   UNL     1      35.565 -14.087  -4.817  1.00  0.00     0.210 C 
ENDBRANCH  11  16
ENDBRANCH   3   8
ENDBRANCH   1   2
BRANCH   1  18
HETATM   18  C   UNL     1      41.654 -15.877   2.185  1.00  0.00     0.248 C 
HETATM   19  N   UNL     1      41.337 -16.997   2.942  1.00  0.00    -0.325 N 
HETATM   20  H   UNL     1      41.194 -17.869   2.450  1.00  0.00     0.169 HD
HETATM   21  O   UNL     1      42.361 -14.941   2.543  1.00  0.00    -0.271 OA
BRANCH  19  22
HETATM   22  C   UNL     1      41.760 -17.151   4.284  1.00  0.00     0.041 A 
HETATM   23  C   UNL     1      42.977 -17.745   4.667  1.00  0.00    -0.027 A 
HETATM   24  C   UNL     1      43.243 -17.891   6.045  1.00  0.00     0.010 A 
HETATM   25  C   UNL     1      42.354 -17.423   7.012  1.00  0.00     0.001 A 
HETATM   26  C   UNL     1      41.189 -16.776   6.621  1.00  0.00     0.002 A 
HETATM   27  C   UNL     1      40.899 -16.630   5.265  1.00  0.00     0.030 A 
BRANCH  23  28
HETATM   28  C   UNL     1      44.104 -18.083   3.710  1.00  0.00     0.079 C 
BRANCH  28  29
HETATM   29  C   UNL     1      44.132 -19.551   3.328  1.00  0.00    -0.054 A 
HETATM   30  C   UNL     1      44.716 -20.499   4.181  1.00  0.00     0.007 A 
HETATM   31  C   UNL     1      44.768 -21.846   3.815  1.00  0.00     0.001 A 
HETATM   32  C   UNL     1      44.239 -22.260   2.595  1.00  0.00     0.000 A 
HETATM   33  C   UNL     1      43.657 -21.328   1.738  1.00  0.00     0.001 A 
HETATM   34  C   UNL     1      43.606 -19.981   2.101  1.00  0.00     0.007 A 
ENDBRANCH  28  29
ENDBRANCH  23  28
ENDBRANCH  19  22
ENDBRANCH   1  18
TORSDOF 8
ENDMDL
MODEL 4
REMARK VINA RESULT:      -8.5      1.331      2.420
REMARK  8 active torsions:
REMARK  status: ('A' for Active; 'I' for Inactive)
REMARK    1  A    between atoms: O_2  and  C_3 
REMARK    2  A    between atoms: C_5  and  O_6 
REMARK    3  A    between atoms: C_8  and  C_9 
REMARK    4  A    between atoms: N_10  and  C_12 
REMARK    5  A    between atoms: C_12  and  C_13 
REMARK       I    between atoms: C_13  and  N_14 
REMARK    6  A    between atoms: N_14  and  C_15 
REMARK    7  A    between atoms: C_16  and  C_17 
REMARK    8  A    between atoms: C_17  and  C_18 
ROOT
HETATM    1  C   UNL     1      41.396 -14.281   3.724  1.00  0.00     0.338 C 
ENDROOT
BRANCH   1   2
HETATM    2  N   UNL     1      42.212 -15.337   4.462  1.00  0.00    -0.054 N 
HETATM    3  C   UNL     1      41.572 -16.744   4.449  1.00  0.00     0.224 C 
HETATM    4  C   UNL     1      41.093 -16.907   5.895  1.00  0.00     0.040 C 
HETATM    5  C   UNL     1      42.166 -16.215   6.708  1.00  0.00     0.030 C 
HETATM    6  C   UNL     1      42.456 -14.963   5.910  1.00  0.00     0.236 C 
HETATM    7  H   UNL     1      43.102 -15.411   3.966  1.00  0.00     0.281 HD
BRANCH   3   8
HETATM    8  C   UNL     1      42.508 -17.870   4.025  1.00  0.00     0.006 A 
HETATM    9  C   UNL     1      42.750 -18.054   2.645  1.00  0.00     0.079 A 
HETATM   10  C   UNL     1      43.616 -19.061   2.207  1.00  0.00     0.074 A 
HETATM   11  C   UNL     1      44.235 -19.921   3.115  1.00  0.00     0.070 A 
HETATM   12  C   UNL     1      43.967 -19.783   4.472  1.00  0.00     0.037 A 
HETATM   13  C   UNL     1      43.106 -18.774   4.924  1.00  0.00     0.015 A 
BRANCH   9  14
HETATM   14  O   UNL     1      42.083 -17.194   1.809  1.00  0.00    -0.355 OA
HETATM   15  C   UNL     1      40.930 -17.710   1.144  1.00  0.00     0.210 C 
ENDBRANCH   9  14
BRANCH  11  16
HETATM   16  O   UNL     1      45.054 -20.855   2.549  1.00  0.00    -0.356 OA
HETATM   17  C   UNL     1      44.438 -21.904   1.811  1.00  0.00     0.210 C 
ENDBRANCH  11  16
ENDBRANCH   3   8
ENDBRANCH   1   2
BRANCH   1  18
HETATM   18  C   UNL     1      42.114 -13.696   2.507  1.00  0.00     0.248 C 
HETATM   19  N   UNL     1      41.258 -13.321   1.480  1.00  0.00    -0.325 N 
HETATM   20  H   UNL     1      40.316 -13.053   1.732  1.00  0.00     0.169 HD
HETATM   21  O   UNL     1      43.329 -13.527   2.531  1.00  0.00    -0.271 OA
BRANCH  19  22
HETATM   22  C   UNL     1      41.723 -12.739   0.277  1.00  0.00     0.041 A 
HETATM   23  C   UNL     1      41.910 -13.447  -0.924  1.00  0.00    -0.027 A 
HETATM   24  C   UNL     1      42.442 -12.752  -2.032  1.00  0.00     0.010 A 
HETATM   25  C   UNL     1      42.735 -11.391  -1.965  1.00  0.00     0.001 A 
HETATM   26  C   UNL     1      42.480 -10.688  -0.795  1.00  0.00     0.002 A 
HETATM   27  C   UNL     1      41.966 -11.354   0.316  1.00  0.00     0.030 A 
BRANCH  23  28
HETATM   28  C   UNL     1      41.421 -14.861  -1.171  1.00  0.00     0.079 C 
BRANCH  28  29
HETATM   29  C   UNL     1      40.235 -14.918  -2.115  1.00  0.00    -0.054 A 
HETATM   30  C   UNL     1      39.101 -14.127  -1.884  1.00  0.00     0.007 A 
HETATM   31  C   UNL     1      37.997 -14.202  -2.737  1.00  0.00     0.001 A 
HETATM   32  C   UNL     1      38.015 -15.068  -3.829  1.00  0.00     0.000 A 
HETATM   33  C   UNL     1      39.135 -15.859  -4.069  1.00  0.00     0.001 A 
HETATM   34  C   UNL     1      40.239 -15.788  -3.217  1.00  0.00     0.007 A 
ENDBRANCH  28  29
ENDBRANCH  23  28
ENDBRANCH  19  22
ENDBRANCH   1  18
TORSDOF 8
ENDMDL
MODEL 5
REMARK VINA RESULT:      -8.4      2.015      8.075
REMARK  8 active torsions:
REMARK  status: ('A' for Active; 'I' for Inactive)
REMARK    1  A    between atoms: O_2  and  C_3 
REMARK    2  A    between atoms: C_5  and  O_6 
REMARK    3  A    between atoms: C_8  and  C_9 
REMARK    4  A    between atoms: N_10  and  C_12 
REMARK    5  A    between atoms: C_12  and  C_13 
REMARK       I    between atoms: C_13  and  N_14 
REMARK    6  A    between atoms: N_14  and  C_15 
REMARK    7  A    between atoms: C_16  and  C_17 
REMARK    8  A    between atoms: C_17  and  C_18 
ROOT
HETATM    1  C   UNL     1      42.446 -13.226   2.598  1.00  0.00     0.338 C 
ENDROOT
BRANCH   1   2
HETATM    2  N   UNL     1      41.408 -12.908   1.526  1.00  0.00    -0.054 N 
HETATM    3  C   UNL     1      42.018 -12.539   0.155  1.00  0.00     0.224 C 
HETATM    4  C   UNL     1      41.754 -11.034   0.065  1.00  0.00     0.040 C 
HETATM    5  C   UNL     1      40.403 -10.866   0.728  1.00  0.00     0.030 C 
HETATM    6  C   UNL     1      40.491 -11.773   1.936  1.00  0.00     0.236 C 
HETATM    7  H   UNL     1      40.866 -13.763   1.390  1.00  0.00     0.281 HD
BRANCH   3   8
HETATM    8  C   UNL     1      41.432 -13.296  -1.031  1.00  0.00     0.006 A 
HETATM    9  C   UNL     1      41.455 -14.708  -1.001  1.00  0.00     0.079 A 
HETATM   10  C   UNL     1      40.911 -15.447  -2.057  1.00  0.00     0.074 A 
HETATM   11  C   UNL     1      40.365 -14.811  -3.172  1.00  0.00     0.070 A 
HETATM   12  C   UNL     1      40.381 -13.422  -3.238  1.00  0.00     0.037 A 
HETATM   13  C   UNL     1      40.917 -12.671  -2.184  1.00  0.00     0.015 A 
BRANCH   9  14
HETATM   14  O   UNL     1      42.036 -15.266   0.110  1.00  0.00    -0.355 OA
HETATM   15  C   UNL     1      41.619 -16.586   0.459  1.00  0.00     0.210 C 
ENDBRANCH   9  14
BRANCH  11  16
HETATM   16  O   UNL     1      39.871 -15.654  -4.125  1.00  0.00    -0.356 OA
HETATM   17  C   UNL     1      38.457 -15.781  -4.220  1.00  0.00     0.210 C 
ENDBRANCH  11  16
ENDBRANCH   3   8
ENDBRANCH   1   2
BRANCH   1  18
HETATM   18  C   UNL     1      42.096 -14.454   3.440  1.00  0.00     0.248 C 
HETATM   19  N   UNL     1      43.191 -15.022   4.080  1.00  0.00    -0.325 N 
HETATM   20  H   UNL     1      43.966 -14.414   4.306  1.00  0.00     0.169 HD
HETATM   21  O   UNL     1      40.928 -14.806   3.562  1.00  0.00    -0.271 OA
BRANCH  19  22
HETATM   22  C   UNL     1      43.075 -16.152   4.924  1.00  0.00     0.041 A 
HETATM   23  C   UNL     1      43.237 -17.482   4.492  1.00  0.00    -0.027 A 
HETATM   24  C   UNL     1      43.030 -18.517   5.429  1.00  0.00     0.010 A 
HETATM   25  C   UNL     1      42.719 -18.243   6.760  1.00  0.00     0.001 A 
HETATM   26  C   UNL     1      42.630 -16.926   7.189  1.00  0.00     0.002 A 
HETATM   27  C   UNL     1      42.819 -15.885   6.280  1.00  0.00     0.030 A 
BRANCH  23  28
HETATM   28  C   UNL     1      43.788 -17.882   3.136  1.00  0.00     0.079 C 
BRANCH  28  29
HETATM   29  C   UNL     1      44.007 -19.378   3.007  1.00  0.00    -0.054 A 
HETATM   30  C   UNL     1      43.443 -20.092   1.940  1.00  0.00     0.007 A 
HETATM   31  C   UNL     1      43.621 -21.473   1.839  1.00  0.00     0.001 A 
HETATM   32  C   UNL     1      44.362 -22.156   2.801  1.00  0.00     0.000 A 
HETATM   33  C   UNL     1      44.927 -21.458   3.866  1.00  0.00     0.001 A 
HETATM   34  C   UNL     1      44.750 -20.077   3.971  1.00  0.00     0.007 A 
ENDBRANCH  28  29
ENDBRANCH  23  28
ENDBRANCH  19  22
ENDBRANCH   1  18
TORSDOF 8
ENDMDL
MODEL 6
REMARK VINA RESULT:      -8.3      2.619      8.690
REMARK  8 active torsions:
REMARK  status: ('A' for Active; 'I' for Inactive)
REMARK    1  A    between atoms: O_2  and  C_3 
REMARK    2  A    between atoms: C_5  and  O_6 
REMARK    3  A    between atoms: C_8  and  C_9 
REMARK    4  A    between atoms: N_10  and  C_12 
REMARK    5  A    between atoms: C_12  and  C_13 
REMARK       I    between atoms: C_13  and  N_14 
REMARK    6  A    between atoms: N_14  and  C_15 
REMARK    7  A    between atoms: C_16  and  C_17 
REMARK    8  A    between atoms: C_17  and  C_18 
ROOT
HETATM    1  C   UNL     1      41.566 -16.728   0.197  1.00  0.00     0.338 C 
ENDROOT
BRANCH   1   2
HETATM    2  N   UNL     1      40.342 -15.876   0.522  1.00  0.00    -0.054 N 
HETATM    3  C   UNL     1      40.566 -14.360   0.322  1.00  0.00     0.224 C 
HETATM    4  C   UNL     1      40.617 -13.837   1.761  1.00  0.00     0.040 C 
HETATM    5  C   UNL     1      39.605 -14.693   2.491  1.00  0.00     0.030 C 
HETATM    6  C   UNL     1      39.864 -16.081   1.946  1.00  0.00     0.236 C 
HETATM    7  H   UNL     1      39.614 -16.159  -0.135  1.00  0.00     0.281 HD
BRANCH   3   8
HETATM    8  C   UNL     1      39.494 -13.658  -0.505  1.00  0.00     0.006 A 
HETATM    9  C   UNL     1      39.406 -13.962  -1.881  1.00  0.00     0.079 A 
HETATM   10  C   UNL     1      38.427 -13.360  -2.677  1.00  0.00     0.074 A 
HETATM   11  C   UNL     1      37.538 -12.427  -2.140  1.00  0.00     0.070 A 
HETATM   12  C   UNL     1      37.646 -12.080  -0.799  1.00  0.00     0.037 A 
HETATM   13  C   UNL     1      38.619 -12.682   0.011  1.00  0.00     0.015 A 
BRANCH   9  14
HETATM   14  O   UNL     1      40.330 -14.862  -2.348  1.00  0.00    -0.355 OA
HETATM   15  C   UNL     1      41.274 -14.377  -3.302  1.00  0.00     0.210 C 
ENDBRANCH   9  14
BRANCH  11  16
HETATM   16  O   UNL     1      36.637 -11.919  -3.031  1.00  0.00    -0.356 OA
HETATM   17  C   UNL     1      36.355 -12.693  -4.191  1.00  0.00     0.210 C 
ENDBRANCH  11  16
ENDBRANCH   3   8
ENDBRANCH   1   2
BRANCH   1  18
HETATM   18  C   UNL     1      42.451 -17.011   1.412  1.00  0.00     0.248 C 
HETATM   19  N   UNL     1      42.212 -18.247   2.000  1.00  0.00    -0.325 N 
HETATM   20  H   UNL     1      41.854 -18.984   1.408  1.00  0.00     0.169 HD
HETATM   21  O   UNL     1      43.325 -16.215   1.737  1.00  0.00    -0.271 OA
BRANCH  19  22
HETATM   22  C   UNL     1      42.941 -18.707   3.122  1.00  0.00     0.041 A 
HETATM   23  C   UNL     1      42.634 -18.377   4.455  1.00  0.00    -0.027 A 
HETATM   24  C   UNL     1      43.485 -18.856   5.474  1.00  0.00     0.010 A 
HETATM   25  C   UNL     1      44.577 -19.673   5.186  1.00  0.00     0.001 A 
HETATM   26  C   UNL     1      44.828 -20.050   3.874  1.00  0.00     0.002 A 
HETATM   27  C   UNL     1      44.008 -19.580   2.848  1.00  0.00     0.030 A 
BRANCH  23  28
HETATM   28  C   UNL     1      41.356 -17.687   4.895  1.00  0.00     0.079 C 
BRANCH  28  29
HETATM   29  C   UNL     1      41.554 -16.211   5.185  1.00  0.00    -0.054 A 
HETATM   30  C   UNL     1      40.523 -15.452   5.758  1.00  0.00     0.007 A 
HETATM   31  C   UNL     1      40.695 -14.087   5.997  1.00  0.00     0.001 A 
HETATM   32  C   UNL     1      41.897 -13.465   5.667  1.00  0.00     0.000 A 
HETATM   33  C   UNL     1      42.929 -14.207   5.097  1.00  0.00     0.001 A 
HETATM   34  C   UNL     1      42.759 -15.572   4.855  1.00  0.00     0.007 A 
ENDBRANCH  28  29
ENDBRANCH  23  28
ENDBRANCH  19  22
ENDBRANCH   1  18
TORSDOF 8
ENDMDL
MODEL 7
REMARK VINA RESULT:      -8.2      2.072      2.755
REMARK  8 active torsions:
REMARK  status: ('A' for Active; 'I' for Inactive)
REMARK    1  A    between atoms: O_2  and  C_3 
REMARK    2  A    between atoms: C_5  and  O_6 
REMARK    3  A    between atoms: C_8  and  C_9 
REMARK    4  A    between atoms: N_10  and  C_12 
REMARK    5  A    between atoms: C_12  and  C_13 
REMARK       I    between atoms: C_13  and  N_14 
REMARK    6  A    between atoms: N_14  and  C_15 
REMARK    7  A    between atoms: C_16  and  C_17 
REMARK    8  A    between atoms: C_17  and  C_18 
ROOT
HETATM    1  C   UNL     1      41.450 -15.508   4.146  1.00  0.00     0.338 C 
ENDROOT
BRANCH   1   2
HETATM    2  N   UNL     1      41.515 -16.764   3.281  1.00  0.00    -0.054 N 
HETATM    3  C   UNL     1      42.911 -17.035   2.676  1.00  0.00     0.224 C 
HETATM    4  C   UNL     1      42.703 -16.703   1.195  1.00  0.00     0.040 C 
HETATM    5  C   UNL     1      41.293 -17.176   0.915  1.00  0.00     0.030 C 
HETATM    6  C   UNL     1      40.523 -16.722   2.136  1.00  0.00     0.236 C 
HETATM    7  H   UNL     1      41.301 -17.548   3.899  1.00  0.00     0.281 HD
BRANCH   3   8
HETATM    8  C   UNL     1      43.432 -18.453   2.878  1.00  0.00     0.006 A 
HETATM    9  C   UNL     1      43.918 -18.811   4.155  1.00  0.00     0.079 A 
HETATM   10  C   UNL     1      44.388 -20.106   4.394  1.00  0.00     0.074 A 
HETATM   11  C   UNL     1      44.417 -21.060   3.376  1.00  0.00     0.070 A 
HETATM   12  C   UNL     1      43.989 -20.706   2.102  1.00  0.00     0.037 A 
HETATM   13  C   UNL     1      43.509 -19.414   1.851  1.00  0.00     0.015 A 
BRANCH   9  14
HETATM   14  O   UNL     1      43.891 -17.815   5.098  1.00  0.00    -0.355 OA
HETATM   15  C   UNL     1      43.213 -18.107   6.320  1.00  0.00     0.210 C 
ENDBRANCH   9  14
BRANCH  11  16
HETATM   16  O   UNL     1      44.900 -22.280   3.751  1.00  0.00    -0.356 OA
HETATM   17  C   UNL     1      45.258 -22.452   5.118  1.00  0.00     0.210 C 
ENDBRANCH  11  16
ENDBRANCH   3   8
ENDBRANCH   1   2
BRANCH   1  18
HETATM   18  C   UNL     1      40.959 -14.273   3.389  1.00  0.00     0.248 C 
HETATM   19  N   UNL     1      39.633 -13.952   3.647  1.00  0.00    -0.325 N 
HETATM   20  H   UNL     1      39.252 -14.224   4.543  1.00  0.00     0.169 HD
HETATM   21  O   UNL     1      41.737 -13.624   2.698  1.00  0.00    -0.271 OA
BRANCH  19  22
HETATM   22  C   UNL     1      38.995 -12.831   3.063  1.00  0.00     0.041 A 
HETATM   23  C   UNL     1      38.441 -12.822   1.769  1.00  0.00    -0.027 A 
HETATM   24  C   UNL     1      37.891 -11.614   1.288  1.00  0.00     0.010 A 
HETATM   25  C   UNL     1      37.850 -10.467   2.080  1.00  0.00     0.001 A 
HETATM   26  C   UNL     1      38.336 -10.510   3.379  1.00  0.00     0.002 A 
HETATM   27  C   UNL     1      38.895 -11.688   3.873  1.00  0.00     0.030 A 
BRANCH  23  28
HETATM   28  C   UNL     1      38.235 -14.059   0.915  1.00  0.00     0.079 C 
BRANCH  28  29
HETATM   29  C   UNL     1      38.909 -13.959  -0.440  1.00  0.00    -0.054 A 
HETATM   30  C   UNL     1      40.307 -13.889  -0.537  1.00  0.00     0.007 A 
HETATM   31  C   UNL     1      40.926 -13.767  -1.783  1.00  0.00     0.001 A 
HETATM   32  C   UNL     1      40.157 -13.714  -2.944  1.00  0.00     0.000 A 
HETATM   33  C   UNL     1      38.768 -13.783  -2.861  1.00  0.00     0.001 A 
HETATM   34  C   UNL     1      38.147 -13.903  -1.616  1.00  0.00     0.007 A 
ENDBRANCH  28  29
ENDBRANCH  23  28
ENDBRANCH  19  22
ENDBRANCH   1  18
TORSDOF 8
ENDMDL
MODEL 8
REMARK VINA RESULT:      -8.1      4.863      8.440
REMARK  8 active torsions:
REMARK  status: ('A' for Active; 'I' for Inactive)
REMARK    1  A    between atoms: O_2  and  C_3 
REMARK    2  A    between atoms: C_5  and  O_6 
REMARK    3  A    between atoms: C_8  and  C_9 
REMARK    4  A    between atoms: N_10  and  C_12 
REMARK    5  A    between atoms: C_12  and  C_13 
REMARK       I    between atoms: C_13  and  N_14 
REMARK    6  A    between atoms: N_14  and  C_15 
REMARK    7  A    between atoms: C_16  and  C_17 
REMARK    8  A    between atoms: C_17  and  C_18 
ROOT
HETATM    1  C   UNL     1      41.184 -14.661   5.567  1.00  0.00     0.338 C 
ENDROOT
BRANCH   1   2
HETATM    2  N   UNL     1      42.548 -15.346   5.553  1.00  0.00    -0.054 N 
HETATM    3  C   UNL     1      42.536 -16.774   6.144  1.00  0.00     0.224 C 
HETATM    4  C   UNL     1      43.265 -16.590   7.478  1.00  0.00     0.040 C 
HETATM    5  C   UNL     1      44.327 -15.557   7.168  1.00  0.00     0.030 C 
HETATM    6  C   UNL     1      43.595 -14.550   6.307  1.00  0.00     0.236 C 
HETATM    7  H   UNL     1      42.815 -15.432   4.571  1.00  0.00     0.281 HD
BRANCH   3   8
HETATM    8  C   UNL     1      43.198 -17.833   5.270  1.00  0.00     0.006 A 
HETATM    9  C   UNL     1      42.648 -18.087   3.994  1.00  0.00     0.079 A 
HETATM   10  C   UNL     1      43.232 -19.036   3.148  1.00  0.00     0.074 A 
HETATM   11  C   UNL     1      44.347 -19.770   3.554  1.00  0.00     0.070 A 
HETATM   12  C   UNL     1      44.868 -19.567   4.826  1.00  0.00     0.037 A 
HETATM   13  C   UNL     1      44.296 -18.615   5.680  1.00  0.00     0.015 A 
BRANCH   9  14
HETATM   14  O   UNL     1      41.534 -17.353   3.674  1.00  0.00    -0.355 OA
HETATM   15  C   UNL     1      41.416 -16.921   2.319  1.00  0.00     0.210 C 
ENDBRANCH   9  14
BRANCH  11  16
HETATM   16  O   UNL     1      44.811 -20.660   2.629  1.00  0.00    -0.356 OA
HETATM   17  C   UNL     1      43.846 -21.392   1.881  1.00  0.00     0.210 C 
ENDBRANCH  11  16
ENDBRANCH   3   8
ENDBRANCH   1   2
BRANCH   1  18
HETATM   18  C   UNL     1      41.269 -13.135   5.570  1.00  0.00     0.248 C 
HETATM   19  N   UNL     1      40.729 -12.548   6.707  1.00  0.00    -0.325 N 
HETATM   20  H   UNL     1      40.733 -13.091   7.560  1.00  0.00     0.169 HD
HETATM   21  O   UNL     1      41.844 -12.548   4.660  1.00  0.00    -0.271 OA
BRANCH  19  22
HETATM   22  C   UNL     1      40.729 -11.147   6.912  1.00  0.00     0.041 A 
HETATM   23  C   UNL     1      41.600 -10.476   7.790  1.00  0.00    -0.027 A 
HETATM   24  C   UNL     1      41.447  -9.081   7.944  1.00  0.00     0.010 A 
HETATM   25  C   UNL     1      40.494  -8.369   7.218  1.00  0.00     0.001 A 
HETATM   26  C   UNL     1      39.687  -9.033   6.304  1.00  0.00     0.002 A 
HETATM   27  C   UNL     1      39.811 -10.412   6.142  1.00  0.00     0.030 A 
BRANCH  23  28
HETATM   28  C   UNL     1      42.807 -11.112   8.453  1.00  0.00     0.079 C 
BRANCH  28  29
HETATM   29  C   UNL     1      42.841 -10.889   9.953  1.00  0.00    -0.054 A 
HETATM   30  C   UNL     1      41.686 -11.073  10.728  1.00  0.00     0.007 A 
HETATM   31  C   UNL     1      41.710 -10.838  12.104  1.00  0.00     0.001 A 
HETATM   32  C   UNL     1      42.887 -10.417  12.721  1.00  0.00     0.000 A 
HETATM   33  C   UNL     1      44.040 -10.230  11.963  1.00  0.00     0.001 A 
HETATM   34  C   UNL     1      44.018 -10.463  10.587  1.00  0.00     0.007 A 
ENDBRANCH  28  29
ENDBRANCH  23  28
ENDBRANCH  19  22
ENDBRANCH   1  18
TORSDOF 8
ENDMDL
MODEL 9
REMARK VINA RESULT:      -7.9      2.789      8.303
REMARK  8 active torsions:
REMARK  status: ('A' for Active; 'I' for Inactive)
REMARK    1  A    between atoms: O_2  and  C_3 
REMARK    2  A    between atoms: C_5  and  O_6 
REMARK    3  A    between atoms: C_8  and  C_9 
REMARK    4  A    between atoms: N_10  and  C_12 
REMARK    5  A    between atoms: C_12  and  C_13 
REMARK       I    between atoms: C_13  and  N_14 
REMARK    6  A    between atoms: N_14  and  C_15 
REMARK    7  A    between atoms: C_16  and  C_17 
REMARK    8  A    between atoms: C_17  and  C_18 
ROOT
HETATM    1  C   UNL     1      41.361 -15.095   0.431  1.00  0.00     0.338 C 
ENDROOT
BRANCH   1   2
HETATM    2  N   UNL     1      40.325 -13.976   0.371  1.00  0.00    -0.054 N 
HETATM    3  C   UNL     1      39.434 -13.882   1.630  1.00  0.00     0.224 C 
HETATM    4  C   UNL     1      38.084 -14.400   1.124  1.00  0.00     0.040 C 
HETATM    5  C   UNL     1      38.009 -13.879  -0.296  1.00  0.00     0.030 C 
HETATM    6  C   UNL     1      39.407 -14.111  -0.828  1.00  0.00     0.236 C 
HETATM    7  H   UNL     1      40.850 -13.102   0.312  1.00  0.00     0.281 HD
BRANCH   3   8
HETATM    8  C   UNL     1      39.322 -12.486   2.232  1.00  0.00     0.006 A 
HETATM    9  C   UNL     1      40.460 -11.939   2.867  1.00  0.00     0.079 A 
HETATM   10  C   UNL     1      40.413 -10.655   3.418  1.00  0.00     0.074 A 
HETATM   11  C   UNL     1      39.240  -9.899   3.380  1.00  0.00     0.070 A 
HETATM   12  C   UNL     1      38.099 -10.445   2.803  1.00  0.00     0.037 A 
HETATM   13  C   UNL     1      38.135 -11.728   2.242  1.00  0.00     0.015 A 
BRANCH   9  14
HETATM   14  O   UNL     1      41.567 -12.749   2.896  1.00  0.00    -0.355 OA
HETATM   15  C   UNL     1      42.388 -12.673   4.061  1.00  0.00     0.210 C 
ENDBRANCH   9  14
BRANCH  11  16
HETATM   16  O   UNL     1      39.338  -8.665   3.954  1.00  0.00    -0.356 OA
HETATM   17  C   UNL     1      39.230  -7.533   3.098  1.00  0.00     0.210 C 
ENDBRANCH  11  16
ENDBRANCH   3   8
ENDBRANCH   1   2
BRANCH   1  18
HETATM   18  C   UNL     1      41.190 -16.019   1.637  1.00  0.00     0.248 C 
HETATM   19  N   UNL     1      41.931 -15.632   2.747  1.00  0.00    -0.325 N 
HETATM   20  H   UNL     1      42.145 -14.649   2.845  1.00  0.00     0.169 HD
HETATM   21  O   UNL     1      40.396 -16.952   1.591  1.00  0.00    -0.271 OA
BRANCH  19  22
HETATM   22  C   UNL     1      41.894 -16.342   3.970  1.00  0.00     0.041 A 
HETATM   23  C   UNL     1      42.750 -17.412   4.291  1.00  0.00    -0.027 A 
HETATM   24  C   UNL     1      42.560 -18.072   5.524  1.00  0.00     0.010 A 
HETATM   25  C   UNL     1      41.585 -17.656   6.429  1.00  0.00     0.001 A 
HETATM   26  C   UNL     1      40.793 -16.556   6.131  1.00  0.00     0.002 A 
HETATM   27  C   UNL     1      40.954 -15.894   4.915  1.00  0.00     0.030 A 
BRANCH  23  28
HETATM   28  C   UNL     1      43.976 -17.799   3.486  1.00  0.00     0.079 C 
BRANCH  28  29
HETATM   29  C   UNL     1      44.039 -19.285   3.185  1.00  0.00    -0.054 A 
HETATM   30  C   UNL     1      44.699 -20.162   4.058  1.00  0.00     0.007 A 
HETATM   31  C   UNL     1      44.782 -21.525   3.765  1.00  0.00     0.001 A 
HETATM   32  C   UNL     1      44.207 -22.026   2.599  1.00  0.00     0.000 A 
HETATM   33  C   UNL     1      43.548 -21.166   1.725  1.00  0.00     0.001 A 
HETATM   34  C   UNL     1      43.465 -19.802   2.014  1.00  0.00     0.007 A 
ENDBRANCH  28  29
ENDBRANCH  23  28
ENDBRANCH  19  22
ENDBRANCH   1  18
TORSDOF 8
ENDMDL
MODEL 10
REMARK VINA RESULT:      -7.8      2.913      8.362
REMARK  8 active torsions:
REMARK  status: ('A' for Active; 'I' for Inactive)
REMARK    1  A    between atoms: O_2  and  C_3 
REMARK    2  A    between atoms: C_5  and  O_6 
REMARK    3  A    between atoms: C_8  and  C_9 
REMARK    4  A    between atoms: N_10  and  C_12 
REMARK    5  A    between atoms: C_12  and  C_13 
REMARK       I    between atoms: C_13  and  N_14 
REMARK    6  A    between atoms: N_14  and  C_15 
REMARK    7  A    between atoms: C_16  and  C_17 
REMARK    8  A    between atoms: C_17  and  C_18 
ROOT
HETATM    1  C   UNL     1      40.313 -15.629   1.697  1.00  0.00     0.338 C 
ENDROOT
BRANCH   1   2
HETATM    2  N   UNL     1      39.882 -14.284   1.119  1.00  0.00    -0.054 N 
HETATM    3  C   UNL     1      38.499 -13.805   1.615  1.00  0.00     0.224 C 
HETATM    4  C   UNL     1      37.617 -13.988   0.377  1.00  0.00     0.040 C 
HETATM    5  C   UNL     1      38.534 -13.635  -0.774  1.00  0.00     0.030 C 
HETATM    6  C   UNL     1      39.840 -14.301  -0.397  1.00  0.00     0.236 C 
HETATM    7  H   UNL     1      40.568 -13.600   1.442  1.00  0.00     0.281 HD
BRANCH   3   8
HETATM    8  C   UNL     1      38.467 -12.372   2.135  1.00  0.00     0.006 A 
HETATM    9  C   UNL     1      39.047 -12.104   3.395  1.00  0.00     0.079 A 
HETATM   10  C   UNL     1      39.060 -10.802   3.905  1.00  0.00     0.074 A 
HETATM   11  C   UNL     1      38.477  -9.748   3.199  1.00  0.00     0.070 A 
HETATM   12  C   UNL     1      37.859 -10.006   1.981  1.00  0.00     0.037 A 
HETATM   13  C   UNL     1      37.845 -11.305   1.457  1.00  0.00     0.015 A 
BRANCH   9  14
HETATM   14  O   UNL     1      39.571 -13.192   4.047  1.00  0.00    -0.355 OA
HETATM   15  C   UNL     1      39.501 -13.181   5.473  1.00  0.00     0.210 C 
ENDBRANCH   9  14
BRANCH  11  16
HETATM   16  O   UNL     1      38.563  -8.533   3.815  1.00  0.00    -0.356 OA
HETATM   17  C   UNL     1      39.672  -8.313   4.679  1.00  0.00     0.210 C 
ENDBRANCH  11  16
ENDBRANCH   3   8
ENDBRANCH   1   2
BRANCH   1  18
HETATM   18  C   UNL     1      41.588 -15.550   2.538  1.00  0.00     0.248 C 
HETATM   19  N   UNL     1      41.355 -15.567   3.907  1.00  0.00    -0.325 N 
HETATM   20  H   UNL     1      40.520 -16.036   4.233  1.00  0.00     0.169 HD
HETATM   21  O   UNL     1      42.686 -15.554   1.993  1.00  0.00    -0.271 OA
BRANCH  19  22
HETATM   22  C   UNL     1      42.404 -15.525   4.856  1.00  0.00     0.041 A 
HETATM   23  C   UNL     1      42.793 -16.616   5.655  1.00  0.00    -0.027 A 
HETATM   24  C   UNL     1      43.816 -16.414   6.607  1.00  0.00     0.010 A 
HETATM   25  C   UNL     1      44.462 -15.185   6.731  1.00  0.00     0.001 A 
HETATM   26  C   UNL     1      44.117 -14.137   5.889  1.00  0.00     0.002 A 
HETATM   27  C   UNL     1      43.102 -14.308   4.948  1.00  0.00     0.030 A 
BRANCH  23  28
HETATM   28  C   UNL     1      42.316 -18.041   5.451  1.00  0.00     0.079 C 
BRANCH  28  29
HETATM   29  C   UNL     1      43.225 -18.842   4.539  1.00  0.00    -0.054 A 
HETATM   30  C   UNL     1      43.030 -18.833   3.150  1.00  0.00     0.007 A 
HETATM   31  C   UNL     1      43.848 -19.594   2.313  1.00  0.00     0.001 A 
HETATM   32  C   UNL     1      44.870 -20.373   2.854  1.00  0.00     0.000 A 
HETATM   33  C   UNL     1      45.074 -20.391   4.231  1.00  0.00     0.001 A 
HETATM   34  C   UNL     1      44.256 -19.632   5.070  1.00  0.00     0.007 A 
ENDBRANCH  28  29
ENDBRANCH  23  28
ENDBRANCH  19  22
ENDBRANCH   1  18
TORSDOF 8
ENDMDL
