MODEL 1
REMARK VINA RESULT:      -7.6      0.000      0.000
REMARK  4 active torsions:
REMARK  status: ('A' for Active; 'I' for Inactive)
REMARK    1  A    between atoms: C_6  and  C_7 
REMARK    2  A    between atoms: C_7  and  N_8 
REMARK    3  A    between atoms: N_8  and  C_9 
REMARK    4  A    between atoms: C_9  and  C_10 
ROOT
HETATM    1  C   UNL     1      40.661 -16.158   2.274  1.00  0.00     0.327 C 
ENDROOT
BRANCH   1   2
HETATM    2  N   UNL     1      41.462 -17.388   2.230  1.00  0.00     0.097 N 
HETATM    3  H   UNL     1      40.838 -18.196   2.176  1.00  0.00     0.317 HD
BRANCH   2   4
HETATM    4  C   UNL     1      42.278 -17.563   3.451  1.00  0.00     0.252 C 
HETATM    5  C   UNL     1      41.434 -17.725   4.720  1.00  0.00     0.048 C 
BRANCH   4   6
HETATM    6  C   UNL     1      43.155 -18.761   3.232  1.00  0.00     0.006 A 
HETATM    7  C   UNL     1      44.173 -19.210   4.059  1.00  0.00     0.058 A 
HETATM    8  O   UNL     1      44.724 -20.352   3.565  1.00  0.00    -0.320 OA
HETATM    9  C   UNL     1      44.744 -18.724   5.335  1.00  0.00     0.077 C 
HETATM   10  C   UNL     1      44.052 -20.669   2.429  1.00  0.00     0.050 A 
HETATM   11  C   UNL     1      44.461 -21.914   1.746  1.00  0.00     0.076 C 
HETATM   12  C   UNL     1      43.086 -19.722   2.174  1.00  0.00     0.044 A 
ENDBRANCH   4   6
ENDBRANCH   2   4
ENDBRANCH   1   2
BRANCH   1  13
HETATM   13  C   UNL     1      41.055 -15.240   1.133  1.00  0.00     0.044 A 
HETATM   14  N   UNL     1      40.781 -15.714  -0.137  1.00  0.00    -0.338 N 
HETATM   15  H   UNL     1      40.318 -16.621  -0.239  1.00  0.00     0.168 HD
HETATM   16  C   UNL     1      41.077 -14.997  -1.192  1.00  0.00     0.158 A 
HETATM   17  N   UNL     1      41.638 -13.810  -1.086  1.00  0.00    -0.269 N 
HETATM   18  S   UNL     1      40.778 -15.494  -2.828  1.00  0.00    -0.064 SA
HETATM   19  C   UNL     1      41.957 -13.207   0.148  1.00  0.00     0.255 A 
HETATM   20  C   UNL     1      41.872 -13.217  -2.309  1.00  0.00     0.109 A 
HETATM   21  O   UNL     1      42.469 -12.105   0.210  1.00  0.00    -0.268 OA
HETATM   22  C   UNL     1      41.610 -14.033   1.315  1.00  0.00     0.101 A 
HETATM   23  C   UNL     1      41.478 -13.972  -3.345  1.00  0.00     0.071 A 
ENDBRANCH   1  13
TORSDOF 4
ENDMDL
MODEL 2
REMARK VINA RESULT:      -7.4      2.004      2.391
REMARK  4 active torsions:
REMARK  status: ('A' for Active; 'I' for Inactive)
REMARK    1  A    between atoms: C_6  and  C_7 
REMARK    2  A    between atoms: C_7  and  N_8 
REMARK    3  A    between atoms: N_8  and  C_9 
REMARK    4  A    between atoms: C_9  and  C_10 
ROOT
HETATM    1  C   UNL     1      41.492 -16.315   0.525  1.00  0.00     0.327 C 
ENDROOT
BRANCH   1   2
HETATM    2  N   UNL     1      42.889 -16.558   0.909  1.00  0.00     0.097 N 
HETATM    3  H   UNL     1      43.222 -17.409   0.450  1.00  0.00     0.317 HD
BRANCH   2   4
HETATM    4  C   UNL     1      43.034 -16.776   2.365  1.00  0.00     0.252 C 
HETATM    5  C   UNL     1      41.743 -16.503   3.146  1.00  0.00     0.048 C 
BRANCH   4   6
HETATM    6  C   UNL     1      43.490 -18.192   2.559  1.00  0.00     0.006 A 
HETATM    7  C   UNL     1      44.002 -18.751   3.721  1.00  0.00     0.058 A 
HETATM    8  O   UNL     1      44.269 -20.072   3.541  1.00  0.00    -0.320 OA
HETATM    9  C   UNL     1      44.283 -18.219   5.073  1.00  0.00     0.077 C 
HETATM   10  C   UNL     1      43.910 -20.391   2.271  1.00  0.00     0.050 A 
HETATM   11  C   UNL     1      44.074 -21.804   1.873  1.00  0.00     0.076 C 
HETATM   12  C   UNL     1      43.435 -19.272   1.623  1.00  0.00     0.044 A 
ENDBRANCH   4   6
ENDBRANCH   2   4
ENDBRANCH   1   2
BRANCH   1  13
HETATM   13  C   UNL     1      41.438 -15.432  -0.706  1.00  0.00     0.044 A 
HETATM   14  N   UNL     1      42.019 -14.184  -0.571  1.00  0.00    -0.338 N 
HETATM   15  H   UNL     1      42.463 -13.937   0.317  1.00  0.00     0.168 HD
HETATM   16  C   UNL     1      42.032 -13.345  -1.576  1.00  0.00     0.158 A 
HETATM   17  N   UNL     1      41.500 -13.654  -2.742  1.00  0.00    -0.269 N 
HETATM   18  S   UNL     1      42.731 -11.757  -1.517  1.00  0.00    -0.064 SA
HETATM   19  C   UNL     1      40.890 -14.895  -3.015  1.00  0.00     0.255 A 
HETATM   20  C   UNL     1      41.612 -12.638  -3.668  1.00  0.00     0.109 A 
HETATM   21  O   UNL     1      40.414 -15.150  -4.105  1.00  0.00    -0.268 OA
HETATM   22  C   UNL     1      40.894 -15.818  -1.869  1.00  0.00     0.101 A 
HETATM   23  C   UNL     1      42.239 -11.554  -3.187  1.00  0.00     0.071 A 
ENDBRANCH   1  13
TORSDOF 4
ENDMDL
MODEL 3
REMARK VINA RESULT:      -7.4      0.943      2.195
REMARK  4 active torsions:
REMARK  status: ('A' for Active; 'I' for Inactive)
REMARK    1  A    between atoms: C_6  and  C_7 
REMARK    2  A    between atoms: C_7  and  N_8 
REMARK    3  A    between atoms: N_8  and  C_9 
REMARK    4  A    between atoms: C_9  and  C_10 
ROOT
HETATM    1  C   UNL     1      40.732 -16.857   1.648  1.00  0.00     0.327 C 
ENDROOT
BRANCH   1   2
HETATM    2  N   UNL     1      41.810 -17.059   2.625  1.00  0.00     0.097 N 
HETATM    3  H   UNL     1      42.384 -16.214   2.674  1.00  0.00     0.317 HD
BRANCH   2   4
HETATM    4  C   UNL     1      42.713 -18.163   2.235  1.00  0.00     0.252 C 
HETATM    5  C   UNL     1      43.620 -17.810   1.050  1.00  0.00     0.048 C 
BRANCH   4   6
HETATM    6  C   UNL     1      43.525 -18.522   3.445  1.00  0.00     0.006 A 
HETATM    7  C   UNL     1      44.267 -19.678   3.638  1.00  0.00     0.058 A 
HETATM    8  O   UNL     1      44.909 -19.642   4.836  1.00  0.00    -0.320 OA
HETATM    9  C   UNL     1      44.507 -20.887   2.819  1.00  0.00     0.077 C 
HETATM   10  C   UNL     1      44.611 -18.453   5.422  1.00  0.00     0.050 A 
HETATM   11  C   UNL     1      45.248 -18.182   6.726  1.00  0.00     0.076 C 
HETATM   12  C   UNL     1      43.759 -17.732   4.615  1.00  0.00     0.044 A 
ENDBRANCH   4   6
ENDBRANCH   2   4
ENDBRANCH   1   2
BRANCH   1  13
HETATM   13  C   UNL     1      41.075 -15.703   0.726  1.00  0.00     0.044 A 
HETATM   14  N   UNL     1      40.801 -15.907  -0.614  1.00  0.00    -0.338 N 
HETATM   15  H   UNL     1      40.373 -16.790  -0.904  1.00  0.00     0.168 HD
HETATM   16  C   UNL     1      41.055 -14.972  -1.494  1.00  0.00     0.158 A 
HETATM   17  N   UNL     1      41.571 -13.812  -1.141  1.00  0.00    -0.269 N 
HETATM   18  S   UNL     1      40.753 -15.122  -3.197  1.00  0.00    -0.064 SA
HETATM   19  C   UNL     1      41.884 -13.472   0.191  1.00  0.00     0.255 A 
HETATM   20  C   UNL     1      41.765 -12.964  -2.212  1.00  0.00     0.109 A 
HETATM   21  O   UNL     1      42.354 -12.389   0.483  1.00  0.00    -0.268 OA
HETATM   22  C   UNL     1      41.585 -14.540   1.157  1.00  0.00     0.101 A 
HETATM   23  C   UNL     1      41.385 -13.498  -3.382  1.00  0.00     0.071 A 
ENDBRANCH   1  13
TORSDOF 4
ENDMDL
MODEL 4
REMARK VINA RESULT:      -7.3      1.996      2.184
REMARK  4 active torsions:
REMARK  status: ('A' for Active; 'I' for Inactive)
REMARK    1  A    between atoms: C_6  and  C_7 
REMARK    2  A    between atoms: C_7  and  N_8 
REMARK    3  A    between atoms: N_8  and  C_9 
REMARK    4  A    between atoms: C_9  and  C_10 
ROOT
HETATM    1  C   UNL     1      40.849 -16.765   2.435  1.00  0.00     0.327 C 
ENDROOT
BRANCH   1   2
HETATM    2  N   UNL     1      42.310 -16.894   2.519  1.00  0.00     0.097 N 
HETATM    3  H   UNL     1      42.641 -17.494   1.760  1.00  0.00     0.317 HD
BRANCH   2   4
HETATM    4  C   UNL     1      42.739 -17.533   3.782  1.00  0.00     0.252 C 
HETATM    5  C   UNL     1      41.581 -17.772   4.758  1.00  0.00     0.048 C 
BRANCH   4   6
HETATM    6  C   UNL     1      43.413 -18.824   3.421  1.00  0.00     0.006 A 
HETATM    7  C   UNL     1      44.318 -19.535   4.194  1.00  0.00     0.058 A 
HETATM    8  O   UNL     1      44.689 -20.683   3.564  1.00  0.00    -0.320 OA
HETATM    9  C   UNL     1      44.921 -19.313   5.527  1.00  0.00     0.077 C 
HETATM   10  C   UNL     1      44.010 -20.740   2.390  1.00  0.00     0.050 A 
HETATM   11  C   UNL     1      44.229 -21.941   1.558  1.00  0.00     0.076 C 
HETATM   12  C   UNL     1      43.220 -19.621   2.248  1.00  0.00     0.044 A 
ENDBRANCH   4   6
ENDBRANCH   2   4
ENDBRANCH   1   2
BRANCH   1  13
HETATM   13  C   UNL     1      40.475 -15.828   1.303  1.00  0.00     0.044 A 
HETATM   14  N   UNL     1      39.303 -15.115   1.481  1.00  0.00    -0.338 N 
HETATM   15  H   UNL     1      38.776 -15.235   2.350  1.00  0.00     0.168 HD
HETATM   16  C   UNL     1      38.891 -14.275   0.566  1.00  0.00     0.158 A 
HETATM   17  N   UNL     1      39.571 -14.075  -0.545  1.00  0.00    -0.269 N 
HETATM   18  S   UNL     1      37.437 -13.332   0.685  1.00  0.00    -0.064 SA
HETATM   19  C   UNL     1      40.785 -14.725  -0.843  1.00  0.00     0.255 A 
HETATM   20  C   UNL     1      38.972 -13.155  -1.381  1.00  0.00     0.109 A 
HETATM   21  O   UNL     1      41.390 -14.512  -1.876  1.00  0.00    -0.268 OA
HETATM   22  C   UNL     1      41.225 -15.660   0.204  1.00  0.00     0.101 A 
HETATM   23  C   UNL     1      37.828 -12.659  -0.886  1.00  0.00     0.071 A 
ENDBRANCH   1  13
TORSDOF 4
ENDMDL
MODEL 5
REMARK VINA RESULT:      -7.1      3.129      3.997
REMARK  4 active torsions:
REMARK  status: ('A' for Active; 'I' for Inactive)
REMARK    1  A    between atoms: C_6  and  C_7 
REMARK    2  A    between atoms: C_7  and  N_8 
REMARK    3  A    between atoms: N_8  and  C_9 
REMARK    4  A    between atoms: C_9  and  C_10 
ROOT
HETATM    1  C   UNL     1      42.105 -16.752   6.476  1.00  0.00     0.327 C 
ENDROOT
BRANCH   1   2
HETATM    2  N   UNL     1      42.548 -17.971   5.786  1.00  0.00     0.097 N 
HETATM    3  H   UNL     1      42.571 -18.747   6.452  1.00  0.00     0.317 HD
BRANCH   2   4
HETATM    4  C   UNL     1      43.918 -17.836   5.245  1.00  0.00     0.252 C 
HETATM    5  C   UNL     1      45.006 -18.180   6.269  1.00  0.00     0.048 C 
BRANCH   4   6
HETATM    6  C   UNL     1      44.011 -18.729   4.042  1.00  0.00     0.006 A 
HETATM    7  C   UNL     1      44.012 -18.337   2.712  1.00  0.00     0.058 A 
HETATM    8  O   UNL     1      44.155 -19.414   1.894  1.00  0.00    -0.320 OA
HETATM    9  C   UNL     1      43.915 -17.026   2.032  1.00  0.00     0.077 C 
HETATM   10  C   UNL     1      44.273 -20.512   2.685  1.00  0.00     0.050 A 
HETATM   11  C   UNL     1      44.487 -21.802   1.996  1.00  0.00     0.076 C 
HETATM   12  C   UNL     1      44.183 -20.149   4.010  1.00  0.00     0.044 A 
ENDBRANCH   4   6
ENDBRANCH   2   4
ENDBRANCH   1   2
BRANCH   1  13
HETATM   13  C   UNL     1      41.296 -15.885   5.530  1.00  0.00     0.044 A 
HETATM   14  N   UNL     1      41.136 -16.386   4.251  1.00  0.00    -0.338 N 
HETATM   15  H   UNL     1      41.537 -17.299   4.021  1.00  0.00     0.168 HD
HETATM   16  C   UNL     1      40.450 -15.719   3.358  1.00  0.00     0.158 A 
HETATM   17  N   UNL     1      39.891 -14.559   3.640  1.00  0.00    -0.269 N 
HETATM   18  S   UNL     1      40.187 -16.252   1.726  1.00  0.00    -0.064 SA
HETATM   19  C   UNL     1      39.967 -13.946   4.907  1.00  0.00     0.255 A 
HETATM   20  C   UNL     1      39.215 -14.015   2.567  1.00  0.00     0.109 A 
HETATM   21  O   UNL     1      39.433 -12.877   5.135  1.00  0.00    -0.268 OA
HETATM   22  C   UNL     1      40.740 -14.720   5.890  1.00  0.00     0.101 A 
HETATM   23  C   UNL     1      39.270 -14.781   1.467  1.00  0.00     0.071 A 
ENDBRANCH   1  13
TORSDOF 4
ENDMDL
MODEL 6
REMARK VINA RESULT:      -7.1      4.085      4.893
REMARK  4 active torsions:
REMARK  status: ('A' for Active; 'I' for Inactive)
REMARK    1  A    between atoms: C_6  and  C_7 
REMARK    2  A    between atoms: C_7  and  N_8 
REMARK    3  A    between atoms: N_8  and  C_9 
REMARK    4  A    between atoms: C_9  and  C_10 
ROOT
HETATM    1  C   UNL     1      42.358 -16.664   6.583  1.00  0.00     0.327 C 
ENDROOT
BRANCH   1   2
HETATM    2  N   UNL     1      42.650 -17.835   5.745  1.00  0.00     0.097 N 
HETATM    3  H   UNL     1      42.582 -18.683   6.313  1.00  0.00     0.317 HD
BRANCH   2   4
HETATM    4  C   UNL     1      44.024 -17.799   5.199  1.00  0.00     0.252 C 
HETATM    5  C   UNL     1      45.094 -18.151   6.239  1.00  0.00     0.048 C 
BRANCH   4   6
HETATM    6  C   UNL     1      44.067 -18.751   4.040  1.00  0.00     0.006 A 
HETATM    7  C   UNL     1      43.907 -18.438   2.698  1.00  0.00     0.058 A 
HETATM    8  O   UNL     1      44.052 -19.548   1.926  1.00  0.00    -0.320 OA
HETATM    9  C   UNL     1      43.641 -17.179   1.967  1.00  0.00     0.077 C 
HETATM   10  C   UNL     1      44.333 -20.586   2.755  1.00  0.00     0.050 A 
HETATM   11  C   UNL     1      44.578 -21.894   2.114  1.00  0.00     0.076 C 
HETATM   12  C   UNL     1      44.346 -20.154   4.062  1.00  0.00     0.044 A 
ENDBRANCH   4   6
ENDBRANCH   2   4
ENDBRANCH   1   2
BRANCH   1  13
HETATM   13  C   UNL     1      41.646 -15.604   5.764  1.00  0.00     0.044 A 
HETATM   14  N   UNL     1      41.757 -14.310   6.239  1.00  0.00    -0.338 N 
HETATM   15  H   UNL     1      42.316 -14.135   7.078  1.00  0.00     0.168 HD
HETATM   16  C   UNL     1      41.185 -13.318   5.604  1.00  0.00     0.158 A 
HETATM   17  N   UNL     1      40.492 -13.512   4.500  1.00  0.00    -0.269 N 
HETATM   18  S   UNL     1      41.258 -11.659   6.111  1.00  0.00    -0.064 SA
HETATM   19  C   UNL     1      40.314 -14.777   3.905  1.00  0.00     0.255 A 
HETATM   20  C   UNL     1      39.967 -12.344   3.985  1.00  0.00     0.109 A 
HETATM   21  O   UNL     1      39.673 -14.919   2.881  1.00  0.00    -0.268 OA
HETATM   22  C   UNL     1      40.971 -15.871   4.637  1.00  0.00     0.101 A 
HETATM   23  C   UNL     1      40.275 -11.262   4.715  1.00  0.00     0.071 A 
ENDBRANCH   1  13
TORSDOF 4
ENDMDL
MODEL 7
REMARK VINA RESULT:      -7.0      2.757      3.915
REMARK  4 active torsions:
REMARK  status: ('A' for Active; 'I' for Inactive)
REMARK    1  A    between atoms: C_6  and  C_7 
REMARK    2  A    between atoms: C_7  and  N_8 
REMARK    3  A    between atoms: N_8  and  C_9 
REMARK    4  A    between atoms: C_9  and  C_10 
ROOT
HETATM    1  C   UNL     1      42.206 -16.798   6.273  1.00  0.00     0.327 C 
ENDROOT
BRANCH   1   2
HETATM    2  N   UNL     1      42.868 -18.108   6.216  1.00  0.00     0.097 N 
HETATM    3  H   UNL     1      43.052 -18.435   7.168  1.00  0.00     0.317 HD
BRANCH   2   4
HETATM    4  C   UNL     1      44.177 -18.039   5.531  1.00  0.00     0.252 C 
HETATM    5  C   UNL     1      45.361 -17.971   6.502  1.00  0.00     0.048 C 
BRANCH   4   6
HETATM    6  C   UNL     1      44.278 -19.245   4.643  1.00  0.00     0.006 A 
HETATM    7  C   UNL     1      44.219 -19.266   3.258  1.00  0.00     0.058 A 
HETATM    8  O   UNL     1      44.391 -20.532   2.790  1.00  0.00    -0.320 OA
HETATM    9  C   UNL     1      44.035 -18.221   2.226  1.00  0.00     0.077 C 
HETATM   10  C   UNL     1      44.588 -21.339   3.863  1.00  0.00     0.050 A 
HETATM   11  C   UNL     1      44.845 -22.766   3.579  1.00  0.00     0.076 C 
HETATM   12  C   UNL     1      44.520 -20.602   5.025  1.00  0.00     0.044 A 
ENDBRANCH   4   6
ENDBRANCH   2   4
ENDBRANCH   1   2
BRANCH   1  13
HETATM   13  C   UNL     1      41.798 -16.361   4.880  1.00  0.00     0.044 A 
HETATM   14  N   UNL     1      42.203 -15.092   4.510  1.00  0.00    -0.338 N 
HETATM   15  H   UNL     1      42.760 -14.538   5.165  1.00  0.00     0.168 HD
HETATM   16  C   UNL     1      41.907 -14.619   3.325  1.00  0.00     0.158 A 
HETATM   17  N   UNL     1      41.223 -15.326   2.449  1.00  0.00    -0.269 N 
HETATM   18  S   UNL     1      42.364 -13.042   2.759  1.00  0.00    -0.064 SA
HETATM   19  C   UNL     1      40.763 -16.636   2.695  1.00  0.00     0.255 A 
HETATM   20  C   UNL     1      41.013 -14.653   1.264  1.00  0.00     0.109 A 
HETATM   21  O   UNL     1      40.140 -17.264   1.861  1.00  0.00    -0.268 OA
HETATM   22  C   UNL     1      41.114 -17.142   4.032  1.00  0.00     0.101 A 
HETATM   23  C   UNL     1      41.550 -13.424   1.254  1.00  0.00     0.071 A 
ENDBRANCH   1  13
TORSDOF 4
ENDMDL
MODEL 8
REMARK VINA RESULT:      -6.9      2.623      7.521
REMARK  4 active torsions:
REMARK  status: ('A' for Active; 'I' for Inactive)
REMARK    1  A    between atoms: C_6  and  C_7 
REMARK    2  A    between atoms: C_7  and  N_8 
REMARK    3  A    between atoms: N_8  and  C_9 
REMARK    4  A    between atoms: C_9  and  C_10 
ROOT
HETATM    1  C   UNL     1      43.198 -16.631   2.096  1.00  0.00     0.327 C 
ENDROOT
BRANCH   1   2
HETATM    2  N   UNL     1      42.886 -16.950   0.696  1.00  0.00     0.097 N 
HETATM    3  H   UNL     1      43.448 -16.356   0.081  1.00  0.00     0.317 HD
BRANCH   2   4
HETATM    4  C   UNL     1      41.470 -16.682   0.368  1.00  0.00     0.252 C 
HETATM    5  C   UNL     1      40.544 -16.764   1.587  1.00  0.00     0.048 C 
BRANCH   4   6
HETATM    6  C   UNL     1      41.409 -15.321  -0.262  1.00  0.00     0.006 A 
HETATM    7  C   UNL     1      41.109 -15.027  -1.583  1.00  0.00     0.058 A 
HETATM    8  O   UNL     1      41.105 -13.683  -1.787  1.00  0.00    -0.320 OA
HETATM    9  C   UNL     1      40.784 -15.855  -2.766  1.00  0.00     0.077 C 
HETATM   10  C   UNL     1      41.376 -13.090  -0.596  1.00  0.00     0.050 A 
HETATM   11  C   UNL     1      41.374 -11.613  -0.578  1.00  0.00     0.076 C 
HETATM   12  C   UNL     1      41.579 -14.049   0.371  1.00  0.00     0.044 A 
ENDBRANCH   4   6
ENDBRANCH   2   4
ENDBRANCH   1   2
BRANCH   1  13
HETATM   13  C   UNL     1      43.633 -17.884   2.830  1.00  0.00     0.044 A 
HETATM   14  N   UNL     1      43.631 -19.046   2.080  1.00  0.00    -0.338 N 
HETATM   15  H   UNL     1      43.366 -18.999   1.093  1.00  0.00     0.168 HD
HETATM   16  C   UNL     1      43.994 -20.184   2.617  1.00  0.00     0.158 A 
HETATM   17  N   UNL     1      44.375 -20.264   3.875  1.00  0.00    -0.269 N 
HETATM   18  S   UNL     1      44.027 -21.699   1.770  1.00  0.00    -0.064 SA
HETATM   19  C   UNL     1      44.436 -19.155   4.743  1.00  0.00     0.255 A 
HETATM   20  C   UNL     1      44.716 -21.548   4.251  1.00  0.00     0.109 A 
HETATM   21  O   UNL     1      44.799 -19.264   5.899  1.00  0.00    -0.268 OA
HETATM   22  C   UNL     1      44.026 -17.891   4.112  1.00  0.00     0.101 A 
HETATM   23  C   UNL     1      44.589 -22.438   3.256  1.00  0.00     0.071 A 
ENDBRANCH   1  13
TORSDOF 4
ENDMDL
MODEL 9
REMARK VINA RESULT:      -6.8      4.378      4.803
REMARK  4 active torsions:
REMARK  status: ('A' for Active; 'I' for Inactive)
REMARK    1  A    between atoms: C_6  and  C_7 
REMARK    2  A    between atoms: C_7  and  N_8 
REMARK    3  A    between atoms: N_8  and  C_9 
REMARK    4  A    between atoms: C_9  and  C_10 
ROOT
HETATM    1  C   UNL     1      42.607 -16.962   6.556  1.00  0.00     0.327 C 
ENDROOT
BRANCH   1   2
HETATM    2  N   UNL     1      42.815 -18.045   5.585  1.00  0.00     0.097 N 
HETATM    3  H   UNL     1      42.507 -18.929   5.995  1.00  0.00     0.317 HD
BRANCH   2   4
HETATM    4  C   UNL     1      44.243 -18.212   5.239  1.00  0.00     0.252 C 
HETATM    5  C   UNL     1      45.168 -18.173   6.461  1.00  0.00     0.048 C 
BRANCH   4   6
HETATM    6  C   UNL     1      44.374 -19.516   4.508  1.00  0.00     0.006 A 
HETATM    7  C   UNL     1      44.357 -20.787   5.062  1.00  0.00     0.058 A 
HETATM    8  O   UNL     1      44.456 -21.735   4.092  1.00  0.00    -0.320 OA
HETATM    9  C   UNL     1      44.234 -21.297   6.446  1.00  0.00     0.077 C 
HETATM   10  C   UNL     1      44.513 -21.091   2.898  1.00  0.00     0.050 A 
HETATM   11  C   UNL     1      44.578 -21.941   1.692  1.00  0.00     0.076 C 
HETATM   12  C   UNL     1      44.475 -19.729   3.097  1.00  0.00     0.044 A 
ENDBRANCH   4   6
ENDBRANCH   2   4
ENDBRANCH   1   2
BRANCH   1  13
HETATM   13  C   UNL     1      42.461 -15.637   5.832  1.00  0.00     0.044 A 
HETATM   14  N   UNL     1      41.358 -14.881   6.188  1.00  0.00    -0.338 N 
HETATM   15  H   UNL     1      40.730 -15.232   6.915  1.00  0.00     0.168 HD
HETATM   16  C   UNL     1      41.141 -13.718   5.627  1.00  0.00     0.158 A 
HETATM   17  N   UNL     1      41.956 -13.228   4.715  1.00  0.00    -0.269 N 
HETATM   18  S   UNL     1      39.791 -12.690   5.997  1.00  0.00    -0.064 SA
HETATM   19  C   UNL     1      43.120 -13.889   4.274  1.00  0.00     0.255 A 
HETATM   20  C   UNL     1      41.553 -11.994   4.245  1.00  0.00     0.109 A 
HETATM   21  O   UNL     1      43.854 -13.404   3.434  1.00  0.00    -0.268 OA
HETATM   22  C   UNL     1      43.340 -15.191   4.924  1.00  0.00     0.101 A 
HETATM   23  C   UNL     1      40.421 -11.557   4.817  1.00  0.00     0.071 A 
ENDBRANCH   1  13
TORSDOF 4
ENDMDL
MODEL 10
REMARK VINA RESULT:      -6.8      3.851      7.453
REMARK  4 active torsions:
REMARK  status: ('A' for Active; 'I' for Inactive)
REMARK    1  A    between atoms: C_6  and  C_7 
REMARK    2  A    between atoms: C_7  and  N_8 
REMARK    3  A    between atoms: N_8  and  C_9 
REMARK    4  A    between atoms: C_9  and  C_10 
ROOT
HETATM    1  C   UNL     1      43.469 -17.566   1.509  1.00  0.00     0.327 C 
ENDROOT
BRANCH   1   2
HETATM    2  N   UNL     1      43.035 -16.586   2.513  1.00  0.00     0.097 N 
HETATM    3  H   UNL     1      43.004 -17.034   3.432  1.00  0.00     0.317 HD
BRANCH   2   4
HETATM    4  C   UNL     1      41.673 -16.078   2.242  1.00  0.00     0.252 C 
HETATM    5  C   UNL     1      40.746 -17.139   1.637  1.00  0.00     0.048 C 
BRANCH   4   6
HETATM    6  C   UNL     1      41.124 -15.561   3.539  1.00  0.00     0.006 A 
HETATM    7  C   UNL     1      40.951 -16.276   4.715  1.00  0.00     0.058 A 
HETATM    8  O   UNL     1      40.470 -15.472   5.700  1.00  0.00    -0.320 OA
HETATM    9  C   UNL     1      41.199 -17.683   5.101  1.00  0.00     0.077 C 
HETATM   10  C   UNL     1      40.349 -14.222   5.182  1.00  0.00     0.050 A 
HETATM   11  C   UNL     1      39.882 -13.167   6.104  1.00  0.00     0.076 C 
HETATM   12  C   UNL     1      40.729 -14.224   3.858  1.00  0.00     0.044 A 
ENDBRANCH   4   6
ENDBRANCH   2   4
ENDBRANCH   1   2
BRANCH   1  13
HETATM   13  C   UNL     1      43.805 -18.884   2.181  1.00  0.00     0.044 A 
HETATM   14  N   UNL     1      43.906 -18.842   3.559  1.00  0.00    -0.338 N 
HETATM   15  H   UNL     1      43.731 -17.957   4.044  1.00  0.00     0.168 HD
HETATM   16  C   UNL     1      44.187 -19.925   4.238  1.00  0.00     0.158 A 
HETATM   17  N   UNL     1      44.380 -21.084   3.641  1.00  0.00    -0.269 N 
HETATM   18  S   UNL     1      44.339 -19.986   5.967  1.00  0.00    -0.064 SA
HETATM   19  C   UNL     1      44.293 -21.266   2.246  1.00  0.00     0.255 A 
HETATM   20  C   UNL     1      44.667 -22.102   4.528  1.00  0.00     0.109 A 
HETATM   21  O   UNL     1      44.471 -22.352   1.728  1.00  0.00    -0.268 OA
HETATM   22  C   UNL     1      43.972 -20.032   1.511  1.00  0.00     0.101 A 
HETATM   23  C   UNL     1      44.687 -21.697   5.806  1.00  0.00     0.071 A 
ENDBRANCH   1  13
TORSDOF 4
ENDMDL
