MODEL 1
REMARK VINA RESULT:      -9.4      0.000      0.000
REMARK  6 active torsions:
REMARK  status: ('A' for Active; 'I' for Inactive)
REMARK    1  A    between atoms: N_9  and  C_10 
REMARK    2  A    between atoms: C_10  and  C_11 
REMARK       I    between atoms: C_11  and  N_12 
REMARK    3  A    between atoms: N_12  and  C_13 
REMARK    4  A    between atoms: C_14  and  C_15 
REMARK       I    between atoms: C_15  and  N_16 
REMARK    5  A    between atoms: N_16  and  C_17 
REMARK    6  A    between atoms: C_17  and  C_18 
ROOT
HETATM    1  C   UNL     1      41.059 -10.912   7.844  1.00  0.00     0.240 C 
HETATM    2  N   UNL     1      42.444 -10.939   7.915  1.00  0.00    -0.325 N 
HETATM    3  O   UNL     1      40.279 -11.069   8.774  1.00  0.00    -0.271 OA
HETATM    4  H   UNL     1      42.928 -10.960   7.026  1.00  0.00     0.169 HD
ENDROOT
BRANCH   1   5
HETATM    5  C   UNL     1      40.559 -10.627   6.424  1.00  0.00     0.240 C 
BRANCH   5   6
HETATM    6  N   UNL     1      40.366 -11.843   5.670  1.00  0.00    -0.259 N 
HETATM    7  C   UNL     1      39.214 -12.144   5.013  1.00  0.00     0.326 C 
HETATM    8  N   UNL     1      39.427 -13.250   4.235  1.00  0.00    -0.320 N 
HETATM    9  O   UNL     1      38.163 -11.524   5.056  1.00  0.00    -0.247 OA
HETATM   10  C   UNL     1      40.828 -13.608   4.146  1.00  0.00     0.144 C 
HETATM   11  H   UNL     1      38.686 -13.652   3.678  1.00  0.00     0.165 HD
HETATM   12  C   UNL     1      41.073 -15.057   4.525  1.00  0.00    -0.014 A 
HETATM   13  C   UNL     1      41.398 -12.601   5.178  1.00  0.00     0.261 C 
HETATM   14  C   UNL     1      41.334 -13.222   2.741  1.00  0.00     0.047 C 
HETATM   15  C   UNL     1      41.863 -15.901   3.715  1.00  0.00    -0.049 A 
HETATM   16  C   UNL     1      40.534 -15.583   5.713  1.00  0.00     0.011 A 
HETATM   17  C   UNL     1      42.049 -17.244   4.080  1.00  0.00     0.007 A 
HETATM   18  C   UNL     1      42.487 -15.413   2.431  1.00  0.00     0.039 C 
HETATM   19  C   UNL     1      41.491 -17.748   5.252  1.00  0.00     0.001 A 
HETATM   20  C   UNL     1      40.737 -16.916   6.071  1.00  0.00     0.001 A 
HETATM   21  C   UNL     1      42.655 -13.900   2.403  1.00  0.00     0.008 C 
HETATM   22  O   UNL     1      42.585 -12.432   5.433  1.00  0.00    -0.270 OA
ENDBRANCH   5   6
ENDBRANCH   1   5
BRANCH   2  23
HETATM   23  C   UNL     1      43.277 -11.127   9.043  1.00  0.00     0.050 A 
HETATM   24  C   UNL     1      44.443 -11.900   9.143  1.00  0.00     0.058 A 
HETATM   25  C   UNL     1      45.188 -11.881  10.343  1.00  0.00     0.019 A 
HETATM   26  C   UNL     1      44.767 -11.144  11.448  1.00  0.00     0.001 A 
HETATM   27  C   UNL     1      43.586 -10.423  11.374  1.00  0.00     0.002 A 
HETATM   28  C   UNL     1      42.848 -10.421  10.188  1.00  0.00     0.030 A 
BRANCH  24  29
HETATM   29  C   UNL     1      44.952 -12.877   8.150  1.00  0.00     0.254 C 
HETATM   30  N   UNL     1      44.074 -13.862   7.743  1.00  0.00    -0.351 N 
HETATM   31  H   UNL     1      43.081 -13.742   7.915  1.00  0.00     0.163 HD
HETATM   32  O   UNL     1      46.138 -12.852   7.834  1.00  0.00    -0.268 OA
BRANCH  30  33
HETATM   33  C   UNL     1      44.473 -14.750   6.679  1.00  0.00     0.187 C 
BRANCH  33  34
HETATM   34  C   UNL     1      44.353 -16.158   7.127  1.00  0.00     0.070 A 
HETATM   35  O   UNL     1      43.597 -16.389   8.239  1.00  0.00    -0.325 OA
HETATM   36  C   UNL     1      43.573 -17.732   8.435  1.00  0.00     0.142 A 
HETATM   37  C   UNL     1      44.316 -18.371   7.471  1.00  0.00     0.027 A 
HETATM   38  C   UNL     1      44.822 -17.355   6.625  1.00  0.00     0.036 A 
ENDBRANCH  33  34
ENDBRANCH  30  33
ENDBRANCH  24  29
ENDBRANCH   2  23
TORSDOF 6
ENDMDL
MODEL 2
REMARK VINA RESULT:      -9.3      2.876      5.774
REMARK  6 active torsions:
REMARK  status: ('A' for Active; 'I' for Inactive)
REMARK    1  A    between atoms: N_9  and  C_10 
REMARK    2  A    between atoms: C_10  and  C_11 
REMARK       I    between atoms: C_11  and  N_12 
REMARK    3  A    between atoms: N_12  and  C_13 
REMARK    4  A    between atoms: C_14  and  C_15 
REMARK       I    between atoms: C_15  and  N_16 
REMARK    5  A    between atoms: N_16  and  C_17 
REMARK    6  A    between atoms: C_17  and  C_18 
ROOT
HETATM    1  C   UNL     1      39.945 -14.642   2.276  1.00  0.00     0.240 C 
HETATM    2  N   UNL     1      40.095 -14.334   3.620  1.00  0.00    -0.325 N 
HETATM    3  O   UNL     1      39.865 -13.844   1.351  1.00  0.00    -0.271 OA
HETATM    4  H   UNL     1      39.973 -15.107   4.263  1.00  0.00     0.169 HD
ENDROOT
BRANCH   1   5
HETATM    5  C   UNL     1      39.912 -16.154   2.029  1.00  0.00     0.240 C 
BRANCH   5   6
HETATM    6  N   UNL     1      41.225 -16.743   2.139  1.00  0.00    -0.259 N 
HETATM    7  C   UNL     1      42.304 -16.306   1.434  1.00  0.00     0.326 C 
HETATM    8  N   UNL     1      43.425 -16.926   1.916  1.00  0.00    -0.320 N 
HETATM    9  O   UNL     1      42.308 -15.469   0.546  1.00  0.00    -0.247 OA
HETATM   10  C   UNL     1      43.178 -17.643   3.151  1.00  0.00     0.144 C 
HETATM   11  H   UNL     1      44.335 -16.755   1.514  1.00  0.00     0.165 HD
HETATM   12  C   UNL     1      43.624 -19.091   3.071  1.00  0.00    -0.014 A 
HETATM   13  C   UNL     1      41.638 -17.480   3.219  1.00  0.00     0.261 C 
HETATM   14  C   UNL     1      43.816 -16.843   4.306  1.00  0.00     0.047 C 
HETATM   15  C   UNL     1      44.409 -19.673   4.090  1.00  0.00    -0.049 A 
HETATM   16  C   UNL     1      43.238 -19.896   1.983  1.00  0.00     0.011 A 
HETATM   17  C   UNL     1      44.827 -21.008   3.974  1.00  0.00     0.007 A 
HETATM   18  C   UNL     1      44.857 -18.884   5.296  1.00  0.00     0.039 C 
HETATM   19  C   UNL     1      44.448 -21.780   2.878  1.00  0.00     0.001 A 
HETATM   20  C   UNL     1      43.649 -21.225   1.886  1.00  0.00     0.001 A 
HETATM   21  C   UNL     1      43.963 -17.681   5.569  1.00  0.00     0.008 C 
HETATM   22  O   UNL     1      40.919 -17.850   4.140  1.00  0.00    -0.270 OA
ENDBRANCH   5   6
ENDBRANCH   1   5
BRANCH   2  23
HETATM   23  C   UNL     1      40.211 -13.068   4.239  1.00  0.00     0.050 A 
HETATM   24  C   UNL     1      41.344 -12.488   4.830  1.00  0.00     0.058 A 
HETATM   25  C   UNL     1      41.274 -11.164   5.314  1.00  0.00     0.019 A 
HETATM   26  C   UNL     1      40.091 -10.431   5.258  1.00  0.00     0.001 A 
HETATM   27  C   UNL     1      38.953 -11.017   4.727  1.00  0.00     0.002 A 
HETATM   28  C   UNL     1      39.012 -12.321   4.230  1.00  0.00     0.030 A 
BRANCH  24  29
HETATM   29  C   UNL     1      42.629 -13.162   5.140  1.00  0.00     0.254 C 
HETATM   30  N   UNL     1      42.879 -13.440   6.469  1.00  0.00    -0.351 N 
HETATM   31  H   UNL     1      42.110 -13.425   7.131  1.00  0.00     0.163 HD
HETATM   32  O   UNL     1      43.453 -13.325   4.245  1.00  0.00    -0.268 OA
BRANCH  30  33
HETATM   33  C   UNL     1      44.047 -14.216   6.806  1.00  0.00     0.187 C 
BRANCH  33  34
HETATM   34  C   UNL     1      45.030 -13.363   7.518  1.00  0.00     0.070 A 
HETATM   35  O   UNL     1      46.211 -13.121   6.880  1.00  0.00    -0.325 OA
HETATM   36  C   UNL     1      46.929 -12.283   7.671  1.00  0.00     0.142 A 
HETATM   37  C   UNL     1      46.231 -11.992   8.818  1.00  0.00     0.027 A 
HETATM   38  C   UNL     1      45.003 -12.690   8.722  1.00  0.00     0.036 A 
ENDBRANCH  33  34
ENDBRANCH  30  33
ENDBRANCH  24  29
ENDBRANCH   2  23
TORSDOF 6
ENDMDL
MODEL 3
REMARK VINA RESULT:      -9.1      2.548      5.460
REMARK  6 active torsions:
REMARK  status: ('A' for Active; 'I' for Inactive)
REMARK    1  A    between atoms: N_9  and  C_10 
REMARK    2  A    between atoms: C_10  and  C_11 
REMARK       I    between atoms: C_11  and  N_12 
REMARK    3  A    between atoms: N_12  and  C_13 
REMARK    4  A    between atoms: C_14  and  C_15 
REMARK       I    between atoms: C_15  and  N_16 
REMARK    5  A    between atoms: N_16  and  C_17 
REMARK    6  A    between atoms: C_17  and  C_18 
ROOT
HETATM    1  C   UNL     1      41.907 -13.624   2.052  1.00  0.00     0.240 C 
HETATM    2  N   UNL     1      41.156 -13.824   3.201  1.00  0.00    -0.325 N 
HETATM    3  O   UNL     1      42.396 -12.566   1.677  1.00  0.00    -0.271 OA
HETATM    4  H   UNL     1      40.690 -14.721   3.268  1.00  0.00     0.169 HD
ENDROOT
BRANCH   1   5
HETATM    5  C   UNL     1      42.108 -14.920   1.260  1.00  0.00     0.240 C 
BRANCH   5   6
HETATM    6  N   UNL     1      42.048 -16.083   2.113  1.00  0.00    -0.259 N 
HETATM    7  C   UNL     1      40.914 -16.806   2.317  1.00  0.00     0.326 C 
HETATM    8  N   UNL     1      41.237 -17.950   2.997  1.00  0.00    -0.320 N 
HETATM    9  O   UNL     1      39.790 -16.529   1.932  1.00  0.00    -0.247 OA
HETATM   10  C   UNL     1      42.668 -18.168   3.072  1.00  0.00     0.144 C 
HETATM   11  H   UNL     1      40.531 -18.619   3.267  1.00  0.00     0.165 HD
HETATM   12  C   UNL     1      43.140 -18.375   4.499  1.00  0.00    -0.014 A 
HETATM   13  C   UNL     1      43.147 -16.829   2.457  1.00  0.00     0.261 C 
HETATM   14  C   UNL     1      43.029 -19.318   2.108  1.00  0.00     0.047 C 
HETATM   15  C   UNL     1      43.994 -19.447   4.839  1.00  0.00    -0.049 A 
HETATM   16  C   UNL     1      42.754 -17.480   5.514  1.00  0.00     0.011 A 
HETATM   17  C   UNL     1      44.393 -19.626   6.173  1.00  0.00     0.007 A 
HETATM   18  C   UNL     1      44.464 -20.445   3.810  1.00  0.00     0.039 C 
HETATM   19  C   UNL     1      43.983 -18.738   7.164  1.00  0.00     0.001 A 
HETATM   20  C   UNL     1      43.168 -17.662   6.833  1.00  0.00     0.001 A 
HETATM   21  C   UNL     1      44.411 -19.889   2.392  1.00  0.00     0.008 C 
HETATM   22  O   UNL     1      44.310 -16.528   2.215  1.00  0.00    -0.270 OA
ENDBRANCH   5   6
ENDBRANCH   1   5
BRANCH   2  23
HETATM   23  C   UNL     1      40.794 -12.896   4.204  1.00  0.00     0.050 A 
HETATM   24  C   UNL     1      41.526 -12.510   5.337  1.00  0.00     0.058 A 
HETATM   25  C   UNL     1      41.024 -11.489   6.174  1.00  0.00     0.019 A 
HETATM   26  C   UNL     1      39.793 -10.885   5.925  1.00  0.00     0.001 A 
HETATM   27  C   UNL     1      39.039 -11.301   4.840  1.00  0.00     0.002 A 
HETATM   28  C   UNL     1      39.532 -12.298   3.995  1.00  0.00     0.030 A 
BRANCH  24  29
HETATM   29  C   UNL     1      42.755 -13.152   5.864  1.00  0.00     0.254 C 
HETATM   30  N   UNL     1      43.234 -12.679   7.070  1.00  0.00    -0.351 N 
HETATM   31  H   UNL     1      42.623 -12.128   7.663  1.00  0.00     0.163 HD
HETATM   32  O   UNL     1      43.355 -13.965   5.166  1.00  0.00    -0.268 OA
BRANCH  30  33
HETATM   33  C   UNL     1      44.344 -13.361   7.689  1.00  0.00     0.187 C 
BRANCH  33  34
HETATM   34  C   UNL     1      44.787 -12.614   8.891  1.00  0.00     0.070 A 
HETATM   35  O   UNL     1      44.314 -13.048  10.095  1.00  0.00    -0.325 OA
HETATM   36  C   UNL     1      44.883 -12.271  11.052  1.00  0.00     0.142 A 
HETATM   37  C   UNL     1      45.706 -11.331  10.479  1.00  0.00     0.027 A 
HETATM   38  C   UNL     1      45.645 -11.551   9.082  1.00  0.00     0.036 A 
ENDBRANCH  33  34
ENDBRANCH  30  33
ENDBRANCH  24  29
ENDBRANCH   2  23
TORSDOF 6
ENDMDL
MODEL 4
REMARK VINA RESULT:      -9.1      2.706      5.589
REMARK  6 active torsions:
REMARK  status: ('A' for Active; 'I' for Inactive)
REMARK    1  A    between atoms: N_9  and  C_10 
REMARK    2  A    between atoms: C_10  and  C_11 
REMARK       I    between atoms: C_11  and  N_12 
REMARK    3  A    between atoms: N_12  and  C_13 
REMARK    4  A    between atoms: C_14  and  C_15 
REMARK       I    between atoms: C_15  and  N_16 
REMARK    5  A    between atoms: N_16  and  C_17 
REMARK    6  A    between atoms: C_17  and  C_18 
ROOT
HETATM    1  C   UNL     1      40.174 -14.847   4.312  1.00  0.00     0.240 C 
HETATM    2  N   UNL     1      40.437 -13.550   3.895  1.00  0.00    -0.325 N 
HETATM    3  O   UNL     1      39.911 -15.205   5.452  1.00  0.00    -0.271 OA
HETATM    4  H   UNL     1      40.800 -13.458   2.954  1.00  0.00     0.169 HD
ENDROOT
BRANCH   1   5
HETATM    5  C   UNL     1      40.215 -15.847   3.151  1.00  0.00     0.240 C 
BRANCH   5   6
HETATM    6  N   UNL     1      41.482 -16.536   3.084  1.00  0.00    -0.259 N 
HETATM    7  C   UNL     1      42.588 -16.016   2.488  1.00  0.00     0.326 C 
HETATM    8  N   UNL     1      43.662 -16.815   2.779  1.00  0.00    -0.320 N 
HETATM    9  O   UNL     1      42.653 -14.988   1.835  1.00  0.00    -0.247 OA
HETATM   10  C   UNL     1      43.366 -17.796   3.803  1.00  0.00     0.144 C 
HETATM   11  H   UNL     1      44.582 -16.614   2.412  1.00  0.00     0.165 HD
HETATM   12  C   UNL     1      43.703 -19.207   3.358  1.00  0.00    -0.014 A 
HETATM   13  C   UNL     1      41.842 -17.546   3.940  1.00  0.00     0.261 C 
HETATM   14  C   UNL     1      44.064 -17.355   5.106  1.00  0.00     0.047 C 
HETATM   15  C   UNL     1      44.445 -20.078   4.185  1.00  0.00    -0.049 A 
HETATM   16  C   UNL     1      43.256 -19.687   2.113  1.00  0.00     0.011 A 
HETATM   17  C   UNL     1      44.763 -21.368   3.733  1.00  0.00     0.007 A 
HETATM   18  C   UNL     1      44.953 -19.646   5.538  1.00  0.00     0.039 C 
HETATM   19  C   UNL     1      44.326 -21.815   2.489  1.00  0.00     0.001 A 
HETATM   20  C   UNL     1      43.568 -20.976   1.681  1.00  0.00     0.001 A 
HETATM   21  C   UNL     1      44.151 -18.488   6.119  1.00  0.00     0.008 C 
HETATM   22  O   UNL     1      41.099 -18.081   4.755  1.00  0.00    -0.270 OA
ENDBRANCH   5   6
ENDBRANCH   1   5
BRANCH   2  23
HETATM   23  C   UNL     1      40.449 -12.354   4.649  1.00  0.00     0.050 A 
HETATM   24  C   UNL     1      41.442 -11.886   5.522  1.00  0.00     0.058 A 
HETATM   25  C   UNL     1      41.304 -10.611   6.112  1.00  0.00     0.019 A 
HETATM   26  C   UNL     1      40.179  -9.822   5.882  1.00  0.00     0.001 A 
HETATM   27  C   UNL     1      39.168 -10.302   5.066  1.00  0.00     0.002 A 
HETATM   28  C   UNL     1      39.300 -11.555   4.463  1.00  0.00     0.030 A 
BRANCH  24  29
HETATM   29  C   UNL     1      42.613 -12.645   6.027  1.00  0.00     0.254 C 
HETATM   30  N   UNL     1      43.081 -12.303   7.279  1.00  0.00    -0.351 N 
HETATM   31  H   UNL     1      42.487 -11.763   7.900  1.00  0.00     0.163 HD
HETATM   32  O   UNL     1      43.184 -13.436   5.280  1.00  0.00    -0.268 OA
BRANCH  30  33
HETATM   33  C   UNL     1      44.127 -13.102   7.870  1.00  0.00     0.187 C 
BRANCH  33  34
HETATM   34  C   UNL     1      44.655 -12.426   9.080  1.00  0.00     0.070 A 
HETATM   35  O   UNL     1      44.322 -12.970  10.285  1.00  0.00    -0.325 OA
HETATM   36  C   UNL     1      44.949 -12.241  11.242  1.00  0.00     0.142 A 
HETATM   37  C   UNL     1      45.673 -11.222  10.670  1.00  0.00     0.027 A 
HETATM   38  C   UNL     1      45.484 -11.339   9.272  1.00  0.00     0.036 A 
ENDBRANCH  33  34
ENDBRANCH  30  33
ENDBRANCH  24  29
ENDBRANCH   2  23
TORSDOF 6
ENDMDL
MODEL 5
REMARK VINA RESULT:      -8.9      3.989      7.859
REMARK  6 active torsions:
REMARK  status: ('A' for Active; 'I' for Inactive)
REMARK    1  A    between atoms: N_9  and  C_10 
REMARK    2  A    between atoms: C_10  and  C_11 
REMARK       I    between atoms: C_11  and  N_12 
REMARK    3  A    between atoms: N_12  and  C_13 
REMARK    4  A    between atoms: C_14  and  C_15 
REMARK       I    between atoms: C_15  and  N_16 
REMARK    5  A    between atoms: N_16  and  C_17 
REMARK    6  A    between atoms: C_17  and  C_18 
ROOT
HETATM    1  C   UNL     1      41.337 -12.739   3.291  1.00  0.00     0.240 C 
HETATM    2  N   UNL     1      39.955 -12.723   3.416  1.00  0.00    -0.325 N 
HETATM    3  O   UNL     1      41.987 -12.310   2.347  1.00  0.00    -0.271 OA
HETATM    4  H   UNL     1      39.578 -13.270   4.180  1.00  0.00     0.169 HD
ENDROOT
BRANCH   1   5
HETATM    5  C   UNL     1      42.021 -13.351   4.518  1.00  0.00     0.240 C 
BRANCH   5   6
HETATM    6  N   UNL     1      41.957 -14.793   4.502  1.00  0.00    -0.259 N 
HETATM    7  C   UNL     1      40.896 -15.503   4.970  1.00  0.00     0.326 C 
HETATM    8  N   UNL     1      41.055 -16.817   4.621  1.00  0.00    -0.320 N 
HETATM    9  O   UNL     1      39.926 -15.062   5.567  1.00  0.00    -0.247 OA
HETATM   10  C   UNL     1      42.135 -17.015   3.675  1.00  0.00     0.144 C 
HETATM   11  H   UNL     1      40.382 -17.519   4.893  1.00  0.00     0.165 HD
HETATM   12  C   UNL     1      43.130 -18.056   4.153  1.00  0.00    -0.014 A 
HETATM   13  C   UNL     1      42.711 -15.576   3.665  1.00  0.00     0.261 C 
HETATM   14  C   UNL     1      41.514 -17.314   2.295  1.00  0.00     0.047 C 
HETATM   15  C   UNL     1      43.568 -19.095   3.304  1.00  0.00    -0.049 A 
HETATM   16  C   UNL     1      43.661 -17.988   5.455  1.00  0.00     0.011 A 
HETATM   17  C   UNL     1      44.470 -20.057   3.785  1.00  0.00     0.007 A 
HETATM   18  C   UNL     1      43.056 -19.233   1.891  1.00  0.00     0.039 C 
HETATM   19  C   UNL     1      44.968 -19.981   5.083  1.00  0.00     0.001 A 
HETATM   20  C   UNL     1      44.567 -18.943   5.916  1.00  0.00     0.001 A 
HETATM   21  C   UNL     1      42.527 -17.919   1.332  1.00  0.00     0.008 C 
HETATM   22  O   UNL     1      43.619 -15.174   2.947  1.00  0.00    -0.270 OA
ENDBRANCH   5   6
ENDBRANCH   1   5
BRANCH   2  23
HETATM   23  C   UNL     1      38.984 -12.207   2.527  1.00  0.00     0.050 A 
HETATM   24  C   UNL     1      38.641 -12.672   1.248  1.00  0.00     0.058 A 
HETATM   25  C   UNL     1      37.569 -12.070   0.554  1.00  0.00     0.019 A 
HETATM   26  C   UNL     1      36.869 -10.991   1.092  1.00  0.00     0.001 A 
HETATM   27  C   UNL     1      37.240 -10.490   2.330  1.00  0.00     0.002 A 
HETATM   28  C   UNL     1      38.288 -11.088   3.034  1.00  0.00     0.030 A 
BRANCH  24  29
HETATM   29  C   UNL     1      39.372 -13.680   0.442  1.00  0.00     0.254 C 
HETATM   30  N   UNL     1      39.639 -13.349  -0.872  1.00  0.00    -0.351 N 
HETATM   31  H   UNL     1      39.574 -12.378  -1.160  1.00  0.00     0.163 HD
HETATM   32  O   UNL     1      39.592 -14.789   0.921  1.00  0.00    -0.268 OA
BRANCH  30  33
HETATM   33  C   UNL     1      40.466 -14.233  -1.655  1.00  0.00     0.187 C 
BRANCH  33  34
HETATM   34  C   UNL     1      39.636 -14.941  -2.659  1.00  0.00     0.070 A 
HETATM   35  O   UNL     1      38.335 -14.547  -2.772  1.00  0.00    -0.325 OA
HETATM   36  C   UNL     1      37.781 -15.274  -3.775  1.00  0.00     0.142 A 
HETATM   37  C   UNL     1      38.705 -16.143  -4.303  1.00  0.00     0.027 A 
HETATM   38  C   UNL     1      39.905 -15.931  -3.583  1.00  0.00     0.036 A 
ENDBRANCH  33  34
ENDBRANCH  30  33
ENDBRANCH  24  29
ENDBRANCH   2  23
TORSDOF 6
ENDMDL
MODEL 6
REMARK VINA RESULT:      -8.6      2.010      5.335
REMARK  6 active torsions:
REMARK  status: ('A' for Active; 'I' for Inactive)
REMARK    1  A    between atoms: N_9  and  C_10 
REMARK    2  A    between atoms: C_10  and  C_11 
REMARK       I    between atoms: C_11  and  N_12 
REMARK    3  A    between atoms: N_12  and  C_13 
REMARK    4  A    between atoms: C_14  and  C_15 
REMARK       I    between atoms: C_15  and  N_16 
REMARK    5  A    between atoms: N_16  and  C_17 
REMARK    6  A    between atoms: C_17  and  C_18 
ROOT
HETATM    1  C   UNL     1      39.847 -12.921   5.655  1.00  0.00     0.240 C 
HETATM    2  N   UNL     1      40.171 -11.640   5.230  1.00  0.00    -0.325 N 
HETATM    3  O   UNL     1      39.439 -13.238   6.764  1.00  0.00    -0.271 OA
HETATM    4  H   UNL     1      40.652 -11.583   4.341  1.00  0.00     0.169 HD
ENDROOT
BRANCH   1   5
HETATM    5  C   UNL     1      40.029 -13.961   4.544  1.00  0.00     0.240 C 
BRANCH   5   6
HETATM    6  N   UNL     1      41.309 -14.623   4.636  1.00  0.00    -0.259 N 
HETATM    7  C   UNL     1      42.491 -14.012   4.358  1.00  0.00     0.326 C 
HETATM    8  N   UNL     1      43.515 -14.837   4.741  1.00  0.00    -0.320 N 
HETATM    9  O   UNL     1      42.646 -12.897   3.886  1.00  0.00    -0.247 OA
HETATM   10  C   UNL     1      43.057 -15.962   5.531  1.00  0.00     0.144 C 
HETATM   11  H   UNL     1      44.481 -14.577   4.601  1.00  0.00     0.165 HD
HETATM   12  C   UNL     1      43.529 -17.288   4.964  1.00  0.00    -0.014 A 
HETATM   13  C   UNL     1      41.529 -15.747   5.392  1.00  0.00     0.261 C 
HETATM   14  C   UNL     1      43.465 -15.715   6.998  1.00  0.00     0.047 C 
HETATM   15  C   UNL     1      44.124 -18.267   5.789  1.00  0.00    -0.049 A 
HETATM   16  C   UNL     1      43.357 -17.580   3.598  1.00  0.00     0.011 A 
HETATM   17  C   UNL     1      44.574 -19.473   5.230  1.00  0.00     0.007 A 
HETATM   18  C   UNL     1      44.336 -18.038   7.266  1.00  0.00     0.039 C 
HETATM   19  C   UNL     1      44.409 -19.733   3.871  1.00  0.00     0.001 A 
HETATM   20  C   UNL     1      43.797 -18.788   3.057  1.00  0.00     0.001 A 
HETATM   21  C   UNL     1      43.392 -16.986   7.833  1.00  0.00     0.008 C 
HETATM   22  O   UNL     1      40.659 -16.403   5.954  1.00  0.00    -0.270 OA
ENDBRANCH   5   6
ENDBRANCH   1   5
BRANCH   2  23
HETATM   23  C   UNL     1      40.096 -10.419   5.938  1.00  0.00     0.050 A 
HETATM   24  C   UNL     1      40.930  -9.957   6.967  1.00  0.00     0.058 A 
HETATM   25  C   UNL     1      40.741  -8.656   7.484  1.00  0.00     0.019 A 
HETATM   26  C   UNL     1      39.714  -7.834   7.025  1.00  0.00     0.001 A 
HETATM   27  C   UNL     1      38.851  -8.306   6.049  1.00  0.00     0.002 A 
HETATM   28  C   UNL     1      39.037  -9.584   5.518  1.00  0.00     0.030 A 
BRANCH  24  29
HETATM   29  C   UNL     1      41.953 -10.740   7.703  1.00  0.00     0.254 C 
HETATM   30  N   UNL     1      42.369 -10.231   8.918  1.00  0.00    -0.351 N 
HETATM   31  H   UNL     1      41.805  -9.524   9.377  1.00  0.00     0.163 HD
HETATM   32  O   UNL     1      42.470 -11.713   7.161  1.00  0.00    -0.268 OA
BRANCH  30  33
HETATM   33  C   UNL     1      43.256 -11.024   9.733  1.00  0.00     0.187 C 
BRANCH  33  34
HETATM   34  C   UNL     1      43.008 -10.743  11.167  1.00  0.00     0.070 A 
HETATM   35  O   UNL     1      41.854 -11.237  11.701  1.00  0.00    -0.325 OA
HETATM   36  C   UNL     1      41.854 -10.920  13.020  1.00  0.00     0.142 A 
HETATM   37  C   UNL     1      42.988 -10.214  13.343  1.00  0.00     0.027 A 
HETATM   38  C   UNL     1      43.735 -10.098  12.147  1.00  0.00     0.036 A 
ENDBRANCH  33  34
ENDBRANCH  30  33
ENDBRANCH  24  29
ENDBRANCH   2  23
TORSDOF 6
ENDMDL
MODEL 7
REMARK VINA RESULT:      -8.5      4.386      8.621
REMARK  6 active torsions:
REMARK  status: ('A' for Active; 'I' for Inactive)
REMARK    1  A    between atoms: N_9  and  C_10 
REMARK    2  A    between atoms: C_10  and  C_11 
REMARK       I    between atoms: C_11  and  N_12 
REMARK    3  A    between atoms: N_12  and  C_13 
REMARK    4  A    between atoms: C_14  and  C_15 
REMARK       I    between atoms: C_15  and  N_16 
REMARK    5  A    between atoms: N_16  and  C_17 
REMARK    6  A    between atoms: C_17  and  C_18 
ROOT
HETATM    1  C   UNL     1      39.503 -14.768   2.546  1.00  0.00     0.240 C 
HETATM    2  N   UNL     1      39.333 -13.468   2.089  1.00  0.00    -0.325 N 
HETATM    3  O   UNL     1      39.145 -15.791   1.977  1.00  0.00    -0.271 OA
HETATM    4  H   UNL     1      39.535 -12.738   2.761  1.00  0.00     0.169 HD
ENDROOT
BRANCH   1   5
HETATM    5  C   UNL     1      40.241 -14.817   3.887  1.00  0.00     0.240 C 
BRANCH   5   6
HETATM    6  N   UNL     1      41.493 -15.528   3.783  1.00  0.00    -0.259 N 
HETATM    7  C   UNL     1      42.650 -14.951   3.359  1.00  0.00     0.326 C 
HETATM    8  N   UNL     1      43.682 -15.825   3.574  1.00  0.00    -0.320 N 
HETATM    9  O   UNL     1      42.784 -13.828   2.901  1.00  0.00    -0.247 OA
HETATM   10  C   UNL     1      43.293 -16.958   4.389  1.00  0.00     0.144 C 
HETATM   11  H   UNL     1      44.630 -15.596   3.309  1.00  0.00     0.165 HD
HETATM   12  C   UNL     1      43.628 -18.281   3.727  1.00  0.00    -0.014 A 
HETATM   13  C   UNL     1      41.770 -16.682   4.470  1.00  0.00     0.261 C 
HETATM   14  C   UNL     1      43.908 -16.773   5.792  1.00  0.00     0.047 C 
HETATM   15  C   UNL     1      44.290 -19.307   4.435  1.00  0.00    -0.049 A 
HETATM   16  C   UNL     1      43.258 -18.523   2.391  1.00  0.00     0.011 A 
HETATM   17  C   UNL     1      44.609 -20.510   3.786  1.00  0.00     0.007 A 
HETATM   18  C   UNL     1      44.712 -19.134   5.874  1.00  0.00     0.039 C 
HETATM   19  C   UNL     1      44.249 -20.720   2.457  1.00  0.00     0.001 A 
HETATM   20  C   UNL     1      43.569 -19.728   1.761  1.00  0.00     0.001 A 
HETATM   21  C   UNL     1      43.899 -18.067   6.595  1.00  0.00     0.008 C 
HETATM   22  O   UNL     1      40.960 -17.324   5.129  1.00  0.00    -0.270 OA
ENDBRANCH   5   6
ENDBRANCH   1   5
BRANCH   2  23
HETATM   23  C   UNL     1      38.745 -13.014   0.886  1.00  0.00     0.050 A 
HETATM   24  C   UNL     1      39.350 -12.845  -0.369  1.00  0.00     0.058 A 
HETATM   25  C   UNL     1      38.559 -12.466  -1.476  1.00  0.00     0.019 A 
HETATM   26  C   UNL     1      37.196 -12.212  -1.342  1.00  0.00     0.001 A 
HETATM   27  C   UNL     1      36.603 -12.321  -0.094  1.00  0.00     0.002 A 
HETATM   28  C   UNL     1      37.371 -12.711   1.006  1.00  0.00     0.030 A 
BRANCH  24  29
HETATM   29  C   UNL     1      40.801 -12.895  -0.671  1.00  0.00     0.254 C 
HETATM   30  N   UNL     1      41.238 -12.138  -1.740  1.00  0.00    -0.351 N 
HETATM   31  H   UNL     1      40.642 -11.401  -2.101  1.00  0.00     0.163 HD
HETATM   32  O   UNL     1      41.516 -13.683  -0.059  1.00  0.00    -0.268 OA
BRANCH  30  33
HETATM   33  C   UNL     1      42.656 -12.044  -1.988  1.00  0.00     0.187 C 
BRANCH  33  34
HETATM   34  C   UNL     1      43.097 -10.634  -1.858  1.00  0.00     0.070 A 
HETATM   35  O   UNL     1      43.971 -10.352  -0.850  1.00  0.00    -0.325 OA
HETATM   36  C   UNL     1      44.286  -9.036  -0.948  1.00  0.00     0.142 A 
HETATM   37  C   UNL     1      43.614  -8.460  -2.000  1.00  0.00     0.027 A 
HETATM   38  C   UNL     1      42.845  -9.491  -2.589  1.00  0.00     0.036 A 
ENDBRANCH  33  34
ENDBRANCH  30  33
ENDBRANCH  24  29
ENDBRANCH   2  23
TORSDOF 6
ENDMDL
MODEL 8
REMARK VINA RESULT:      -8.4      4.177      6.531
REMARK  6 active torsions:
REMARK  status: ('A' for Active; 'I' for Inactive)
REMARK    1  A    between atoms: N_9  and  C_10 
REMARK    2  A    between atoms: C_10  and  C_11 
REMARK       I    between atoms: C_11  and  N_12 
REMARK    3  A    between atoms: N_12  and  C_13 
REMARK    4  A    between atoms: C_14  and  C_15 
REMARK       I    between atoms: C_15  and  N_16 
REMARK    5  A    between atoms: N_16  and  C_17 
REMARK    6  A    between atoms: C_17  and  C_18 
ROOT
HETATM    1  C   UNL     1      40.517 -15.309   3.571  1.00  0.00     0.240 C 
HETATM    2  N   UNL     1      41.806 -15.759   3.820  1.00  0.00    -0.325 N 
HETATM    3  O   UNL     1      39.865 -14.545   4.271  1.00  0.00    -0.271 OA
HETATM    4  H   UNL     1      42.127 -16.515   3.229  1.00  0.00     0.169 HD
ENDROOT
BRANCH   1   5
HETATM    5  C   UNL     1      39.957 -15.861   2.256  1.00  0.00     0.240 C 
BRANCH   5   6
HETATM    6  N   UNL     1      40.643 -15.313   1.111  1.00  0.00    -0.259 N 
HETATM    7  C   UNL     1      41.749 -15.879   0.558  1.00  0.00     0.326 C 
HETATM    8  N   UNL     1      42.026 -15.243  -0.623  1.00  0.00    -0.320 N 
HETATM    9  O   UNL     1      42.384 -16.825   0.995  1.00  0.00    -0.247 OA
HETATM   10  C   UNL     1      40.956 -14.361  -1.045  1.00  0.00     0.144 C 
HETATM   11  H   UNL     1      42.825 -15.500  -1.185  1.00  0.00     0.165 HD
HETATM   12  C   UNL     1      41.451 -12.954  -1.324  1.00  0.00    -0.014 A 
HETATM   13  C   UNL     1      40.057 -14.456   0.214  1.00  0.00     0.261 C 
HETATM   14  C   UNL     1      40.226 -15.026  -2.231  1.00  0.00     0.047 C 
HETATM   15  C   UNL     1      41.095 -12.274  -2.508  1.00  0.00    -0.049 A 
HETATM   16  C   UNL     1      42.261 -12.286  -0.386  1.00  0.00     0.011 A 
HETATM   17  C   UNL     1      41.591 -10.983  -2.748  1.00  0.00     0.007 A 
HETATM   18  C   UNL     1      40.222 -12.914  -3.559  1.00  0.00     0.039 C 
HETATM   19  C   UNL     1      42.405 -10.348  -1.813  1.00  0.00     0.001 A 
HETATM   20  C   UNL     1      42.736 -10.998  -0.631  1.00  0.00     0.001 A 
HETATM   21  C   UNL     1      39.359 -14.036  -2.996  1.00  0.00     0.008 C 
HETATM   22  O   UNL     1      38.953 -13.940   0.345  1.00  0.00    -0.270 OA
ENDBRANCH   5   6
ENDBRANCH   1   5
BRANCH   2  23
HETATM   23  C   UNL     1      42.669 -15.445   4.895  1.00  0.00     0.050 A 
HETATM   24  C   UNL     1      43.478 -16.314   5.644  1.00  0.00     0.058 A 
HETATM   25  C   UNL     1      44.346 -15.785   6.624  1.00  0.00     0.019 A 
HETATM   26  C   UNL     1      44.387 -14.419   6.896  1.00  0.00     0.001 A 
HETATM   27  C   UNL     1      43.549 -13.562   6.201  1.00  0.00     0.002 A 
HETATM   28  C   UNL     1      42.698 -14.071   5.217  1.00  0.00     0.030 A 
BRANCH  24  29
HETATM   29  C   UNL     1      43.446 -17.797   5.625  1.00  0.00     0.254 C 
HETATM   30  N   UNL     1      44.533 -18.434   5.060  1.00  0.00    -0.351 N 
HETATM   31  H   UNL     1      45.395 -17.916   4.926  1.00  0.00     0.163 HD
HETATM   32  O   UNL     1      42.428 -18.381   5.984  1.00  0.00    -0.268 OA
BRANCH  30  33
HETATM   33  C   UNL     1      44.614 -19.871   5.141  1.00  0.00     0.187 C 
BRANCH  33  34
HETATM   34  C   UNL     1      44.312 -20.469   3.818  1.00  0.00     0.070 A 
HETATM   35  O   UNL     1      43.632 -19.688   2.931  1.00  0.00    -0.325 OA
HETATM   36  C   UNL     1      43.515 -20.398   1.780  1.00  0.00     0.142 A 
HETATM   37  C   UNL     1      44.099 -21.634   1.918  1.00  0.00     0.027 A 
HETATM   38  C   UNL     1      44.615 -21.682   3.235  1.00  0.00     0.036 A 
ENDBRANCH  33  34
ENDBRANCH  30  33
ENDBRANCH  24  29
ENDBRANCH   2  23
TORSDOF 6
ENDMDL
MODEL 9
REMARK VINA RESULT:      -8.4      3.719      7.476
REMARK  6 active torsions:
REMARK  status: ('A' for Active; 'I' for Inactive)
REMARK    1  A    between atoms: N_9  and  C_10 
REMARK    2  A    between atoms: C_10  and  C_11 
REMARK       I    between atoms: C_11  and  N_12 
REMARK    3  A    between atoms: N_12  and  C_13 
REMARK    4  A    between atoms: C_14  and  C_15 
REMARK       I    between atoms: C_15  and  N_16 
REMARK    5  A    between atoms: N_16  and  C_17 
REMARK    6  A    between atoms: C_17  and  C_18 
ROOT
HETATM    1  C   UNL     1      41.658 -15.457   5.079  1.00  0.00     0.240 C 
HETATM    2  N   UNL     1      42.524 -15.736   4.032  1.00  0.00    -0.325 N 
HETATM    3  O   UNL     1      41.008 -16.270   5.723  1.00  0.00    -0.271 OA
HETATM    4  H   UNL     1      42.846 -14.934   3.504  1.00  0.00     0.169 HD
ENDROOT
BRANCH   1   5
HETATM    5  C   UNL     1      41.599 -13.959   5.396  1.00  0.00     0.240 C 
BRANCH   5   6
HETATM    6  N   UNL     1      40.640 -13.273   4.564  1.00  0.00    -0.259 N 
HETATM    7  C   UNL     1      39.487 -12.729   5.040  1.00  0.00     0.326 C 
HETATM    8  N   UNL     1      38.912 -11.979   4.050  1.00  0.00    -0.320 N 
HETATM    9  O   UNL     1      39.039 -12.837   6.170  1.00  0.00    -0.247 OA
HETATM   10  C   UNL     1      39.792 -11.785   2.915  1.00  0.00     0.144 C 
HETATM   11  H   UNL     1      38.032 -11.504   4.193  1.00  0.00     0.165 HD
HETATM   12  C   UNL     1      39.140 -12.198   1.609  1.00  0.00    -0.014 A 
HETATM   13  C   UNL     1      40.948 -12.724   3.345  1.00  0.00     0.261 C 
HETATM   14  C   UNL     1      40.297 -10.327   2.943  1.00  0.00     0.047 C 
HETATM   15  C   UNL     1      39.176 -11.357   0.475  1.00  0.00    -0.049 A 
HETATM   16  C   UNL     1      38.504 -13.448   1.494  1.00  0.00     0.011 A 
HETATM   17  C   UNL     1      38.541 -11.757  -0.711  1.00  0.00     0.007 A 
HETATM   18  C   UNL     1      39.847 -10.006   0.510  1.00  0.00     0.039 C 
HETATM   19  C   UNL     1      37.902 -12.991  -0.796  1.00  0.00     0.001 A 
HETATM   20  C   UNL     1      37.888 -13.839   0.305  1.00  0.00     0.001 A 
HETATM   21  C   UNL     1      40.897  -9.905   1.609  1.00  0.00     0.008 C 
HETATM   22  O   UNL     1      42.011 -12.869   2.752  1.00  0.00    -0.270 OA
ENDBRANCH   5   6
ENDBRANCH   1   5
BRANCH   2  23
HETATM   23  C   UNL     1      42.880 -16.987   3.477  1.00  0.00     0.050 A 
HETATM   24  C   UNL     1      42.532 -17.513   2.224  1.00  0.00     0.058 A 
HETATM   25  C   UNL     1      43.072 -18.753   1.817  1.00  0.00     0.019 A 
HETATM   26  C   UNL     1      43.909 -19.490   2.651  1.00  0.00     0.001 A 
HETATM   27  C   UNL     1      44.211 -19.004   3.913  1.00  0.00     0.002 A 
HETATM   28  C   UNL     1      43.697 -17.771   4.322  1.00  0.00     0.030 A 
BRANCH  24  29
HETATM   29  C   UNL     1      41.527 -16.970   1.278  1.00  0.00     0.254 C 
HETATM   30  N   UNL     1      42.011 -16.389   0.123  1.00  0.00    -0.351 N 
HETATM   31  H   UNL     1      42.966 -16.578  -0.163  1.00  0.00     0.163 HD
HETATM   32  O   UNL     1      40.344 -16.942   1.609  1.00  0.00    -0.268 OA
BRANCH  30  33
HETATM   33  C   UNL     1      41.072 -15.972  -0.889  1.00  0.00     0.187 C 
BRANCH  33  34
HETATM   34  C   UNL     1      41.367 -14.580  -1.307  1.00  0.00     0.070 A 
HETATM   35  O   UNL     1      41.928 -13.762  -0.371  1.00  0.00    -0.325 OA
HETATM   36  C   UNL     1      42.167 -12.569  -0.973  1.00  0.00     0.142 A 
HETATM   37  C   UNL     1      41.754 -12.603  -2.283  1.00  0.00     0.027 A 
HETATM   38  C   UNL     1      41.236 -13.901  -2.501  1.00  0.00     0.036 A 
ENDBRANCH  33  34
ENDBRANCH  30  33
ENDBRANCH  24  29
ENDBRANCH   2  23
TORSDOF 6
ENDMDL
MODEL 10
REMARK VINA RESULT:      -8.4      3.089      7.461
REMARK  6 active torsions:
REMARK  status: ('A' for Active; 'I' for Inactive)
REMARK    1  A    between atoms: N_9  and  C_10 
REMARK    2  A    between atoms: C_10  and  C_11 
REMARK       I    between atoms: C_11  and  N_12 
REMARK    3  A    between atoms: N_12  and  C_13 
REMARK    4  A    between atoms: C_14  and  C_15 
REMARK       I    between atoms: C_15  and  N_16 
REMARK    5  A    between atoms: N_16  and  C_17 
REMARK    6  A    between atoms: C_17  and  C_18 
ROOT
HETATM    1  C   UNL     1      40.424 -15.945   1.168  1.00  0.00     0.240 C 
HETATM    2  N   UNL     1      39.305 -15.470   1.836  1.00  0.00    -0.325 N 
HETATM    3  O   UNL     1      41.105 -15.329   0.359  1.00  0.00    -0.271 OA
HETATM    4  H   UNL     1      38.766 -16.166   2.338  1.00  0.00     0.169 HD
ENDROOT
BRANCH   1   5
HETATM    5  C   UNL     1      40.772 -17.382   1.573  1.00  0.00     0.240 C 
BRANCH   5   6
HETATM    6  N   UNL     1      41.883 -17.424   2.493  1.00  0.00    -0.259 N 
HETATM    7  C   UNL     1      43.184 -17.474   2.097  1.00  0.00     0.326 C 
HETATM    8  N   UNL     1      43.985 -17.292   3.192  1.00  0.00    -0.320 N 
HETATM    9  O   UNL     1      43.597 -17.611   0.957  1.00  0.00    -0.247 OA
HETATM   10  C   UNL     1      43.243 -16.865   4.361  1.00  0.00     0.144 C 
HETATM   11  H   UNL     1      44.992 -17.315   3.117  1.00  0.00     0.165 HD
HETATM   12  C   UNL     1      43.501 -17.756   5.561  1.00  0.00    -0.014 A 
HETATM   13  C   UNL     1      41.806 -17.001   3.795  1.00  0.00     0.261 C 
HETATM   14  C   UNL     1      43.545 -15.371   4.600  1.00  0.00     0.047 C 
HETATM   15  C   UNL     1      43.811 -17.211   6.825  1.00  0.00    -0.049 A 
HETATM   16  C   UNL     1      43.411 -19.156   5.441  1.00  0.00     0.011 A 
HETATM   17  C   UNL     1      44.071 -18.064   7.909  1.00  0.00     0.007 A 
HETATM   18  C   UNL     1      43.918 -15.722   7.042  1.00  0.00     0.039 C 
HETATM   19  C   UNL     1      43.993 -19.447   7.762  1.00  0.00     0.001 A 
HETATM   20  C   UNL     1      43.658 -19.992   6.529  1.00  0.00     0.001 A 
HETATM   21  C   UNL     1      43.145 -14.924   6.000  1.00  0.00     0.008 C 
HETATM   22  O   UNL     1      40.775 -16.679   4.375  1.00  0.00    -0.270 OA
ENDBRANCH   5   6
ENDBRANCH   1   5
BRANCH   2  23
HETATM   23  C   UNL     1      38.700 -14.194   1.770  1.00  0.00     0.050 A 
HETATM   24  C   UNL     1      38.962 -13.065   2.561  1.00  0.00     0.058 A 
HETATM   25  C   UNL     1      38.309 -11.846   2.271  1.00  0.00     0.019 A 
HETATM   26  C   UNL     1      37.375 -11.750   1.241  1.00  0.00     0.001 A 
HETATM   27  C   UNL     1      37.070 -12.875   0.493  1.00  0.00     0.002 A 
HETATM   28  C   UNL     1      37.720 -14.082   0.759  1.00  0.00     0.030 A 
BRANCH  24  29
HETATM   29  C   UNL     1      39.779 -13.015   3.798  1.00  0.00     0.254 C 
HETATM   30  N   UNL     1      39.179 -12.473   4.917  1.00  0.00    -0.351 N 
HETATM   31  H   UNL     1      38.169 -12.378   4.940  1.00  0.00     0.163 HD
HETATM   32  O   UNL     1      40.965 -13.329   3.747  1.00  0.00    -0.268 OA
BRANCH  30  33
HETATM   33  C   UNL     1      39.882 -12.529   6.176  1.00  0.00     0.187 C 
BRANCH  33  34
HETATM   34  C   UNL     1      40.137 -11.155   6.671  1.00  0.00     0.070 A 
HETATM   35  O   UNL     1      39.098 -10.518   7.284  1.00  0.00    -0.325 OA
HETATM   36  C   UNL     1      39.559  -9.314   7.707  1.00  0.00     0.142 A 
HETATM   37  C   UNL     1      40.880  -9.159   7.362  1.00  0.00     0.027 A 
HETATM   38  C   UNL     1      41.256 -10.348   6.692  1.00  0.00     0.036 A 
ENDBRANCH  33  34
ENDBRANCH  30  33
ENDBRANCH  24  29
ENDBRANCH   2  23
TORSDOF 6
ENDMDL
