MODEL 1
REMARK VINA RESULT:      -9.2      0.000      0.000
REMARK  3 active torsions:
REMARK  status: ('A' for Active; 'I' for Inactive)
REMARK    1  A    between atoms: C_2  and  C_3 
REMARK    2  A    between atoms: C_6  and  N_7 
REMARK    3  A    between atoms: C_14  and  C_15 
REMARK       I    between atoms: C_15  and  N_16 
ROOT
HETATM    1  N   UNL     1      40.974 -14.955   1.696  1.00  0.00    -0.252 N 
HETATM    2  C   UNL     1      42.270 -14.572   1.977  1.00  0.00     0.238 C 
HETATM    3  O   UNL     1      42.813 -13.480   1.895  1.00  0.00    -0.272 OA
HETATM    4  C   UNL     1      42.988 -15.715   2.633  1.00  0.00     0.135 C 
HETATM    5  C   UNL     1      42.120 -16.894   2.276  1.00  0.00     0.130 C 
HETATM    6  C   UNL     1      40.776 -16.271   2.062  1.00  0.00     0.238 C 
HETATM    7  O   UNL     1      39.751 -16.915   2.213  1.00  0.00    -0.272 OA
HETATM    8  C   UNL     1      43.011 -15.622   4.153  1.00  0.00     0.298 C 
HETATM    9  N   UNL     1      42.400 -16.958   4.640  1.00  0.00    -0.028 N 
HETATM   10  H   UNL     1      41.463 -16.693   5.018  1.00  0.00     0.287 HD
HETATM   11  C   UNL     1      42.139 -17.868   3.449  1.00  0.00     0.242 C 
HETATM   12  C   UNL     1      43.141 -17.512   5.731  1.00  0.00     0.203 C 
HETATM   13  C   UNL     1      43.931 -18.575   5.561  1.00  0.00     0.037 C 
HETATM   14  C   UNL     1      44.028 -19.297   4.299  1.00  0.00    -0.026 A 
HETATM   15  C   UNL     1      43.148 -18.978   3.257  1.00  0.00    -0.016 A 
HETATM   16  C   UNL     1      44.938 -20.351   4.155  1.00  0.00     0.012 A 
HETATM   17  C   UNL     1      44.964 -21.101   2.981  1.00  0.00     0.001 A 
HETATM   18  C   UNL     1      44.070 -20.817   1.955  1.00  0.00     0.001 A 
HETATM   19  C   UNL     1      43.159 -19.769   2.094  1.00  0.00     0.010 A 
ENDROOT
BRANCH   1  20
HETATM   20  C   UNL     1      39.955 -14.085   1.186  1.00  0.00     0.045 A 
HETATM   21  C   UNL     1      39.728 -13.943  -0.195  1.00  0.00     0.031 A 
HETATM   22  C   UNL     1      38.705 -13.120  -0.698  1.00  0.00     0.017 A 
HETATM   23  C   UNL     1      37.881 -12.413   0.175  1.00  0.00     0.009 A 
HETATM   24  C   UNL     1      38.101 -12.524   1.547  1.00  0.00     0.017 A 
HETATM   25  C   UNL     1      39.115 -13.355   2.042  1.00  0.00     0.031 A 
BRANCH  23  26
HETATM   26  C   UNL     1      36.775 -11.535  -0.296  1.00  0.00     0.155 C 
HETATM   27  C   UNL     1      35.681 -11.153   0.665  1.00  0.00     0.096 C 
HETATM   28  O   UNL     1      36.776 -11.141  -1.460  1.00  0.00    -0.293 OA
ENDBRANCH  23  26
ENDBRANCH   1  20
BRANCH   8  29
HETATM   29  C   UNL     1      42.192 -14.483   4.790  1.00  0.00     0.248 C 
HETATM   30  N   UNL     1      42.781 -13.280   4.988  1.00  0.00    -0.368 N 
HETATM   31  H   UNL     1      43.546 -12.943   4.403  1.00  0.00     0.159 HD
HETATM   32  H   UNL     1      42.188 -12.536   5.352  1.00  0.00     0.159 HD
HETATM   33  O   UNL     1      41.026 -14.705   5.119  1.00  0.00    -0.271 OA
ENDBRANCH   8  29
TORSDOF 3
ENDMDL
MODEL 2
REMARK VINA RESULT:      -8.9      2.498      8.069
REMARK  3 active torsions:
REMARK  status: ('A' for Active; 'I' for Inactive)
REMARK    1  A    between atoms: C_2  and  C_3 
REMARK    2  A    between atoms: C_6  and  N_7 
REMARK    3  A    between atoms: C_14  and  C_15 
REMARK       I    between atoms: C_15  and  N_16 
ROOT
HETATM    1  N   UNL     1      42.639 -16.747   3.451  1.00  0.00    -0.252 N 
HETATM    2  C   UNL     1      43.155 -15.652   2.788  1.00  0.00     0.238 C 
HETATM    3  O   UNL     1      44.083 -15.566   1.996  1.00  0.00    -0.272 OA
HETATM    4  C   UNL     1      42.262 -14.469   3.023  1.00  0.00     0.135 C 
HETATM    5  C   UNL     1      41.469 -14.895   4.231  1.00  0.00     0.130 C 
HETATM    6  C   UNL     1      41.503 -16.389   4.149  1.00  0.00     0.238 C 
HETATM    7  O   UNL     1      40.625 -17.069   4.653  1.00  0.00    -0.272 OA
HETATM    8  C   UNL     1      41.266 -14.231   1.896  1.00  0.00     0.298 C 
HETATM    9  N   UNL     1      39.881 -14.224   2.589  1.00  0.00    -0.028 N 
HETATM   10  H   UNL     1      39.434 -15.116   2.283  1.00  0.00     0.287 HD
HETATM   11  C   UNL     1      40.060 -14.329   4.096  1.00  0.00     0.242 C 
HETATM   12  C   UNL     1      39.053 -13.163   2.104  1.00  0.00     0.203 C 
HETATM   13  C   UNL     1      38.813 -12.079   2.847  1.00  0.00     0.037 C 
HETATM   14  C   UNL     1      39.288 -11.936   4.217  1.00  0.00    -0.026 A 
HETATM   15  C   UNL     1      39.887 -13.031   4.853  1.00  0.00    -0.016 A 
HETATM   16  C   UNL     1      39.079 -10.742   4.917  1.00  0.00     0.012 A 
HETATM   17  C   UNL     1      39.450 -10.639   6.256  1.00  0.00     0.001 A 
HETATM   18  C   UNL     1      40.011 -11.732   6.908  1.00  0.00     0.001 A 
HETATM   19  C   UNL     1      40.219 -12.925   6.215  1.00  0.00     0.010 A 
ENDROOT
BRANCH   1  20
HETATM   20  C   UNL     1      43.151 -18.082   3.351  1.00  0.00     0.045 A 
HETATM   21  C   UNL     1      43.923 -18.655   4.378  1.00  0.00     0.031 A 
HETATM   22  C   UNL     1      44.396 -19.977   4.302  1.00  0.00     0.017 A 
HETATM   23  C   UNL     1      44.108 -20.762   3.187  1.00  0.00     0.009 A 
HETATM   24  C   UNL     1      43.360 -20.207   2.149  1.00  0.00     0.017 A 
HETATM   25  C   UNL     1      42.882 -18.892   2.237  1.00  0.00     0.031 A 
BRANCH  23  26
HETATM   26  C   UNL     1      44.570 -22.171   3.052  1.00  0.00     0.155 C 
HETATM   27  C   UNL     1      44.807 -22.987   4.295  1.00  0.00     0.096 C 
HETATM   28  O   UNL     1      44.750 -22.638   1.930  1.00  0.00    -0.293 OA
ENDBRANCH  23  26
ENDBRANCH   1  20
BRANCH   8  29
HETATM   29  C   UNL     1      41.216 -15.291   0.779  1.00  0.00     0.248 C 
HETATM   30  N   UNL     1      41.986 -15.124  -0.322  1.00  0.00    -0.368 N 
HETATM   31  H   UNL     1      42.866 -14.609  -0.300  1.00  0.00     0.159 HD
HETATM   32  H   UNL     1      41.972 -15.878  -1.006  1.00  0.00     0.159 HD
HETATM   33  O   UNL     1      40.460 -16.255   0.912  1.00  0.00    -0.271 OA
ENDBRANCH   8  29
TORSDOF 3
ENDMDL
MODEL 3
REMARK VINA RESULT:      -8.7      2.366      3.659
REMARK  3 active torsions:
REMARK  status: ('A' for Active; 'I' for Inactive)
REMARK    1  A    between atoms: C_2  and  C_3 
REMARK    2  A    between atoms: C_6  and  N_7 
REMARK    3  A    between atoms: C_14  and  C_15 
REMARK       I    between atoms: C_15  and  N_16 
ROOT
HETATM    1  N   UNL     1      40.428 -14.423   3.378  1.00  0.00    -0.252 N 
HETATM    2  C   UNL     1      39.868 -15.494   2.709  1.00  0.00     0.238 C 
HETATM    3  O   UNL     1      38.828 -15.578   2.073  1.00  0.00    -0.272 OA
HETATM    4  C   UNL     1      40.850 -16.628   2.688  1.00  0.00     0.135 C 
HETATM    5  C   UNL     1      41.809 -16.249   3.787  1.00  0.00     0.130 C 
HETATM    6  C   UNL     1      41.681 -14.759   3.849  1.00  0.00     0.238 C 
HETATM    7  O   UNL     1      42.593 -14.064   4.264  1.00  0.00    -0.272 OA
HETATM    8  C   UNL     1      41.657 -16.705   1.399  1.00  0.00     0.298 C 
HETATM    9  N   UNL     1      43.135 -16.674   1.855  1.00  0.00    -0.028 N 
HETATM   10  H   UNL     1      43.477 -15.731   1.564  1.00  0.00     0.287 HD
HETATM   11  C   UNL     1      43.205 -16.704   3.374  1.00  0.00     0.242 C 
HETATM   12  C   UNL     1      43.927 -17.633   1.148  1.00  0.00     0.203 C 
HETATM   13  C   UNL     1      44.346 -18.754   1.740  1.00  0.00     0.037 C 
HETATM   14  C   UNL     1      44.114 -19.041   3.150  1.00  0.00    -0.026 A 
HETATM   15  C   UNL     1      43.571 -18.044   3.972  1.00  0.00    -0.016 A 
HETATM   16  C   UNL     1      44.500 -20.271   3.695  1.00  0.00     0.012 A 
HETATM   17  C   UNL     1      44.364 -20.508   5.061  1.00  0.00     0.001 A 
HETATM   18  C   UNL     1      43.862 -19.513   5.892  1.00  0.00     0.001 A 
HETATM   19  C   UNL     1      43.477 -18.284   5.354  1.00  0.00     0.010 A 
ENDROOT
BRANCH   1  20
HETATM   20  C   UNL     1      39.835 -13.123   3.485  1.00  0.00     0.045 A 
HETATM   21  C   UNL     1      39.683 -12.286   2.365  1.00  0.00     0.031 A 
HETATM   22  C   UNL     1      39.068 -11.025   2.459  1.00  0.00     0.017 A 
HETATM   23  C   UNL     1      38.589 -10.567   3.685  1.00  0.00     0.009 A 
HETATM   24  C   UNL     1      38.747 -11.373   4.812  1.00  0.00     0.017 A 
HETATM   25  C   UNL     1      39.351 -12.634   4.709  1.00  0.00     0.031 A 
BRANCH  23  26
HETATM   26  C   UNL     1      37.920  -9.247   3.846  1.00  0.00     0.155 C 
HETATM   27  C   UNL     1      38.278  -8.123   2.911  1.00  0.00     0.096 C 
HETATM   28  O   UNL     1      37.089  -9.102   4.739  1.00  0.00    -0.293 OA
ENDBRANCH  23  26
ENDBRANCH   1  20
BRANCH   8  29
HETATM   29  C   UNL     1      41.462 -15.556   0.390  1.00  0.00     0.248 C 
HETATM   30  N   UNL     1      40.596 -15.722  -0.637  1.00  0.00    -0.368 N 
HETATM   31  H   UNL     1      39.787 -16.340  -0.576  1.00  0.00     0.159 HD
HETATM   32  H   UNL     1      40.449 -14.917  -1.244  1.00  0.00     0.159 HD
HETATM   33  O   UNL     1      42.117 -14.523   0.537  1.00  0.00    -0.271 OA
ENDBRANCH   8  29
TORSDOF 3
ENDMDL
MODEL 4
REMARK VINA RESULT:      -8.6      3.167      5.070
REMARK  3 active torsions:
REMARK  status: ('A' for Active; 'I' for Inactive)
REMARK    1  A    between atoms: C_2  and  C_3 
REMARK    2  A    between atoms: C_6  and  N_7 
REMARK    3  A    between atoms: C_14  and  C_15 
REMARK       I    between atoms: C_15  and  N_16 
ROOT
HETATM    1  N   UNL     1      41.779 -13.575   4.865  1.00  0.00    -0.252 N 
HETATM    2  C   UNL     1      40.731 -14.396   4.497  1.00  0.00     0.238 C 
HETATM    3  O   UNL     1      39.528 -14.183   4.466  1.00  0.00    -0.272 OA
HETATM    4  C   UNL     1      41.282 -15.661   3.907  1.00  0.00     0.135 C 
HETATM    5  C   UNL     1      42.706 -15.656   4.397  1.00  0.00     0.130 C 
HETATM    6  C   UNL     1      42.984 -14.202   4.618  1.00  0.00     0.238 C 
HETATM    7  O   UNL     1      44.120 -13.762   4.565  1.00  0.00    -0.272 OA
HETATM    8  C   UNL     1      41.333 -15.645   2.385  1.00  0.00     0.298 C 
HETATM    9  N   UNL     1      42.809 -15.953   2.037  1.00  0.00    -0.028 N 
HETATM   10  H   UNL     1      43.186 -15.047   1.680  1.00  0.00     0.287 HD
HETATM   11  C   UNL     1      43.583 -16.266   3.309  1.00  0.00     0.242 C 
HETATM   12  C   UNL     1      42.914 -16.893   0.964  1.00  0.00     0.203 C 
HETATM   13  C   UNL     1      43.282 -18.157   1.187  1.00  0.00     0.037 C 
HETATM   14  C   UNL     1      43.687 -18.646   2.498  1.00  0.00    -0.026 A 
HETATM   15  C   UNL     1      43.856 -17.734   3.548  1.00  0.00    -0.016 A 
HETATM   16  C   UNL     1      43.979 -20.002   2.688  1.00  0.00     0.012 A 
HETATM   17  C   UNL     1      44.456 -20.452   3.918  1.00  0.00     0.001 A 
HETATM   18  C   UNL     1      44.664 -19.549   4.955  1.00  0.00     0.001 A 
HETATM   19  C   UNL     1      44.377 -18.196   4.770  1.00  0.00     0.010 A 
ENDROOT
BRANCH   1  20
HETATM   20  C   UNL     1      41.639 -12.232   5.345  1.00  0.00     0.045 A 
HETATM   21  C   UNL     1      41.780 -11.917   6.709  1.00  0.00     0.031 A 
HETATM   22  C   UNL     1      41.681 -10.595   7.179  1.00  0.00     0.017 A 
HETATM   23  C   UNL     1      41.433  -9.551   6.290  1.00  0.00     0.009 A 
HETATM   24  C   UNL     1      41.270  -9.844   4.937  1.00  0.00     0.017 A 
HETATM   25  C   UNL     1      41.382 -11.162   4.473  1.00  0.00     0.031 A 
BRANCH  23  26
HETATM   26  C   UNL     1      41.329  -8.131   6.725  1.00  0.00     0.155 C 
HETATM   27  C   UNL     1      40.260  -7.743   7.711  1.00  0.00     0.096 C 
HETATM   28  O   UNL     1      42.116  -7.305   6.269  1.00  0.00    -0.293 OA
ENDBRANCH  23  26
ENDBRANCH   1  20
BRANCH   8  29
HETATM   29  C   UNL     1      40.964 -14.319   1.693  1.00  0.00     0.248 C 
HETATM   30  N   UNL     1      39.672 -14.088   1.359  1.00  0.00    -0.368 N 
HETATM   31  H   UNL     1      38.893 -14.500   1.872  1.00  0.00     0.159 HD
HETATM   32  H   UNL     1      39.461 -13.174   0.962  1.00  0.00     0.159 HD
HETATM   33  O   UNL     1      41.861 -13.512   1.446  1.00  0.00    -0.271 OA
ENDBRANCH   8  29
TORSDOF 3
ENDMDL
MODEL 5
REMARK VINA RESULT:      -8.5      3.299      8.328
REMARK  3 active torsions:
REMARK  status: ('A' for Active; 'I' for Inactive)
REMARK    1  A    between atoms: C_2  and  C_3 
REMARK    2  A    between atoms: C_6  and  N_7 
REMARK    3  A    between atoms: C_14  and  C_15 
REMARK       I    between atoms: C_15  and  N_16 
ROOT
HETATM    1  N   UNL     1      42.396 -14.951   4.688  1.00  0.00    -0.252 N 
HETATM    2  C   UNL     1      42.985 -13.801   4.201  1.00  0.00     0.238 C 
HETATM    3  O   UNL     1      43.973 -13.651   3.496  1.00  0.00    -0.272 OA
HETATM    4  C   UNL     1      42.101 -12.629   4.508  1.00  0.00     0.135 C 
HETATM    5  C   UNL     1      41.208 -13.169   5.594  1.00  0.00     0.130 C 
HETATM    6  C   UNL     1      41.218 -14.644   5.338  1.00  0.00     0.238 C 
HETATM    7  O   UNL     1      40.289 -15.351   5.690  1.00  0.00    -0.272 OA
HETATM    8  C   UNL     1      41.200 -12.230   3.346  1.00  0.00     0.298 C 
HETATM    9  N   UNL     1      39.767 -12.264   3.929  1.00  0.00    -0.028 N 
HETATM   10  H   UNL     1      39.325 -13.101   3.487  1.00  0.00     0.287 HD
HETATM   11  C   UNL     1      39.825 -12.550   5.422  1.00  0.00     0.242 C 
HETATM   12  C   UNL     1      39.000 -11.129   3.513  1.00  0.00     0.203 C 
HETATM   13  C   UNL     1      38.726 -10.134   4.360  1.00  0.00     0.037 C 
HETATM   14  C   UNL     1      39.096 -10.166   5.769  1.00  0.00    -0.026 A 
HETATM   15  C   UNL     1      39.621 -11.345   6.313  1.00  0.00    -0.016 A 
HETATM   16  C   UNL     1      38.858  -9.056   6.588  1.00  0.00     0.012 A 
HETATM   17  C   UNL     1      39.125  -9.121   7.955  1.00  0.00     0.001 A 
HETATM   18  C   UNL     1      39.612 -10.299   8.512  1.00  0.00     0.001 A 
HETATM   19  C   UNL     1      39.848 -11.409   7.699  1.00  0.00     0.010 A 
ENDROOT
BRANCH   1  20
HETATM   20  C   UNL     1      42.887 -16.279   4.469  1.00  0.00     0.045 A 
HETATM   21  C   UNL     1      42.699 -16.944   3.244  1.00  0.00     0.031 A 
HETATM   22  C   UNL     1      43.211 -18.233   3.012  1.00  0.00     0.017 A 
HETATM   23  C   UNL     1      43.927 -18.893   4.009  1.00  0.00     0.009 A 
HETATM   24  C   UNL     1      44.108 -18.261   5.238  1.00  0.00     0.017 A 
HETATM   25  C   UNL     1      43.605 -16.971   5.458  1.00  0.00     0.031 A 
BRANCH  23  26
HETATM   26  C   UNL     1      44.503 -20.253   3.820  1.00  0.00     0.155 C 
HETATM   27  C   UNL     1      44.346 -20.938   2.489  1.00  0.00     0.096 C 
HETATM   28  O   UNL     1      45.095 -20.788   4.755  1.00  0.00    -0.293 OA
ENDBRANCH  23  26
ENDBRANCH   1  20
BRANCH   8  29
HETATM   29  C   UNL     1      41.215 -13.151   2.110  1.00  0.00     0.248 C 
HETATM   30  N   UNL     1      42.096 -12.899   1.113  1.00  0.00    -0.368 N 
HETATM   31  H   UNL     1      42.990 -12.437   1.277  1.00  0.00     0.159 HD
HETATM   32  H   UNL     1      42.117 -13.568   0.345  1.00  0.00     0.159 HD
HETATM   33  O   UNL     1      40.410 -14.082   2.056  1.00  0.00    -0.271 OA
ENDBRANCH   8  29
TORSDOF 3
ENDMDL
MODEL 6
REMARK VINA RESULT:      -8.4      2.736      3.851
REMARK  3 active torsions:
REMARK  status: ('A' for Active; 'I' for Inactive)
REMARK    1  A    between atoms: C_2  and  C_3 
REMARK    2  A    between atoms: C_6  and  N_7 
REMARK    3  A    between atoms: C_14  and  C_15 
REMARK       I    between atoms: C_15  and  N_16 
ROOT
HETATM    1  N   UNL     1      41.135 -15.338   3.976  1.00  0.00    -0.252 N 
HETATM    2  C   UNL     1      40.521 -16.352   3.269  1.00  0.00     0.238 C 
HETATM    3  O   UNL     1      39.514 -16.341   2.575  1.00  0.00    -0.272 OA
HETATM    4  C   UNL     1      41.398 -17.569   3.292  1.00  0.00     0.135 C 
HETATM    5  C   UNL     1      42.325 -17.281   4.445  1.00  0.00     0.130 C 
HETATM    6  C   UNL     1      42.326 -15.786   4.512  1.00  0.00     0.238 C 
HETATM    7  O   UNL     1      43.272 -15.177   4.984  1.00  0.00    -0.272 OA
HETATM    8  C   UNL     1      42.265 -17.714   2.048  1.00  0.00     0.298 C 
HETATM    9  N   UNL     1      43.713 -17.815   2.586  1.00  0.00    -0.028 N 
HETATM   10  H   UNL     1      44.153 -16.906   2.322  1.00  0.00     0.287 HD
HETATM   11  C   UNL     1      43.695 -17.857   4.106  1.00  0.00     0.242 C 
HETATM   12  C   UNL     1      44.454 -18.839   1.915  1.00  0.00     0.203 C 
HETATM   13  C   UNL     1      44.738 -19.995   2.520  1.00  0.00     0.037 C 
HETATM   14  C   UNL     1      44.404 -20.265   3.912  1.00  0.00    -0.026 A 
HETATM   15  C   UNL     1      43.907 -19.227   4.712  1.00  0.00    -0.016 A 
HETATM   16  C   UNL     1      44.649 -21.527   4.467  1.00  0.00     0.012 A 
HETATM   17  C   UNL     1      44.417 -21.755   5.822  1.00  0.00     0.001 A 
HETATM   18  C   UNL     1      43.959 -20.722   6.632  1.00  0.00     0.001 A 
HETATM   19  C   UNL     1      43.716 -19.462   6.085  1.00  0.00     0.010 A 
ENDROOT
BRANCH   1  20
HETATM   20  C   UNL     1      40.655 -13.991   4.062  1.00  0.00     0.045 A 
HETATM   21  C   UNL     1      41.055 -13.005   3.142  1.00  0.00     0.031 A 
HETATM   22  C   UNL     1      40.558 -11.691   3.199  1.00  0.00     0.017 A 
HETATM   23  C   UNL     1      39.644 -11.329   4.187  1.00  0.00     0.009 A 
HETATM   24  C   UNL     1      39.249 -12.286   5.121  1.00  0.00     0.017 A 
HETATM   25  C   UNL     1      39.740 -13.597   5.051  1.00  0.00     0.031 A 
BRANCH  23  26
HETATM   26  C   UNL     1      39.073  -9.958   4.293  1.00  0.00     0.155 C 
HETATM   27  C   UNL     1      39.714  -8.835   3.524  1.00  0.00     0.096 C 
HETATM   28  O   UNL     1      38.091  -9.772   5.008  1.00  0.00    -0.293 OA
ENDBRANCH  23  26
ENDBRANCH   1  20
BRANCH   8  29
HETATM   29  C   UNL     1      42.230 -16.548   1.040  1.00  0.00     0.248 C 
HETATM   30  N   UNL     1      41.324 -16.575   0.035  1.00  0.00    -0.368 N 
HETATM   31  H   UNL     1      40.429 -17.058   0.118  1.00  0.00     0.159 HD
HETATM   32  H   UNL     1      41.291 -15.757  -0.571  1.00  0.00     0.159 HD
HETATM   33  O   UNL     1      43.042 -15.631   1.168  1.00  0.00    -0.271 OA
ENDBRANCH   8  29
TORSDOF 3
ENDMDL
MODEL 7
REMARK VINA RESULT:      -8.1      2.464      4.085
REMARK  3 active torsions:
REMARK  status: ('A' for Active; 'I' for Inactive)
REMARK    1  A    between atoms: C_2  and  C_3 
REMARK    2  A    between atoms: C_6  and  N_7 
REMARK    3  A    between atoms: C_14  and  C_15 
REMARK       I    between atoms: C_15  and  N_16 
ROOT
HETATM    1  N   UNL     1      41.625 -13.963   2.593  1.00  0.00    -0.252 N 
HETATM    2  C   UNL     1      40.674 -14.953   2.739  1.00  0.00     0.238 C 
HETATM    3  O   UNL     1      39.578 -15.088   2.215  1.00  0.00    -0.272 OA
HETATM    4  C   UNL     1      41.249 -16.067   3.565  1.00  0.00     0.135 C 
HETATM    5  C   UNL     1      42.425 -15.404   4.233  1.00  0.00     0.130 C 
HETATM    6  C   UNL     1      42.770 -14.295   3.289  1.00  0.00     0.238 C 
HETATM    7  O   UNL     1      43.900 -13.841   3.234  1.00  0.00    -0.272 OA
HETATM    8  C   UNL     1      41.798 -17.217   2.731  1.00  0.00     0.298 C 
HETATM    9  N   UNL     1      43.265 -17.377   3.198  1.00  0.00    -0.028 N 
HETATM   10  H   UNL     1      43.833 -17.026   2.396  1.00  0.00     0.287 HD
HETATM   11  C   UNL     1      43.540 -16.436   4.362  1.00  0.00     0.242 C 
HETATM   12  C   UNL     1      43.615 -18.753   3.377  1.00  0.00     0.203 C 
HETATM   13  C   UNL     1      43.751 -19.278   4.598  1.00  0.00     0.037 C 
HETATM   14  C   UNL     1      43.648 -18.487   5.818  1.00  0.00    -0.026 A 
HETATM   15  C   UNL     1      43.560 -17.092   5.725  1.00  0.00    -0.016 A 
HETATM   16  C   UNL     1      43.714 -19.108   7.070  1.00  0.00     0.012 A 
HETATM   17  C   UNL     1      43.710 -18.342   8.235  1.00  0.00     0.001 A 
HETATM   18  C   UNL     1      43.661 -16.954   8.153  1.00  0.00     0.001 A 
HETATM   19  C   UNL     1      43.598 -16.331   6.906  1.00  0.00     0.010 A 
ENDROOT
BRANCH   1  20
HETATM   20  C   UNL     1      41.480 -12.805   1.761  1.00  0.00     0.045 A 
HETATM   21  C   UNL     1      40.971 -11.594   2.263  1.00  0.00     0.031 A 
HETATM   22  C   UNL     1      40.863 -10.444   1.460  1.00  0.00     0.017 A 
HETATM   23  C   UNL     1      41.261 -10.481   0.125  1.00  0.00     0.009 A 
HETATM   24  C   UNL     1      41.751 -11.677  -0.398  1.00  0.00     0.017 A 
HETATM   25  C   UNL     1      41.867 -12.816   0.411  1.00  0.00     0.031 A 
BRANCH  23  26
HETATM   26  C   UNL     1      41.182  -9.295  -0.771  1.00  0.00     0.155 C 
HETATM   27  C   UNL     1      42.353  -8.965  -1.657  1.00  0.00     0.096 C 
HETATM   28  O   UNL     1      40.162  -8.610  -0.770  1.00  0.00    -0.293 OA
ENDBRANCH  23  26
ENDBRANCH   1  20
BRANCH   8  29
HETATM   29  C   UNL     1      41.822 -17.015   1.203  1.00  0.00     0.248 C 
HETATM   30  N   UNL     1      40.718 -17.322   0.482  1.00  0.00    -0.368 N 
HETATM   31  H   UNL     1      39.778 -17.278   0.876  1.00  0.00     0.159 HD
HETATM   32  H   UNL     1      40.753 -17.114  -0.515  1.00  0.00     0.159 HD
HETATM   33  O   UNL     1      42.854 -16.596   0.678  1.00  0.00    -0.271 OA
ENDBRANCH   8  29
TORSDOF 3
ENDMDL
MODEL 8
REMARK VINA RESULT:      -8.1      3.020      4.732
REMARK  3 active torsions:
REMARK  status: ('A' for Active; 'I' for Inactive)
REMARK    1  A    between atoms: C_2  and  C_3 
REMARK    2  A    between atoms: C_6  and  N_7 
REMARK    3  A    between atoms: C_14  and  C_15 
REMARK       I    between atoms: C_15  and  N_16 
ROOT
HETATM    1  N   UNL     1      41.261 -13.984   4.839  1.00  0.00    -0.252 N 
HETATM    2  C   UNL     1      40.479 -14.784   4.030  1.00  0.00     0.238 C 
HETATM    3  O   UNL     1      39.382 -14.580   3.532  1.00  0.00    -0.272 OA
HETATM    4  C   UNL     1      41.267 -15.998   3.632  1.00  0.00     0.135 C 
HETATM    5  C   UNL     1      42.375 -16.017   4.652  1.00  0.00     0.130 C 
HETATM    6  C   UNL     1      42.487 -14.580   5.056  1.00  0.00     0.238 C 
HETATM    7  O   UNL     1      43.533 -14.127   5.492  1.00  0.00    -0.272 OA
HETATM    8  C   UNL     1      41.922 -15.871   2.263  1.00  0.00     0.298 C 
HETATM    9  N   UNL     1      43.424 -16.140   2.518  1.00  0.00    -0.028 N 
HETATM   10  H   UNL     1      43.879 -15.207   2.400  1.00  0.00     0.287 HD
HETATM   11  C   UNL     1      43.636 -16.538   3.970  1.00  0.00     0.242 C 
HETATM   12  C   UNL     1      43.984 -16.998   1.519  1.00  0.00     0.203 C 
HETATM   13  C   UNL     1      44.279 -18.272   1.790  1.00  0.00     0.037 C 
HETATM   14  C   UNL     1      44.144 -18.852   3.120  1.00  0.00    -0.026 A 
HETATM   15  C   UNL     1      43.846 -18.017   4.205  1.00  0.00    -0.016 A 
HETATM   16  C   UNL     1      44.386 -20.215   3.325  1.00  0.00     0.012 A 
HETATM   17  C   UNL     1      44.348 -20.750   4.612  1.00  0.00     0.001 A 
HETATM   18  C   UNL     1      44.090 -19.923   5.700  1.00  0.00     0.001 A 
HETATM   19  C   UNL     1      43.851 -18.563   5.501  1.00  0.00     0.010 A 
ENDROOT
BRANCH   1  20
HETATM   20  C   UNL     1      40.892 -12.681   5.306  1.00  0.00     0.045 A 
HETATM   21  C   UNL     1      40.032 -12.507   6.407  1.00  0.00     0.031 A 
HETATM   22  C   UNL     1      39.697 -11.231   6.892  1.00  0.00     0.017 A 
HETATM   23  C   UNL     1      40.214 -10.090   6.282  1.00  0.00     0.009 A 
HETATM   24  C   UNL     1      41.052 -10.238   5.178  1.00  0.00     0.017 A 
HETATM   25  C   UNL     1      41.392 -11.514   4.706  1.00  0.00     0.031 A 
BRANCH  23  26
HETATM   26  C   UNL     1      39.905  -8.713   6.756  1.00  0.00     0.155 C 
HETATM   27  C   UNL     1      39.813  -7.595   5.753  1.00  0.00     0.096 C 
HETATM   28  O   UNL     1      39.733  -8.517   7.957  1.00  0.00    -0.293 OA
ENDBRANCH  23  26
ENDBRANCH   1  20
BRANCH   8  29
HETATM   29  C   UNL     1      41.811 -14.501   1.566  1.00  0.00     0.248 C 
HETATM   30  N   UNL     1      40.775 -14.273   0.724  1.00  0.00    -0.368 N 
HETATM   31  H   UNL     1      39.876 -14.743   0.823  1.00  0.00     0.159 HD
HETATM   32  H   UNL     1      40.704 -13.334   0.334  1.00  0.00     0.159 HD
HETATM   33  O   UNL     1      42.681 -13.656   1.782  1.00  0.00    -0.271 OA
ENDBRANCH   8  29
TORSDOF 3
ENDMDL
MODEL 9
REMARK VINA RESULT:      -7.5      2.071      8.593
REMARK  3 active torsions:
REMARK  status: ('A' for Active; 'I' for Inactive)
REMARK    1  A    between atoms: C_2  and  C_3 
REMARK    2  A    between atoms: C_6  and  N_7 
REMARK    3  A    between atoms: C_14  and  C_15 
REMARK       I    between atoms: C_15  and  N_16 
ROOT
HETATM    1  N   UNL     1      40.818 -14.315   1.834  1.00  0.00    -0.252 N 
HETATM    2  C   UNL     1      41.345 -13.237   1.151  1.00  0.00     0.238 C 
HETATM    3  O   UNL     1      42.502 -12.859   1.032  1.00  0.00    -0.272 OA
HETATM    4  C   UNL     1      40.262 -12.596   0.334  1.00  0.00     0.135 C 
HETATM    5  C   UNL     1      39.009 -13.133   0.974  1.00  0.00     0.130 C 
HETATM    6  C   UNL     1      39.465 -14.423   1.581  1.00  0.00     0.238 C 
HETATM    7  O   UNL     1      38.685 -15.340   1.775  1.00  0.00    -0.272 OA
HETATM    8  C   UNL     1      40.252 -13.052  -1.119  1.00  0.00     0.298 C 
HETATM    9  N   UNL     1      38.817 -13.583  -1.356  1.00  0.00    -0.028 N 
HETATM   10  H   UNL     1      38.932 -14.618  -1.429  1.00  0.00     0.287 HD
HETATM   11  C   UNL     1      37.966 -13.333  -0.120  1.00  0.00     0.242 C 
HETATM   12  C   UNL     1      38.290 -13.139  -2.610  1.00  0.00     0.203 C 
HETATM   13  C   UNL     1      37.353 -12.189  -2.668  1.00  0.00     0.037 C 
HETATM   14  C   UNL     1      36.739 -11.607  -1.481  1.00  0.00    -0.026 A 
HETATM   15  C   UNL     1      37.013 -12.163  -0.225  1.00  0.00    -0.016 A 
HETATM   16  C   UNL     1      35.825 -10.554  -1.602  1.00  0.00     0.012 A 
HETATM   17  C   UNL     1      35.167 -10.062  -0.476  1.00  0.00     0.001 A 
HETATM   18  C   UNL     1      35.404 -10.631   0.771  1.00  0.00     0.001 A 
HETATM   19  C   UNL     1      36.313 -11.683   0.896  1.00  0.00     0.010 A 
ENDROOT
BRANCH   1  20
HETATM   20  C   UNL     1      41.581 -15.244   2.613  1.00  0.00     0.045 A 
HETATM   21  C   UNL     1      41.936 -16.511   2.114  1.00  0.00     0.031 A 
HETATM   22  C   UNL     1      42.716 -17.411   2.861  1.00  0.00     0.017 A 
HETATM   23  C   UNL     1      43.161 -17.064   4.135  1.00  0.00     0.009 A 
HETATM   24  C   UNL     1      42.804 -15.821   4.658  1.00  0.00     0.017 A 
HETATM   25  C   UNL     1      42.036 -14.924   3.903  1.00  0.00     0.031 A 
BRANCH  23  26
HETATM   26  C   UNL     1      43.999 -17.968   4.970  1.00  0.00     0.155 C 
HETATM   27  C   UNL     1      44.347 -19.336   4.447  1.00  0.00     0.096 C 
HETATM   28  O   UNL     1      44.388 -17.580   6.069  1.00  0.00    -0.293 OA
ENDBRANCH  23  26
ENDBRANCH   1  20
BRANCH   8  29
HETATM   29  C   UNL     1      41.228 -14.183  -1.498  1.00  0.00     0.248 C 
HETATM   30  N   UNL     1      42.454 -13.862  -1.976  1.00  0.00    -0.368 N 
HETATM   31  H   UNL     1      42.927 -12.993  -1.728  1.00  0.00     0.159 HD
HETATM   32  H   UNL     1      43.091 -14.636  -2.153  1.00  0.00     0.159 HD
HETATM   33  O   UNL     1      40.858 -15.351  -1.371  1.00  0.00    -0.271 OA
ENDBRANCH   8  29
TORSDOF 3
ENDMDL
MODEL 10
REMARK VINA RESULT:      -7.4      3.001      8.557
REMARK  3 active torsions:
REMARK  status: ('A' for Active; 'I' for Inactive)
REMARK    1  A    between atoms: C_2  and  C_3 
REMARK    2  A    between atoms: C_6  and  N_7 
REMARK    3  A    between atoms: C_14  and  C_15 
REMARK       I    between atoms: C_15  and  N_16 
ROOT
HETATM    1  N   UNL     1      42.737 -15.264   4.770  1.00  0.00    -0.252 N 
HETATM    2  C   UNL     1      43.211 -14.573   3.673  1.00  0.00     0.238 C 
HETATM    3  O   UNL     1      43.970 -14.923   2.780  1.00  0.00    -0.272 OA
HETATM    4  C   UNL     1      42.492 -13.260   3.571  1.00  0.00     0.135 C 
HETATM    5  C   UNL     1      41.915 -13.096   4.953  1.00  0.00     0.130 C 
HETATM    6  C   UNL     1      41.797 -14.506   5.440  1.00  0.00     0.238 C 
HETATM    7  O   UNL     1      40.976 -14.814   6.287  1.00  0.00    -0.272 OA
HETATM    8  C   UNL     1      41.321 -13.286   2.598  1.00  0.00     0.298 C 
HETATM    9  N   UNL     1      40.105 -12.816   3.432  1.00  0.00    -0.028 N 
HETATM   10  H   UNL     1      39.527 -13.676   3.557  1.00  0.00     0.287 HD
HETATM   11  C   UNL     1      40.564 -12.402   4.822  1.00  0.00     0.242 C 
HETATM   12  C   UNL     1      39.298 -11.882   2.708  1.00  0.00     0.203 C 
HETATM   13  C   UNL     1      39.307 -10.581   3.011  1.00  0.00     0.037 C 
HETATM   14  C   UNL     1      40.051 -10.035   4.138  1.00  0.00    -0.026 A 
HETATM   15  C   UNL     1      40.661 -10.910   5.046  1.00  0.00    -0.016 A 
HETATM   16  C   UNL     1      40.092  -8.652   4.355  1.00  0.00     0.012 A 
HETATM   17  C   UNL     1      40.725  -8.137   5.485  1.00  0.00     0.001 A 
HETATM   18  C   UNL     1      41.301  -8.999   6.412  1.00  0.00     0.001 A 
HETATM   19  C   UNL     1      41.260 -10.378   6.202  1.00  0.00     0.010 A 
ENDROOT
BRANCH   1  20
HETATM   20  C   UNL     1      43.097 -16.608   5.110  1.00  0.00     0.045 A 
HETATM   21  C   UNL     1      43.972 -16.892   6.175  1.00  0.00     0.031 A 
HETATM   22  C   UNL     1      44.298 -18.211   6.536  1.00  0.00     0.017 A 
HETATM   23  C   UNL     1      43.755 -19.286   5.834  1.00  0.00     0.009 A 
HETATM   24  C   UNL     1      42.900 -19.027   4.763  1.00  0.00     0.017 A 
HETATM   25  C   UNL     1      42.570 -17.710   4.416  1.00  0.00     0.031 A 
BRANCH  23  26
HETATM   26  C   UNL     1      44.053 -20.704   6.176  1.00  0.00     0.155 C 
HETATM   27  C   UNL     1      44.788 -21.559   5.179  1.00  0.00     0.096 C 
HETATM   28  O   UNL     1      43.691 -21.147   7.263  1.00  0.00    -0.293 OA
ENDBRANCH  23  26
ENDBRANCH   1  20
BRANCH   8  29
HETATM   29  C   UNL     1      40.958 -14.654   1.987  1.00  0.00     0.248 C 
HETATM   30  N   UNL     1      41.559 -15.042   0.837  1.00  0.00    -0.368 N 
HETATM   31  H   UNL     1      42.490 -14.721   0.572  1.00  0.00     0.159 HD
HETATM   32  H   UNL     1      41.339 -15.978   0.502  1.00  0.00     0.159 HD
HETATM   33  O   UNL     1      40.115 -15.350   2.555  1.00  0.00    -0.271 OA
ENDBRANCH   8  29
TORSDOF 3
ENDMDL
