MODEL 1
REMARK VINA RESULT:      -8.9      0.000      0.000
REMARK  2 active torsions:
REMARK  status: ('A' for Active; 'I' for Inactive)
REMARK    1  A    between atoms: C_7  and  C_8 
REMARK    2  A    between atoms: C_8  and  O_9 
ROOT
HETATM    1  C   UNL     1      42.950 -17.068   4.341  1.00  0.00     0.199 A 
HETATM    2  C   UNL     1      41.533 -17.194   5.011  1.00  0.00     0.266 A 
HETATM    3  O   UNL     1      41.252 -17.338   6.192  1.00  0.00    -0.269 OA
HETATM    4  N   UNL     1      40.584 -17.049   3.996  1.00  0.00    -0.323 N 
HETATM    5  C   UNL     1      41.184 -16.888   2.757  1.00  0.00     0.045 A 
HETATM    6  C   UNL     1      42.576 -16.909   2.881  1.00  0.00     0.017 A 
HETATM    7  C   UNL     1      40.550 -16.726   1.544  1.00  0.00     0.030 A 
HETATM    8  C   UNL     1      41.356 -16.571   0.413  1.00  0.00     0.002 A 
HETATM    9  C   UNL     1      42.758 -16.579   0.522  1.00  0.00     0.001 A 
HETATM   10  C   UNL     1      43.380 -16.743   1.764  1.00  0.00     0.013 A 
HETATM   11  H   UNL     1      39.591 -17.080   4.175  1.00  0.00     0.169 HD
ENDROOT
BRANCH   1  12
HETATM   12  C   UNL     1      43.776 -18.332   4.476  1.00  0.00     0.025 A 
HETATM   13  C   UNL     1      44.719 -18.648   5.460  1.00  0.00     0.016 A 
HETATM   14  C   UNL     1      45.204 -17.900   6.652  1.00  0.00     0.069 C 
HETATM   15  N   UNL     1      45.230 -19.889   5.179  1.00  0.00    -0.359 N 
HETATM   16  H   UNL     1      45.935 -20.365   5.726  1.00  0.00     0.166 HD
HETATM   17  C   UNL     1      44.675 -20.403   4.038  1.00  0.00     0.043 A 
HETATM   18  C   UNL     1      43.763 -19.459   3.567  1.00  0.00     0.003 A 
HETATM   19  C   UNL     1      44.921 -21.622   3.395  1.00  0.00     0.030 A 
HETATM   20  C   UNL     1      43.065 -19.769   2.377  1.00  0.00     0.014 A 
HETATM   21  C   UNL     1      43.297 -20.982   1.718  1.00  0.00     0.001 A 
HETATM   22  C   UNL     1      44.215 -21.896   2.223  1.00  0.00     0.002 A 
ENDBRANCH   1  12
BRANCH   1  23
HETATM   23  O   UNL     1      43.612 -15.879   4.761  1.00  0.00    -0.371 OA
HETATM   24  H   UNL     1      43.260 -15.156   4.217  1.00  0.00     0.212 HD
ENDBRANCH   1  23
TORSDOF 2
ENDMDL
MODEL 2
REMARK VINA RESULT:      -8.7      1.885      2.349
REMARK  2 active torsions:
REMARK  status: ('A' for Active; 'I' for Inactive)
REMARK    1  A    between atoms: C_7  and  C_8 
REMARK    2  A    between atoms: C_8  and  O_9 
ROOT
HETATM    1  C   UNL     1      42.406 -16.280   5.972  1.00  0.00     0.199 A 
HETATM    2  C   UNL     1      40.857 -16.534   6.073  1.00  0.00     0.266 A 
HETATM    3  O   UNL     1      40.249 -17.285   6.821  1.00  0.00    -0.269 OA
HETATM    4  N   UNL     1      40.240 -15.675   5.160  1.00  0.00    -0.323 N 
HETATM    5  C   UNL     1      41.170 -14.929   4.453  1.00  0.00     0.045 A 
HETATM    6  C   UNL     1      42.467 -15.248   4.865  1.00  0.00     0.017 A 
HETATM    7  C   UNL     1      40.912 -13.994   3.474  1.00  0.00     0.030 A 
HETATM    8  C   UNL     1      42.009 -13.350   2.895  1.00  0.00     0.002 A 
HETATM    9  C   UNL     1      43.320 -13.652   3.306  1.00  0.00     0.001 A 
HETATM   10  C   UNL     1      43.559 -14.604   4.302  1.00  0.00     0.013 A 
HETATM   11  H   UNL     1      39.238 -15.638   5.043  1.00  0.00     0.169 HD
ENDROOT
BRANCH   1  12
HETATM   12  C   UNL     1      43.171 -17.506   5.511  1.00  0.00     0.025 A 
HETATM   13  C   UNL     1      44.095 -18.271   6.233  1.00  0.00     0.016 A 
HETATM   14  C   UNL     1      44.609 -18.160   7.625  1.00  0.00     0.069 C 
HETATM   15  N   UNL     1      44.547 -19.275   5.416  1.00  0.00    -0.359 N 
HETATM   16  H   UNL     1      45.227 -19.976   5.679  1.00  0.00     0.166 HD
HETATM   17  C   UNL     1      43.973 -19.197   4.176  1.00  0.00     0.043 A 
HETATM   18  C   UNL     1      43.109 -18.103   4.194  1.00  0.00     0.003 A 
HETATM   19  C   UNL     1      44.165 -20.008   3.050  1.00  0.00     0.030 A 
HETATM   20  C   UNL     1      42.402 -17.815   3.004  1.00  0.00     0.014 A 
HETATM   21  C   UNL     1      42.579 -18.612   1.867  1.00  0.00     0.001 A 
HETATM   22  C   UNL     1      43.451 -19.695   1.892  1.00  0.00     0.002 A 
ENDBRANCH   1  12
BRANCH   1  23
HETATM   23  O   UNL     1      42.906 -15.683   7.164  1.00  0.00    -0.371 OA
HETATM   24  H   UNL     1      42.510 -14.798   7.221  1.00  0.00     0.212 HD
ENDBRANCH   1  23
TORSDOF 2
ENDMDL
MODEL 3
REMARK VINA RESULT:      -8.4      2.119      3.710
REMARK  2 active torsions:
REMARK  status: ('A' for Active; 'I' for Inactive)
REMARK    1  A    between atoms: C_7  and  C_8 
REMARK    2  A    between atoms: C_8  and  O_9 
ROOT
HETATM    1  C   UNL     1      42.321 -17.218   4.523  1.00  0.00     0.199 A 
HETATM    2  C   UNL     1      41.658 -16.358   3.385  1.00  0.00     0.266 A 
HETATM    3  O   UNL     1      40.874 -16.709   2.517  1.00  0.00    -0.269 OA
HETATM    4  N   UNL     1      42.084 -15.040   3.566  1.00  0.00    -0.323 N 
HETATM    5  C   UNL     1      42.960 -14.929   4.634  1.00  0.00     0.045 A 
HETATM    6  C   UNL     1      43.161 -16.176   5.232  1.00  0.00     0.017 A 
HETATM    7  C   UNL     1      43.575 -13.782   5.086  1.00  0.00     0.030 A 
HETATM    8  C   UNL     1      44.420 -13.898   6.193  1.00  0.00     0.002 A 
HETATM    9  C   UNL     1      44.625 -15.144   6.814  1.00  0.00     0.001 A 
HETATM   10  C   UNL     1      43.990 -16.296   6.338  1.00  0.00     0.013 A 
HETATM   11  H   UNL     1      41.783 -14.287   2.964  1.00  0.00     0.169 HD
ENDROOT
BRANCH   1  12
HETATM   12  C   UNL     1      43.255 -18.283   3.984  1.00  0.00     0.025 A 
HETATM   13  C   UNL     1      43.857 -18.347   2.722  1.00  0.00     0.016 A 
HETATM   14  C   UNL     1      43.799 -17.440   1.543  1.00  0.00     0.069 C 
HETATM   15  N   UNL     1      44.611 -19.492   2.666  1.00  0.00    -0.359 N 
HETATM   16  H   UNL     1      45.152 -19.792   1.867  1.00  0.00     0.166 HD
HETATM   17  C   UNL     1      44.521 -20.198   3.835  1.00  0.00     0.043 A 
HETATM   18  C   UNL     1      43.681 -19.477   4.683  1.00  0.00     0.003 A 
HETATM   19  C   UNL     1      45.113 -21.416   4.191  1.00  0.00     0.030 A 
HETATM   20  C   UNL     1      43.427 -20.024   5.962  1.00  0.00     0.014 A 
HETATM   21  C   UNL     1      44.009 -21.241   6.338  1.00  0.00     0.001 A 
HETATM   22  C   UNL     1      44.841 -21.927   5.461  1.00  0.00     0.002 A 
ENDBRANCH   1  12
BRANCH   1  23
HETATM   23  O   UNL     1      41.342 -17.698   5.440  1.00  0.00    -0.371 OA
HETATM   24  H   UNL     1      40.696 -18.202   4.919  1.00  0.00     0.212 HD
ENDBRANCH   1  23
TORSDOF 2
ENDMDL
MODEL 4
REMARK VINA RESULT:      -8.4      2.137      4.642
REMARK  2 active torsions:
REMARK  status: ('A' for Active; 'I' for Inactive)
REMARK    1  A    between atoms: C_7  and  C_8 
REMARK    2  A    between atoms: C_8  and  O_9 
ROOT
HETATM    1  C   UNL     1      42.044 -15.335   4.147  1.00  0.00     0.199 A 
HETATM    2  C   UNL     1      43.227 -14.326   3.906  1.00  0.00     0.266 A 
HETATM    3  O   UNL     1      43.410 -13.570   2.965  1.00  0.00    -0.269 OA
HETATM    4  N   UNL     1      44.056 -14.389   5.029  1.00  0.00    -0.323 N 
HETATM    5  C   UNL     1      43.602 -15.324   5.946  1.00  0.00     0.045 A 
HETATM    6  C   UNL     1      42.433 -15.935   5.483  1.00  0.00     0.017 A 
HETATM    7  C   UNL     1      44.179 -15.648   7.155  1.00  0.00     0.030 A 
HETATM    8  C   UNL     1      43.544 -16.621   7.930  1.00  0.00     0.002 A 
HETATM    9  C   UNL     1      42.361 -17.238   7.485  1.00  0.00     0.001 A 
HETATM   10  C   UNL     1      41.792 -16.893   6.255  1.00  0.00     0.013 A 
HETATM   11  H   UNL     1      44.885 -13.821   5.122  1.00  0.00     0.169 HD
ENDROOT
BRANCH   1  12
HETATM   12  C   UNL     1      42.012 -16.455   3.125  1.00  0.00     0.025 A 
HETATM   13  C   UNL     1      41.164 -16.594   2.021  1.00  0.00     0.016 A 
HETATM   14  C   UNL     1      40.068 -15.736   1.492  1.00  0.00     0.069 C 
HETATM   15  N   UNL     1      41.482 -17.765   1.383  1.00  0.00    -0.359 N 
HETATM   16  H   UNL     1      41.023 -18.119   0.554  1.00  0.00     0.166 HD
HETATM   17  C   UNL     1      42.497 -18.418   2.029  1.00  0.00     0.043 A 
HETATM   18  C   UNL     1      42.855 -17.632   3.125  1.00  0.00     0.003 A 
HETATM   19  C   UNL     1      43.110 -19.640   1.726  1.00  0.00     0.030 A 
HETATM   20  C   UNL     1      43.890 -18.115   3.958  1.00  0.00     0.014 A 
HETATM   21  C   UNL     1      44.516 -19.334   3.673  1.00  0.00     0.001 A 
HETATM   22  C   UNL     1      44.128 -20.086   2.569  1.00  0.00     0.002 A 
ENDBRANCH   1  12
BRANCH   1  23
HETATM   23  O   UNL     1      40.809 -14.647   4.312  1.00  0.00    -0.371 OA
HETATM   24  H   UNL     1      40.372 -14.646   3.444  1.00  0.00     0.212 HD
ENDBRANCH   1  23
TORSDOF 2
ENDMDL
MODEL 5
REMARK VINA RESULT:      -8.3      2.980      3.961
REMARK  2 active torsions:
REMARK  status: ('A' for Active; 'I' for Inactive)
REMARK    1  A    between atoms: C_7  and  C_8 
REMARK    2  A    between atoms: C_8  and  O_9 
ROOT
HETATM    1  C   UNL     1      43.315 -14.482   4.617  1.00  0.00     0.199 A 
HETATM    2  C   UNL     1      43.857 -13.976   6.004  1.00  0.00     0.266 A 
HETATM    3  O   UNL     1      44.949 -14.167   6.517  1.00  0.00    -0.269 OA
HETATM    4  N   UNL     1      42.859 -13.177   6.569  1.00  0.00    -0.323 N 
HETATM    5  C   UNL     1      41.732 -13.126   5.764  1.00  0.00     0.045 A 
HETATM    6  C   UNL     1      41.921 -13.888   4.608  1.00  0.00     0.017 A 
HETATM    7  C   UNL     1      40.563 -12.440   6.017  1.00  0.00     0.030 A 
HETATM    8  C   UNL     1      39.550 -12.521   5.059  1.00  0.00     0.002 A 
HETATM    9  C   UNL     1      39.728 -13.274   3.884  1.00  0.00     0.001 A 
HETATM   10  C   UNL     1      40.923 -13.962   3.647  1.00  0.00     0.013 A 
HETATM   11  H   UNL     1      42.972 -12.721   7.462  1.00  0.00     0.169 HD
ENDROOT
BRANCH   1  12
HETATM   12  C   UNL     1      43.179 -15.991   4.557  1.00  0.00     0.025 A 
HETATM   13  C   UNL     1      42.848 -16.871   5.593  1.00  0.00     0.016 A 
HETATM   14  C   UNL     1      42.524 -16.645   7.028  1.00  0.00     0.069 C 
HETATM   15  N   UNL     1      42.854 -18.147   5.088  1.00  0.00    -0.359 N 
HETATM   16  H   UNL     1      42.654 -18.983   5.619  1.00  0.00     0.166 HD
HETATM   17  C   UNL     1      43.193 -18.149   3.761  1.00  0.00     0.043 A 
HETATM   18  C   UNL     1      43.406 -16.821   3.392  1.00  0.00     0.003 A 
HETATM   19  C   UNL     1      43.330 -19.225   2.876  1.00  0.00     0.030 A 
HETATM   20  C   UNL     1      43.781 -16.572   2.052  1.00  0.00     0.014 A 
HETATM   21  C   UNL     1      43.925 -17.633   1.151  1.00  0.00     0.001 A 
HETATM   22  C   UNL     1      43.702 -18.944   1.560  1.00  0.00     0.002 A 
ENDBRANCH   1  12
BRANCH   1  23
HETATM   23  O   UNL     1      44.049 -13.909   3.540  1.00  0.00    -0.371 OA
HETATM   24  H   UNL     1      43.620 -14.206   2.721  1.00  0.00     0.212 HD
ENDBRANCH   1  23
TORSDOF 2
ENDMDL
MODEL 6
REMARK VINA RESULT:      -8.3      2.337      3.545
REMARK  2 active torsions:
REMARK  status: ('A' for Active; 'I' for Inactive)
REMARK    1  A    between atoms: C_7  and  C_8 
REMARK    2  A    between atoms: C_8  and  O_9 
ROOT
HETATM    1  C   UNL     1      41.975 -16.144   5.087  1.00  0.00     0.199 A 
HETATM    2  C   UNL     1      40.638 -16.358   5.888  1.00  0.00     0.266 A 
HETATM    3  O   UNL     1      40.272 -17.336   6.523  1.00  0.00    -0.269 OA
HETATM    4  N   UNL     1      39.915 -15.165   5.806  1.00  0.00    -0.323 N 
HETATM    5  C   UNL     1      40.573 -14.222   5.033  1.00  0.00     0.045 A 
HETATM    6  C   UNL     1      41.784 -14.736   4.560  1.00  0.00     0.017 A 
HETATM    7  C   UNL     1      40.144 -12.946   4.739  1.00  0.00     0.030 A 
HETATM    8  C   UNL     1      40.977 -12.156   3.942  1.00  0.00     0.002 A 
HETATM    9  C   UNL     1      42.203 -12.654   3.466  1.00  0.00     0.001 A 
HETATM   10  C   UNL     1      42.619 -13.953   3.778  1.00  0.00     0.013 A 
HETATM   11  H   UNL     1      39.018 -15.044   6.254  1.00  0.00     0.169 HD
ENDROOT
BRANCH   1  12
HETATM   12  C   UNL     1      42.100 -17.075   3.897  1.00  0.00     0.025 A 
HETATM   13  C   UNL     1      41.351 -17.073   2.715  1.00  0.00     0.016 A 
HETATM   14  C   UNL     1      40.243 -16.200   2.239  1.00  0.00     0.069 C 
HETATM   15  N   UNL     1      41.799 -18.100   1.924  1.00  0.00    -0.359 N 
HETATM   16  H   UNL     1      41.431 -18.334   1.012  1.00  0.00     0.166 HD
HETATM   17  C   UNL     1      42.804 -18.795   2.542  1.00  0.00     0.043 A 
HETATM   18  C   UNL     1      43.020 -18.187   3.779  1.00  0.00     0.003 A 
HETATM   19  C   UNL     1      43.522 -19.912   2.099  1.00  0.00     0.030 A 
HETATM   20  C   UNL     1      44.018 -18.745   4.610  1.00  0.00     0.014 A 
HETATM   21  C   UNL     1      44.747 -19.862   4.186  1.00  0.00     0.001 A 
HETATM   22  C   UNL     1      44.500 -20.437   2.944  1.00  0.00     0.002 A 
ENDBRANCH   1  12
BRANCH   1  23
HETATM   23  O   UNL     1      43.100 -16.142   5.960  1.00  0.00    -0.371 OA
HETATM   24  H   UNL     1      42.755 -16.034   6.861  1.00  0.00     0.212 HD
ENDBRANCH   1  23
TORSDOF 2
ENDMDL
MODEL 7
REMARK VINA RESULT:      -8.1      3.611      6.521
REMARK  2 active torsions:
REMARK  status: ('A' for Active; 'I' for Inactive)
REMARK    1  A    between atoms: C_7  and  C_8 
REMARK    2  A    between atoms: C_8  and  O_9 
ROOT
HETATM    1  C   UNL     1      40.979 -15.610   0.880  1.00  0.00     0.199 A 
HETATM    2  C   UNL     1      39.790 -15.785   1.894  1.00  0.00     0.266 A 
HETATM    3  O   UNL     1      38.673 -15.291   1.859  1.00  0.00    -0.269 OA
HETATM    4  N   UNL     1      40.212 -16.691   2.870  1.00  0.00    -0.323 N 
HETATM    5  C   UNL     1      41.520 -17.098   2.656  1.00  0.00     0.045 A 
HETATM    6  C   UNL     1      42.041 -16.486   1.513  1.00  0.00     0.017 A 
HETATM    7  C   UNL     1      42.251 -17.977   3.426  1.00  0.00     0.030 A 
HETATM    8  C   UNL     1      43.559 -18.254   3.018  1.00  0.00     0.002 A 
HETATM    9  C   UNL     1      44.096 -17.654   1.864  1.00  0.00     0.001 A 
HETATM   10  C   UNL     1      43.334 -16.766   1.097  1.00  0.00     0.013 A 
HETATM   11  H   UNL     1      39.618 -16.980   3.633  1.00  0.00     0.169 HD
ENDROOT
BRANCH   1  12
HETATM   12  C   UNL     1      41.510 -14.190   0.838  1.00  0.00     0.025 A 
HETATM   13  C   UNL     1      41.755 -13.327   1.912  1.00  0.00     0.016 A 
HETATM   14  C   UNL     1      41.598 -13.496   3.383  1.00  0.00     0.069 C 
HETATM   15  N   UNL     1      42.217 -12.138   1.407  1.00  0.00    -0.359 N 
HETATM   16  H   UNL     1      42.470 -11.331   1.961  1.00  0.00     0.166 HD
HETATM   17  C   UNL     1      42.273 -12.173   0.040  1.00  0.00     0.043 A 
HETATM   18  C   UNL     1      41.836 -13.437  -0.355  1.00  0.00     0.003 A 
HETATM   19  C   UNL     1      42.667 -11.179  -0.864  1.00  0.00     0.030 A 
HETATM   20  C   UNL     1      41.797 -13.706  -1.742  1.00  0.00     0.014 A 
HETATM   21  C   UNL     1      42.187 -12.727  -2.663  1.00  0.00     0.001 A 
HETATM   22  C   UNL     1      42.617 -11.478  -2.226  1.00  0.00     0.002 A 
ENDBRANCH   1  12
BRANCH   1  23
HETATM   23  O   UNL     1      40.652 -16.158  -0.393  1.00  0.00    -0.371 OA
HETATM   24  H   UNL     1      41.138 -16.996  -0.469  1.00  0.00     0.212 HD
ENDBRANCH   1  23
TORSDOF 2
ENDMDL
MODEL 8
REMARK VINA RESULT:      -8.0      2.122      2.963
REMARK  2 active torsions:
REMARK  status: ('A' for Active; 'I' for Inactive)
REMARK    1  A    between atoms: C_7  and  C_8 
REMARK    2  A    between atoms: C_8  and  O_9 
ROOT
HETATM    1  C   UNL     1      43.185 -15.720   2.889  1.00  0.00     0.199 A 
HETATM    2  C   UNL     1      43.533 -14.245   3.308  1.00  0.00     0.266 A 
HETATM    3  O   UNL     1      44.612 -13.775   3.638  1.00  0.00    -0.269 OA
HETATM    4  N   UNL     1      42.361 -13.494   3.183  1.00  0.00    -0.323 N 
HETATM    5  C   UNL     1      41.294 -14.281   2.781  1.00  0.00     0.045 A 
HETATM    6  C   UNL     1      41.701 -15.607   2.608  1.00  0.00     0.017 A 
HETATM    7  C   UNL     1      39.995 -13.870   2.567  1.00  0.00     0.030 A 
HETATM    8  C   UNL     1      39.075 -14.836   2.154  1.00  0.00     0.002 A 
HETATM    9  C   UNL     1      39.470 -16.173   1.964  1.00  0.00     0.001 A 
HETATM   10  C   UNL     1      40.794 -16.568   2.186  1.00  0.00     0.013 A 
HETATM   11  H   UNL     1      42.328 -12.506   3.385  1.00  0.00     0.169 HD
ENDROOT
BRANCH   1  12
HETATM   12  C   UNL     1      43.372 -16.711   4.021  1.00  0.00     0.025 A 
HETATM   13  C   UNL     1      43.180 -16.503   5.392  1.00  0.00     0.016 A 
HETATM   14  C   UNL     1      42.742 -15.310   6.168  1.00  0.00     0.069 C 
HETATM   15  N   UNL     1      43.479 -17.671   6.046  1.00  0.00    -0.359 N 
HETATM   16  H   UNL     1      43.432 -17.805   7.047  1.00  0.00     0.166 HD
HETATM   17  C   UNL     1      43.878 -18.640   5.166  1.00  0.00     0.043 A 
HETATM   18  C   UNL     1      43.827 -18.079   3.890  1.00  0.00     0.003 A 
HETATM   19  C   UNL     1      44.283 -19.958   5.410  1.00  0.00     0.030 A 
HETATM   20  C   UNL     1      44.210 -18.899   2.804  1.00  0.00     0.014 A 
HETATM   21  C   UNL     1      44.619 -20.220   3.027  1.00  0.00     0.001 A 
HETATM   22  C   UNL     1      44.654 -20.741   4.316  1.00  0.00     0.002 A 
ENDBRANCH   1  12
BRANCH   1  23
HETATM   23  O   UNL     1      43.840 -16.076   1.675  1.00  0.00    -0.371 OA
HETATM   24  H   UNL     1      43.293 -15.731   0.951  1.00  0.00     0.212 HD
ENDBRANCH   1  23
TORSDOF 2
ENDMDL
MODEL 9
REMARK VINA RESULT:      -8.0      2.511      5.213
REMARK  2 active torsions:
REMARK  status: ('A' for Active; 'I' for Inactive)
REMARK    1  A    between atoms: C_7  and  C_8 
REMARK    2  A    between atoms: C_8  and  O_9 
ROOT
HETATM    1  C   UNL     1      42.047 -17.223   5.308  1.00  0.00     0.199 A 
HETATM    2  C   UNL     1      42.720 -17.821   6.597  1.00  0.00     0.266 A 
HETATM    3  O   UNL     1      42.502 -17.554   7.770  1.00  0.00    -0.269 OA
HETATM    4  N   UNL     1      43.617 -18.804   6.174  1.00  0.00    -0.323 N 
HETATM    5  C   UNL     1      43.652 -18.902   4.792  1.00  0.00     0.045 A 
HETATM    6  C   UNL     1      42.768 -17.986   4.215  1.00  0.00     0.017 A 
HETATM    7  C   UNL     1      44.428 -19.758   4.041  1.00  0.00     0.030 A 
HETATM    8  C   UNL     1      44.297 -19.692   2.651  1.00  0.00     0.002 A 
HETATM    9  C   UNL     1      43.403 -18.784   2.054  1.00  0.00     0.001 A 
HETATM   10  C   UNL     1      42.625 -17.924   2.837  1.00  0.00     0.013 A 
HETATM   11  H   UNL     1      44.169 -19.348   6.822  1.00  0.00     0.169 HD
ENDROOT
BRANCH   1  12
HETATM   12  C   UNL     1      42.346 -15.748   5.121  1.00  0.00     0.025 A 
HETATM   13  C   UNL     1      43.400 -15.004   5.663  1.00  0.00     0.016 A 
HETATM   14  C   UNL     1      44.534 -15.382   6.551  1.00  0.00     0.069 C 
HETATM   15  N   UNL     1      43.269 -13.706   5.239  1.00  0.00    -0.359 N 
HETATM   16  H   UNL     1      43.893 -12.949   5.484  1.00  0.00     0.166 HD
HETATM   17  C   UNL     1      42.160 -13.556   4.451  1.00  0.00     0.043 A 
HETATM   18  C   UNL     1      41.555 -14.808   4.355  1.00  0.00     0.003 A 
HETATM   19  C   UNL     1      41.654 -12.407   3.830  1.00  0.00     0.030 A 
HETATM   20  C   UNL     1      40.370 -14.899   3.589  1.00  0.00     0.014 A 
HETATM   21  C   UNL     1      39.847 -13.763   2.961  1.00  0.00     0.001 A 
HETATM   22  C   UNL     1      40.483 -12.532   3.082  1.00  0.00     0.002 A 
ENDBRANCH   1  12
BRANCH   1  23
HETATM   23  O   UNL     1      40.665 -17.560   5.247  1.00  0.00    -0.371 OA
HETATM   24  H   UNL     1      40.177 -16.801   5.606  1.00  0.00     0.212 HD
ENDBRANCH   1  23
TORSDOF 2
ENDMDL
MODEL 10
REMARK VINA RESULT:      -7.7      2.679      5.247
REMARK  2 active torsions:
REMARK  status: ('A' for Active; 'I' for Inactive)
REMARK    1  A    between atoms: C_7  and  C_8 
REMARK    2  A    between atoms: C_8  and  O_9 
ROOT
HETATM    1  C   UNL     1      41.264 -16.343   3.964  1.00  0.00     0.199 A 
HETATM    2  C   UNL     1      41.078 -17.429   5.087  1.00  0.00     0.266 A 
HETATM    3  O   UNL     1      40.327 -17.416   6.050  1.00  0.00    -0.269 OA
HETATM    4  N   UNL     1      41.913 -18.502   4.763  1.00  0.00    -0.323 N 
HETATM    5  C   UNL     1      42.643 -18.249   3.612  1.00  0.00     0.045 A 
HETATM    6  C   UNL     1      42.327 -16.988   3.099  1.00  0.00     0.017 A 
HETATM    7  C   UNL     1      43.563 -19.084   3.015  1.00  0.00     0.030 A 
HETATM    8  C   UNL     1      44.181 -18.629   1.847  1.00  0.00     0.002 A 
HETATM    9  C   UNL     1      43.867 -17.366   1.311  1.00  0.00     0.001 A 
HETATM   10  C   UNL     1      42.929 -16.536   1.934  1.00  0.00     0.013 A 
HETATM   11  H   UNL     1      41.965 -19.336   5.328  1.00  0.00     0.169 HD
ENDROOT
BRANCH   1  12
HETATM   12  C   UNL     1      41.825 -15.039   4.498  1.00  0.00     0.025 A 
HETATM   13  C   UNL     1      41.543 -13.737   4.070  1.00  0.00     0.016 A 
HETATM   14  C   UNL     1      40.640 -13.210   3.010  1.00  0.00     0.069 C 
HETATM   15  N   UNL     1      42.287 -12.868   4.827  1.00  0.00    -0.359 N 
HETATM   16  H   UNL     1      42.282 -11.862   4.729  1.00  0.00     0.166 HD
HETATM   17  C   UNL     1      43.064 -13.543   5.730  1.00  0.00     0.043 A 
HETATM   18  C   UNL     1      42.806 -14.902   5.554  1.00  0.00     0.003 A 
HETATM   19  C   UNL     1      43.973 -13.048   6.673  1.00  0.00     0.030 A 
HETATM   20  C   UNL     1      43.510 -15.808   6.380  1.00  0.00     0.014 A 
HETATM   21  C   UNL     1      44.424 -15.334   7.329  1.00  0.00     0.001 A 
HETATM   22  C   UNL     1      44.651 -13.970   7.472  1.00  0.00     0.002 A 
ENDBRANCH   1  12
BRANCH   1  23
HETATM   23  O   UNL     1      40.081 -16.204   3.184  1.00  0.00    -0.371 OA
HETATM   24  H   UNL     1      40.129 -15.334   2.757  1.00  0.00     0.212 HD
ENDBRANCH   1  23
TORSDOF 2
ENDMDL
