MODEL 1
REMARK VINA RESULT:      -8.4      0.000      0.000
REMARK  7 active torsions:
REMARK  status: ('A' for Active; 'I' for Inactive)
REMARK    1  A    between atoms: C_2  and  O_3 
REMARK    2  A    between atoms: O_3  and  C_4 
REMARK    3  A    between atoms: C_9  and  C_10 
REMARK       I    between atoms: C_10  and  N_11 
REMARK    4  A    between atoms: N_11  and  C_12 
REMARK    5  A    between atoms: C_12  and  C_13 
REMARK    6  A    between atoms: C_14  and  C_15 
REMARK    7  A    between atoms: C_15  and  N_16 
ROOT
HETATM    1  C   UNL     1      41.882 -16.533   1.775  1.00  0.00     0.276 C 
HETATM    2  N   UNL     1      43.064 -17.257   1.752  1.00  0.00    -0.351 N 
HETATM    3  O   UNL     1      41.117 -16.612   2.736  1.00  0.00    -0.265 OA
HETATM    4  H   UNL     1      43.708 -17.045   0.999  1.00  0.00     0.163 HD
ENDROOT
BRANCH   2   5
HETATM    5  C   UNL     1      43.650 -17.689   2.996  1.00  0.00     0.162 C 
BRANCH   5   6
HETATM    6  C   UNL     1      43.932 -19.170   2.999  1.00  0.00    -0.033 A 
HETATM    7  C   UNL     1      44.430 -19.858   4.131  1.00  0.00    -0.025 A 
HETATM    8  C   UNL     1      44.657 -21.247   4.035  1.00  0.00     0.009 A 
HETATM    9  C   UNL     1      44.407 -21.939   2.852  1.00  0.00     0.001 A 
HETATM   10  C   UNL     1      43.915 -21.261   1.744  1.00  0.00     0.001 A 
HETATM   11  C   UNL     1      43.674 -19.892   1.819  1.00  0.00     0.009 A 
BRANCH   7  12
HETATM   12  C   UNL     1      44.733 -19.175   5.446  1.00  0.00     0.274 C 
BRANCH  12  13
HETATM   13  N   UNL     1      43.612 -19.311   6.455  1.00  0.00    -0.067 N 
HETATM   14  H   UNL     1      43.339 -20.300   6.469  1.00  0.00     0.280 HD
HETATM   15  C   UNL     1      42.409 -18.467   6.130  1.00  0.00     0.235 C 
HETATM   16  C   UNL     1      42.723 -17.120   6.747  1.00  0.00     0.029 C 
HETATM   17  C   UNL     1      43.655 -17.408   7.917  1.00  0.00     0.029 C 
HETATM   18  C   UNL     1      43.974 -18.892   7.857  1.00  0.00     0.235 C 
ENDBRANCH  12  13
ENDBRANCH   7  12
ENDBRANCH   5   6
ENDBRANCH   2   5
BRANCH   1  19
HETATM   19  C   UNL     1      41.673 -15.671   0.632  1.00  0.00     0.150 A 
HETATM   20  O   UNL     1      41.313 -16.288  -0.534  1.00  0.00    -0.304 OA
HETATM   21  C   UNL     1      41.081 -15.322  -1.457  1.00  0.00     0.087 A 
HETATM   22  C   UNL     1      41.323 -14.069  -0.913  1.00  0.00     0.009 A 
HETATM   23  C   UNL     1      40.652 -15.541  -2.762  1.00  0.00     0.041 A 
HETATM   24  C   UNL     1      41.147 -12.945  -1.743  1.00  0.00     0.051 A 
HETATM   25  C   UNL     1      41.713 -14.293   0.447  1.00  0.00    -0.009 A 
HETATM   26  C   UNL     1      40.736 -13.124  -3.075  1.00  0.00     0.069 A 
HETATM   27  C   UNL     1      40.477 -14.407  -3.567  1.00  0.00     0.039 A 
HETATM   28  C   UNL     1      42.096 -13.243   1.425  1.00  0.00     0.052 C 
BRANCH  26  29
HETATM   29  O   UNL     1      40.616 -11.961  -3.789  1.00  0.00    -0.351 OA
BRANCH  29  30
HETATM   30  C   UNL     1      41.505 -10.897  -3.446  1.00  0.00     0.171 C 
HETATM   31  C   UNL     1      42.462 -10.689  -4.606  1.00  0.00     0.034 C 
ENDBRANCH  29  30
ENDBRANCH  26  29
ENDBRANCH   1  19
TORSDOF 7
ENDMDL
MODEL 2
REMARK VINA RESULT:      -8.4      1.353      1.697
REMARK  7 active torsions:
REMARK  status: ('A' for Active; 'I' for Inactive)
REMARK    1  A    between atoms: C_2  and  O_3 
REMARK    2  A    between atoms: O_3  and  C_4 
REMARK    3  A    between atoms: C_9  and  C_10 
REMARK       I    between atoms: C_10  and  N_11 
REMARK    4  A    between atoms: N_11  and  C_12 
REMARK    5  A    between atoms: C_12  and  C_13 
REMARK    6  A    between atoms: C_14  and  C_15 
REMARK    7  A    between atoms: C_15  and  N_16 
ROOT
HETATM    1  C   UNL     1      41.640 -16.718   1.897  1.00  0.00     0.276 C 
HETATM    2  N   UNL     1      42.895 -17.274   1.698  1.00  0.00    -0.351 N 
HETATM    3  O   UNL     1      41.044 -16.883   2.961  1.00  0.00    -0.265 OA
HETATM    4  H   UNL     1      43.386 -16.990   0.858  1.00  0.00     0.163 HD
ENDROOT
BRANCH   2   5
HETATM    5  C   UNL     1      43.712 -17.597   2.842  1.00  0.00     0.162 C 
BRANCH   5   6
HETATM    6  C   UNL     1      43.979 -19.078   2.940  1.00  0.00    -0.033 A 
HETATM    7  C   UNL     1      44.435 -19.702   4.124  1.00  0.00    -0.025 A 
HETATM    8  C   UNL     1      44.652 -21.096   4.117  1.00  0.00     0.009 A 
HETATM    9  C   UNL     1      44.431 -21.854   2.969  1.00  0.00     0.001 A 
HETATM   10  C   UNL     1      43.980 -21.238   1.809  1.00  0.00     0.001 A 
HETATM   11  C   UNL     1      43.750 -19.865   1.796  1.00  0.00     0.009 A 
BRANCH   7  12
HETATM   12  C   UNL     1      44.704 -18.945   5.406  1.00  0.00     0.274 C 
BRANCH  12  13
HETATM   13  N   UNL     1      43.577 -19.063   6.411  1.00  0.00    -0.067 N 
HETATM   14  H   UNL     1      43.309 -20.053   6.446  1.00  0.00     0.280 HD
HETATM   15  C   UNL     1      42.372 -18.234   6.057  1.00  0.00     0.235 C 
HETATM   16  C   UNL     1      42.675 -16.871   6.644  1.00  0.00     0.029 C 
HETATM   17  C   UNL     1      43.599 -17.126   7.827  1.00  0.00     0.029 C 
HETATM   18  C   UNL     1      43.927 -18.609   7.804  1.00  0.00     0.235 C 
ENDBRANCH  12  13
ENDBRANCH   7  12
ENDBRANCH   5   6
ENDBRANCH   2   5
BRANCH   1  19
HETATM   19  C   UNL     1      41.148 -15.915   0.799  1.00  0.00     0.150 A 
HETATM   20  O   UNL     1      41.539 -16.299  -0.454  1.00  0.00    -0.304 OA
HETATM   21  C   UNL     1      40.916 -15.489  -1.346  1.00  0.00     0.087 A 
HETATM   22  C   UNL     1      40.144 -14.547  -0.683  1.00  0.00     0.009 A 
HETATM   23  C   UNL     1      41.020 -15.584  -2.731  1.00  0.00     0.041 A 
HETATM   24  C   UNL     1      39.438 -13.608  -1.459  1.00  0.00     0.051 A 
HETATM   25  C   UNL     1      40.297 -14.820   0.715  1.00  0.00    -0.009 A 
HETATM   26  C   UNL     1      39.534 -13.656  -2.861  1.00  0.00     0.069 A 
HETATM   27  C   UNL     1      40.303 -14.644  -3.483  1.00  0.00     0.039 A 
HETATM   28  C   UNL     1      39.673 -14.052   1.823  1.00  0.00     0.052 C 
BRANCH  26  29
HETATM   29  O   UNL     1      38.818 -12.683  -3.508  1.00  0.00    -0.351 OA
BRANCH  29  30
HETATM   30  C   UNL     1      37.407 -12.666  -3.290  1.00  0.00     0.171 C 
HETATM   31  C   UNL     1      36.796 -13.821  -4.064  1.00  0.00     0.034 C 
ENDBRANCH  29  30
ENDBRANCH  26  29
ENDBRANCH   1  19
TORSDOF 7
ENDMDL
MODEL 3
REMARK VINA RESULT:      -8.4      6.053     10.232
REMARK  7 active torsions:
REMARK  status: ('A' for Active; 'I' for Inactive)
REMARK    1  A    between atoms: C_2  and  O_3 
REMARK    2  A    between atoms: O_3  and  C_4 
REMARK    3  A    between atoms: C_9  and  C_10 
REMARK       I    between atoms: C_10  and  N_11 
REMARK    4  A    between atoms: N_11  and  C_12 
REMARK    5  A    between atoms: C_12  and  C_13 
REMARK    6  A    between atoms: C_14  and  C_15 
REMARK    7  A    between atoms: C_15  and  N_16 
ROOT
HETATM    1  C   UNL     1      44.830 -13.278   7.822  1.00  0.00     0.276 C 
HETATM    2  N   UNL     1      43.923 -14.302   7.591  1.00  0.00    -0.351 N 
HETATM    3  O   UNL     1      45.888 -13.225   7.196  1.00  0.00    -0.265 OA
HETATM    4  H   UNL     1      43.018 -14.212   8.039  1.00  0.00     0.163 HD
ENDROOT
BRANCH   2   5
HETATM    5  C   UNL     1      43.949 -14.994   6.326  1.00  0.00     0.162 C 
BRANCH   5   6
HETATM    6  C   UNL     1      43.835 -16.487   6.502  1.00  0.00    -0.033 A 
HETATM    7  C   UNL     1      43.607 -17.374   5.424  1.00  0.00    -0.025 A 
HETATM    8  C   UNL     1      43.520 -18.757   5.691  1.00  0.00     0.009 A 
HETATM    9  C   UNL     1      43.648 -19.251   6.987  1.00  0.00     0.001 A 
HETATM   10  C   UNL     1      43.875 -18.377   8.042  1.00  0.00     0.001 A 
HETATM   11  C   UNL     1      43.974 -17.009   7.801  1.00  0.00     0.009 A 
BRANCH   7  12
HETATM   12  C   UNL     1      43.451 -16.913   3.992  1.00  0.00     0.274 C 
BRANCH  12  13
HETATM   13  N   UNL     1      42.822 -17.961   3.098  1.00  0.00    -0.067 N 
HETATM   14  H   UNL     1      42.448 -18.694   3.712  1.00  0.00     0.280 HD
HETATM   15  C   UNL     1      43.793 -18.577   2.126  1.00  0.00     0.235 C 
HETATM   16  C   UNL     1      43.774 -17.637   0.938  1.00  0.00     0.029 C 
HETATM   17  C   UNL     1      42.396 -16.986   0.947  1.00  0.00     0.029 C 
HETATM   18  C   UNL     1      41.709 -17.453   2.219  1.00  0.00     0.235 C 
ENDBRANCH  12  13
ENDBRANCH   7  12
ENDBRANCH   5   6
ENDBRANCH   2   5
BRANCH   1  19
HETATM   19  C   UNL     1      44.402 -12.291   8.789  1.00  0.00     0.150 A 
HETATM   20  O   UNL     1      43.328 -11.522   8.434  1.00  0.00    -0.304 OA
HETATM   21  C   UNL     1      43.025 -10.725   9.489  1.00  0.00     0.087 A 
HETATM   22  C   UNL     1      43.920 -10.940  10.526  1.00  0.00     0.009 A 
HETATM   23  C   UNL     1      41.966  -9.824   9.540  1.00  0.00     0.041 A 
HETATM   24  C   UNL     1      43.763 -10.179  11.701  1.00  0.00     0.051 A 
HETATM   25  C   UNL     1      44.821 -11.957  10.072  1.00  0.00    -0.009 A 
HETATM   26  C   UNL     1      42.719  -9.241  11.785  1.00  0.00     0.069 A 
HETATM   27  C   UNL     1      41.825  -9.083  10.721  1.00  0.00     0.039 A 
HETATM   28  C   UNL     1      45.970 -12.503  10.837  1.00  0.00     0.052 C 
BRANCH  26  29
HETATM   29  O   UNL     1      42.677  -8.550  12.967  1.00  0.00    -0.351 OA
BRANCH  29  30
HETATM   30  C   UNL     1      43.252  -9.185  14.109  1.00  0.00     0.171 C 
HETATM   31  C   UNL     1      42.133  -9.843  14.897  1.00  0.00     0.034 C 
ENDBRANCH  29  30
ENDBRANCH  26  29
ENDBRANCH   1  19
TORSDOF 7
ENDMDL
MODEL 4
REMARK VINA RESULT:      -8.3      2.298      2.944
REMARK  7 active torsions:
REMARK  status: ('A' for Active; 'I' for Inactive)
REMARK    1  A    between atoms: C_2  and  O_3 
REMARK    2  A    between atoms: O_3  and  C_4 
REMARK    3  A    between atoms: C_9  and  C_10 
REMARK       I    between atoms: C_10  and  N_11 
REMARK    4  A    between atoms: N_11  and  C_12 
REMARK    5  A    between atoms: C_12  and  C_13 
REMARK    6  A    between atoms: C_14  and  C_15 
REMARK    7  A    between atoms: C_15  and  N_16 
ROOT
HETATM    1  C   UNL     1      40.739 -15.715   3.778  1.00  0.00     0.276 C 
HETATM    2  N   UNL     1      40.685 -17.088   3.965  1.00  0.00    -0.351 N 
HETATM    3  O   UNL     1      41.215 -14.983   4.646  1.00  0.00    -0.265 OA
HETATM    4  H   UNL     1      40.409 -17.641   3.162  1.00  0.00     0.163 HD
ENDROOT
BRANCH   2   5
HETATM    5  C   UNL     1      41.600 -17.710   4.890  1.00  0.00     0.162 C 
BRANCH   5   6
HETATM    6  C   UNL     1      42.661 -18.509   4.177  1.00  0.00    -0.033 A 
HETATM    7  C   UNL     1      43.567 -19.361   4.850  1.00  0.00    -0.025 A 
HETATM    8  C   UNL     1      44.522 -20.071   4.093  1.00  0.00     0.009 A 
HETATM    9  C   UNL     1      44.586 -19.939   2.707  1.00  0.00     0.001 A 
HETATM   10  C   UNL     1      43.693 -19.104   2.048  1.00  0.00     0.001 A 
HETATM   11  C   UNL     1      42.735 -18.401   2.775  1.00  0.00     0.009 A 
BRANCH   7  12
HETATM   12  C   UNL     1      43.564 -19.550   6.351  1.00  0.00     0.274 C 
BRANCH  12  13
HETATM   13  N   UNL     1      44.630 -18.735   7.052  1.00  0.00    -0.067 N 
HETATM   14  H   UNL     1      45.504 -19.271   6.996  1.00  0.00     0.280 HD
HETATM   15  C   UNL     1      44.313 -18.453   8.497  1.00  0.00     0.235 C 
HETATM   16  C   UNL     1      43.466 -17.199   8.452  1.00  0.00     0.029 C 
HETATM   17  C   UNL     1      43.892 -16.456   7.192  1.00  0.00     0.029 C 
HETATM   18  C   UNL     1      44.865 -17.368   6.464  1.00  0.00     0.235 C 
ENDBRANCH  12  13
ENDBRANCH   7  12
ENDBRANCH   5   6
ENDBRANCH   2   5
BRANCH   1  19
HETATM   19  C   UNL     1      40.254 -15.254   2.496  1.00  0.00     0.150 A 
HETATM   20  O   UNL     1      38.981 -14.756   2.474  1.00  0.00    -0.304 OA
HETATM   21  C   UNL     1      38.737 -14.300   1.220  1.00  0.00     0.087 A 
HETATM   22  C   UNL     1      39.835 -14.531   0.404  1.00  0.00     0.009 A 
HETATM   23  C   UNL     1      37.564 -13.680   0.801  1.00  0.00     0.041 A 
HETATM   24  C   UNL     1      39.748 -14.135  -0.945  1.00  0.00     0.051 A 
HETATM   25  C   UNL     1      40.823 -15.157   1.231  1.00  0.00    -0.009 A 
HETATM   26  C   UNL     1      38.572 -13.524  -1.414  1.00  0.00     0.069 A 
HETATM   27  C   UNL     1      37.504 -13.287  -0.542  1.00  0.00     0.039 A 
HETATM   28  C   UNL     1      42.164 -15.613   0.787  1.00  0.00     0.052 C 
BRANCH  26  29
HETATM   29  O   UNL     1      38.598 -13.199  -2.744  1.00  0.00    -0.351 OA
BRANCH  29  30
HETATM   30  C   UNL     1      37.354 -13.239  -3.445  1.00  0.00     0.171 C 
HETATM   31  C   UNL     1      37.185 -14.632  -4.026  1.00  0.00     0.034 C 
ENDBRANCH  29  30
ENDBRANCH  26  29
ENDBRANCH   1  19
TORSDOF 7
ENDMDL
MODEL 5
REMARK VINA RESULT:      -8.3      6.397     10.311
REMARK  7 active torsions:
REMARK  status: ('A' for Active; 'I' for Inactive)
REMARK    1  A    between atoms: C_2  and  O_3 
REMARK    2  A    between atoms: O_3  and  C_4 
REMARK    3  A    between atoms: C_9  and  C_10 
REMARK       I    between atoms: C_10  and  N_11 
REMARK    4  A    between atoms: N_11  and  C_12 
REMARK    5  A    between atoms: C_12  and  C_13 
REMARK    6  A    between atoms: C_14  and  C_15 
REMARK    7  A    between atoms: C_15  and  N_16 
ROOT
HETATM    1  C   UNL     1      44.729 -13.008   7.815  1.00  0.00     0.276 C 
HETATM    2  N   UNL     1      43.713 -13.722   7.199  1.00  0.00    -0.351 N 
HETATM    3  O   UNL     1      45.901 -13.163   7.472  1.00  0.00    -0.265 OA
HETATM    4  H   UNL     1      42.765 -13.450   7.433  1.00  0.00     0.163 HD
ENDROOT
BRANCH   2   5
HETATM    5  C   UNL     1      43.923 -14.242   5.870  1.00  0.00     0.162 C 
BRANCH   5   6
HETATM    6  C   UNL     1      43.756 -15.740   5.822  1.00  0.00    -0.033 A 
HETATM    7  C   UNL     1      42.895 -16.391   4.908  1.00  0.00    -0.025 A 
HETATM    8  C   UNL     1      42.811 -17.798   4.939  1.00  0.00     0.009 A 
HETATM    9  C   UNL     1      43.552 -18.545   5.852  1.00  0.00     0.001 A 
HETATM   10  C   UNL     1      44.399 -17.904   6.746  1.00  0.00     0.001 A 
HETATM   11  C   UNL     1      44.505 -16.515   6.727  1.00  0.00     0.009 A 
BRANCH   7  12
HETATM   12  C   UNL     1      42.054 -15.648   3.893  1.00  0.00     0.274 C 
BRANCH  12  13
HETATM   13  N   UNL     1      40.590 -15.579   4.274  1.00  0.00    -0.067 N 
HETATM   14  H   UNL     1      40.200 -16.518   4.137  1.00  0.00     0.280 HD
HETATM   15  C   UNL     1      39.805 -14.590   3.453  1.00  0.00     0.235 C 
HETATM   16  C   UNL     1      39.996 -13.274   4.178  1.00  0.00     0.029 C 
HETATM   17  C   UNL     1      40.239 -13.635   5.637  1.00  0.00     0.029 C 
HETATM   18  C   UNL     1      40.330 -15.151   5.695  1.00  0.00     0.235 C 
ENDBRANCH  12  13
ENDBRANCH   7  12
ENDBRANCH   5   6
ENDBRANCH   2   5
BRANCH   1  19
HETATM   19  C   UNL     1      44.289 -12.064   8.819  1.00  0.00     0.150 A 
HETATM   20  O   UNL     1      43.241 -11.257   8.472  1.00  0.00    -0.304 OA
HETATM   21  C   UNL     1      42.920 -10.510   9.557  1.00  0.00     0.087 A 
HETATM   22  C   UNL     1      43.778 -10.795  10.609  1.00  0.00     0.009 A 
HETATM   23  C   UNL     1      41.876  -9.592   9.623  1.00  0.00     0.041 A 
HETATM   24  C   UNL     1      43.597 -10.093  11.816  1.00  0.00     0.051 A 
HETATM   25  C   UNL     1      44.674 -11.805  10.130  1.00  0.00    -0.009 A 
HETATM   26  C   UNL     1      42.568  -9.141  11.917  1.00  0.00     0.069 A 
HETATM   27  C   UNL     1      41.711  -8.910  10.837  1.00  0.00     0.039 A 
HETATM   28  C   UNL     1      45.789 -12.412  10.899  1.00  0.00     0.052 C 
BRANCH  26  29
HETATM   29  O   UNL     1      42.502  -8.510  13.132  1.00  0.00    -0.351 OA
BRANCH  29  30
HETATM   30  C   UNL     1      43.153  -9.151  14.230  1.00  0.00     0.171 C 
HETATM   31  C   UNL     1      42.084  -9.676  15.171  1.00  0.00     0.034 C 
ENDBRANCH  29  30
ENDBRANCH  26  29
ENDBRANCH   1  19
TORSDOF 7
ENDMDL
MODEL 6
REMARK VINA RESULT:      -8.1      5.119      9.172
REMARK  7 active torsions:
REMARK  status: ('A' for Active; 'I' for Inactive)
REMARK    1  A    between atoms: C_2  and  O_3 
REMARK    2  A    between atoms: O_3  and  C_4 
REMARK    3  A    between atoms: C_9  and  C_10 
REMARK       I    between atoms: C_10  and  N_11 
REMARK    4  A    between atoms: N_11  and  C_12 
REMARK    5  A    between atoms: C_12  and  C_13 
REMARK    6  A    between atoms: C_14  and  C_15 
REMARK    7  A    between atoms: C_15  and  N_16 
ROOT
HETATM    1  C   UNL     1      41.074 -13.853   5.767  1.00  0.00     0.276 C 
HETATM    2  N   UNL     1      41.788 -12.895   6.473  1.00  0.00    -0.351 N 
HETATM    3  O   UNL     1      39.907 -13.645   5.435  1.00  0.00    -0.265 OA
HETATM    4  H   UNL     1      42.778 -13.071   6.596  1.00  0.00     0.163 HD
ENDROOT
BRANCH   2   5
HETATM    5  C   UNL     1      41.387 -11.513   6.388  1.00  0.00     0.162 C 
BRANCH   5   6
HETATM    6  C   UNL     1      40.787 -11.023   7.681  1.00  0.00    -0.033 A 
HETATM    7  C   UNL     1      41.566 -10.666   8.806  1.00  0.00    -0.025 A 
HETATM    8  C   UNL     1      40.911 -10.215   9.971  1.00  0.00     0.009 A 
HETATM    9  C   UNL     1      39.522 -10.124  10.027  1.00  0.00     0.001 A 
HETATM   10  C   UNL     1      38.759 -10.472   8.920  1.00  0.00     0.001 A 
HETATM   11  C   UNL     1      39.386 -10.911   7.756  1.00  0.00     0.009 A 
BRANCH   7  12
HETATM   12  C   UNL     1      43.077 -10.745   8.824  1.00  0.00     0.274 C 
BRANCH  12  13
HETATM   13  N   UNL     1      43.595 -12.064   9.357  1.00  0.00    -0.067 N 
HETATM   14  H   UNL     1      42.806 -12.720   9.351  1.00  0.00     0.280 HD
HETATM   15  C   UNL     1      44.151 -11.968  10.753  1.00  0.00     0.235 C 
HETATM   16  C   UNL     1      45.593 -11.551  10.549  1.00  0.00     0.029 C 
HETATM   17  C   UNL     1      45.988 -12.084   9.177  1.00  0.00     0.029 C 
HETATM   18  C   UNL     1      44.726 -12.663   8.561  1.00  0.00     0.235 C 
ENDBRANCH  12  13
ENDBRANCH   7  12
ENDBRANCH   5   6
ENDBRANCH   2   5
BRANCH   1  19
HETATM   19  C   UNL     1      41.822 -15.043   5.427  1.00  0.00     0.150 A 
HETATM   20  O   UNL     1      42.838 -15.383   6.276  1.00  0.00    -0.304 OA
HETATM   21  C   UNL     1      43.360 -16.558   5.846  1.00  0.00     0.087 A 
HETATM   22  C   UNL     1      42.716 -16.975   4.691  1.00  0.00     0.009 A 
HETATM   23  C   UNL     1      44.388 -17.259   6.468  1.00  0.00     0.041 A 
HETATM   24  C   UNL     1      43.145 -18.177   4.094  1.00  0.00     0.051 A 
HETATM   25  C   UNL     1      41.716 -15.988   4.413  1.00  0.00    -0.009 A 
HETATM   26  C   UNL     1      44.196 -18.904   4.678  1.00  0.00     0.069 A 
HETATM   27  C   UNL     1      44.794 -18.455   5.860  1.00  0.00     0.039 A 
HETATM   28  C   UNL     1      40.786 -15.996   3.255  1.00  0.00     0.052 C 
BRANCH  26  29
HETATM   29  O   UNL     1      44.538 -20.044   3.999  1.00  0.00    -0.351 OA
BRANCH  29  30
HETATM   30  C   UNL     1      44.485 -19.988   2.574  1.00  0.00     0.171 C 
HETATM   31  C   UNL     1      43.909 -21.300   2.071  1.00  0.00     0.034 C 
ENDBRANCH  29  30
ENDBRANCH  26  29
ENDBRANCH   1  19
TORSDOF 7
ENDMDL
MODEL 7
REMARK VINA RESULT:      -8.0      6.435     10.472
REMARK  7 active torsions:
REMARK  status: ('A' for Active; 'I' for Inactive)
REMARK    1  A    between atoms: C_2  and  O_3 
REMARK    2  A    between atoms: O_3  and  C_4 
REMARK    3  A    between atoms: C_9  and  C_10 
REMARK       I    between atoms: C_10  and  N_11 
REMARK    4  A    between atoms: N_11  and  C_12 
REMARK    5  A    between atoms: C_12  and  C_13 
REMARK    6  A    between atoms: C_14  and  C_15 
REMARK    7  A    between atoms: C_15  and  N_16 
ROOT
HETATM    1  C   UNL     1      44.912 -12.857   7.984  1.00  0.00     0.276 C 
HETATM    2  N   UNL     1      43.961 -13.694   7.420  1.00  0.00    -0.351 N 
HETATM    3  O   UNL     1      46.077 -12.875   7.585  1.00  0.00    -0.265 OA
HETATM    4  H   UNL     1      42.999 -13.534   7.698  1.00  0.00     0.163 HD
ENDROOT
BRANCH   2   5
HETATM    5  C   UNL     1      44.168 -14.200   6.086  1.00  0.00     0.162 C 
BRANCH   5   6
HETATM    6  C   UNL     1      42.865 -14.403   5.355  1.00  0.00    -0.033 A 
HETATM    7  C   UNL     1      42.456 -15.657   4.845  1.00  0.00    -0.025 A 
HETATM    8  C   UNL     1      41.215 -15.746   4.179  1.00  0.00     0.009 A 
HETATM    9  C   UNL     1      40.403 -14.626   4.013  1.00  0.00     0.001 A 
HETATM   10  C   UNL     1      40.807 -13.397   4.518  1.00  0.00     0.001 A 
HETATM   11  C   UNL     1      42.023 -13.288   5.188  1.00  0.00     0.009 A 
BRANCH   7  12
HETATM   12  C   UNL     1      43.285 -16.915   4.979  1.00  0.00     0.274 C 
BRANCH  12  13
HETATM   13  N   UNL     1      42.678 -17.926   5.929  1.00  0.00    -0.067 N 
HETATM   14  H   UNL     1      41.886 -18.359   5.440  1.00  0.00     0.280 HD
HETATM   15  C   UNL     1      42.194 -17.319   7.218  1.00  0.00     0.235 C 
HETATM   16  C   UNL     1      43.421 -17.308   8.106  1.00  0.00     0.029 C 
HETATM   17  C   UNL     1      44.293 -18.460   7.622  1.00  0.00     0.029 C 
HETATM   18  C   UNL     1      43.621 -19.013   6.376  1.00  0.00     0.235 C 
ENDBRANCH  12  13
ENDBRANCH   7  12
ENDBRANCH   5   6
ENDBRANCH   2   5
BRANCH   1  19
HETATM   19  C   UNL     1      44.410 -11.961   9.002  1.00  0.00     0.150 A 
HETATM   20  O   UNL     1      43.368 -11.154   8.639  1.00  0.00    -0.304 OA
HETATM   21  C   UNL     1      42.984 -10.457   9.736  1.00  0.00     0.087 A 
HETATM   22  C   UNL     1      43.795 -10.774  10.815  1.00  0.00     0.009 A 
HETATM   23  C   UNL     1      41.924  -9.557   9.789  1.00  0.00     0.041 A 
HETATM   24  C   UNL     1      43.547 -10.125  12.040  1.00  0.00     0.051 A 
HETATM   25  C   UNL     1      44.728 -11.751  10.339  1.00  0.00    -0.009 A 
HETATM   26  C   UNL     1      42.499  -9.191  12.130  1.00  0.00     0.069 A 
HETATM   27  C   UNL     1      41.692  -8.928  11.020  1.00  0.00     0.039 A 
HETATM   28  C   UNL     1      45.815 -12.375  11.136  1.00  0.00     0.052 C 
BRANCH  26  29
HETATM   29  O   UNL     1      42.366  -8.612  13.365  1.00  0.00    -0.351 OA
BRANCH  29  30
HETATM   30  C   UNL     1      42.879  -9.341  14.480  1.00  0.00     0.171 C 
HETATM   31  C   UNL     1      41.764  -9.491  15.500  1.00  0.00     0.034 C 
ENDBRANCH  29  30
ENDBRANCH  26  29
ENDBRANCH   1  19
TORSDOF 7
ENDMDL
MODEL 8
REMARK VINA RESULT:      -7.9      2.686      9.239
REMARK  7 active torsions:
REMARK  status: ('A' for Active; 'I' for Inactive)
REMARK    1  A    between atoms: C_2  and  O_3 
REMARK    2  A    between atoms: O_3  and  C_4 
REMARK    3  A    between atoms: C_9  and  C_10 
REMARK       I    between atoms: C_10  and  N_11 
REMARK    4  A    between atoms: N_11  and  C_12 
REMARK    5  A    between atoms: C_12  and  C_13 
REMARK    6  A    between atoms: C_14  and  C_15 
REMARK    7  A    between atoms: C_15  and  N_16 
ROOT
HETATM    1  C   UNL     1      39.951 -15.111   2.090  1.00  0.00     0.276 C 
HETATM    2  N   UNL     1      40.569 -13.899   1.821  1.00  0.00    -0.351 N 
HETATM    3  O   UNL     1      38.761 -15.280   1.822  1.00  0.00    -0.265 OA
HETATM    4  H   UNL     1      41.576 -13.871   1.939  1.00  0.00     0.163 HD
ENDROOT
BRANCH   2   5
HETATM    5  C   UNL     1      40.016 -13.035   0.807  1.00  0.00     0.162 C 
BRANCH   5   6
HETATM    6  C   UNL     1      41.068 -12.573  -0.169  1.00  0.00    -0.033 A 
HETATM    7  C   UNL     1      41.284 -13.193  -1.422  1.00  0.00    -0.025 A 
HETATM    8  C   UNL     1      42.291 -12.683  -2.268  1.00  0.00     0.009 A 
HETATM    9  C   UNL     1      43.070 -11.594  -1.885  1.00  0.00     0.001 A 
HETATM   10  C   UNL     1      42.854 -10.984  -0.656  1.00  0.00     0.001 A 
HETATM   11  C   UNL     1      41.858 -11.465   0.191  1.00  0.00     0.009 A 
BRANCH   7  12
HETATM   12  C   UNL     1      40.484 -14.384  -1.903  1.00  0.00     0.274 C 
BRANCH  12  13
HETATM   13  N   UNL     1      39.981 -14.225  -3.322  1.00  0.00    -0.067 N 
HETATM   14  H   UNL     1      40.788 -13.963  -3.899  1.00  0.00     0.280 HD
HETATM   15  C   UNL     1      38.910 -13.176  -3.462  1.00  0.00     0.235 C 
HETATM   16  C   UNL     1      37.625 -13.915  -3.151  1.00  0.00     0.029 C 
HETATM   17  C   UNL     1      37.881 -15.368  -3.530  1.00  0.00     0.029 C 
HETATM   18  C   UNL     1      39.350 -15.461  -3.908  1.00  0.00     0.235 C 
ENDBRANCH  12  13
ENDBRANCH   7  12
ENDBRANCH   5   6
ENDBRANCH   2   5
BRANCH   1  19
HETATM   19  C   UNL     1      40.819 -16.129   2.640  1.00  0.00     0.150 A 
HETATM   20  O   UNL     1      41.422 -16.962   1.739  1.00  0.00    -0.304 OA
HETATM   21  C   UNL     1      42.253 -17.783   2.427  1.00  0.00     0.087 A 
HETATM   22  C   UNL     1      42.171 -17.519   3.786  1.00  0.00     0.009 A 
HETATM   23  C   UNL     1      43.080 -18.749   1.864  1.00  0.00     0.041 A 
HETATM   24  C   UNL     1      42.959 -18.297   4.658  1.00  0.00     0.051 A 
HETATM   25  C   UNL     1      41.234 -16.445   3.929  1.00  0.00    -0.009 A 
HETATM   26  C   UNL     1      43.792 -19.299   4.130  1.00  0.00     0.069 A 
HETATM   27  C   UNL     1      43.860 -19.505   2.749  1.00  0.00     0.039 A 
HETATM   28  C   UNL     1      40.803 -15.833   5.211  1.00  0.00     0.052 C 
BRANCH  26  29
HETATM   29  O   UNL     1      44.496 -19.999   5.074  1.00  0.00    -0.351 OA
BRANCH  29  30
HETATM   30  C   UNL     1      44.146 -19.776   6.440  1.00  0.00     0.171 C 
HETATM   31  C   UNL     1      43.709 -21.101   7.038  1.00  0.00     0.034 C 
ENDBRANCH  29  30
ENDBRANCH  26  29
ENDBRANCH   1  19
TORSDOF 7
ENDMDL
MODEL 9
REMARK VINA RESULT:      -7.8      6.260     10.563
REMARK  7 active torsions:
REMARK  status: ('A' for Active; 'I' for Inactive)
REMARK    1  A    between atoms: C_2  and  O_3 
REMARK    2  A    between atoms: O_3  and  C_4 
REMARK    3  A    between atoms: C_9  and  C_10 
REMARK       I    between atoms: C_10  and  N_11 
REMARK    4  A    between atoms: N_11  and  C_12 
REMARK    5  A    between atoms: C_12  and  C_13 
REMARK    6  A    between atoms: C_14  and  C_15 
REMARK    7  A    between atoms: C_15  and  N_16 
ROOT
HETATM    1  C   UNL     1      44.752 -13.208   7.812  1.00  0.00     0.276 C 
HETATM    2  N   UNL     1      43.800 -14.178   7.537  1.00  0.00    -0.351 N 
HETATM    3  O   UNL     1      45.819 -13.187   7.199  1.00  0.00    -0.265 OA
HETATM    4  H   UNL     1      42.894 -14.059   7.977  1.00  0.00     0.163 HD
ENDROOT
BRANCH   2   5
HETATM    5  C   UNL     1      43.807 -14.828   6.250  1.00  0.00     0.162 C 
BRANCH   5   6
HETATM    6  C   UNL     1      42.524 -14.589   5.494  1.00  0.00    -0.033 A 
HETATM    7  C   UNL     1      42.013 -15.496   4.536  1.00  0.00    -0.025 A 
HETATM    8  C   UNL     1      40.802 -15.184   3.885  1.00  0.00     0.009 A 
HETATM    9  C   UNL     1      40.115 -14.005   4.165  1.00  0.00     0.001 A 
HETATM   10  C   UNL     1      40.617 -13.118   5.109  1.00  0.00     0.001 A 
HETATM   11  C   UNL     1      41.807 -13.410   5.771  1.00  0.00     0.009 A 
BRANCH   7  12
HETATM   12  C   UNL     1      42.705 -16.791   4.173  1.00  0.00     0.274 C 
BRANCH  12  13
HETATM   13  N   UNL     1      42.290 -17.324   2.818  1.00  0.00    -0.067 N 
HETATM   14  H   UNL     1      41.271 -17.219   2.753  1.00  0.00     0.280 HD
HETATM   15  C   UNL     1      42.655 -18.769   2.606  1.00  0.00     0.235 C 
HETATM   16  C   UNL     1      44.077 -18.720   2.087  1.00  0.00     0.029 C 
HETATM   17  C   UNL     1      44.216 -17.375   1.385  1.00  0.00     0.029 C 
HETATM   18  C   UNL     1      42.923 -16.620   1.645  1.00  0.00     0.235 C 
ENDBRANCH  12  13
ENDBRANCH   7  12
ENDBRANCH   5   6
ENDBRANCH   2   5
BRANCH   1  19
HETATM   19  C   UNL     1      44.360 -12.234   8.807  1.00  0.00     0.150 A 
HETATM   20  O   UNL     1      43.314 -11.419   8.477  1.00  0.00    -0.304 OA
HETATM   21  C   UNL     1      43.040 -10.641   9.554  1.00  0.00     0.087 A 
HETATM   22  C   UNL     1      43.929 -10.916  10.582  1.00  0.00     0.009 A 
HETATM   23  C   UNL     1      42.014  -9.706   9.633  1.00  0.00     0.041 A 
HETATM   24  C   UNL     1      43.801 -10.183  11.778  1.00  0.00     0.051 A 
HETATM   25  C   UNL     1      44.793 -11.951  10.097  1.00  0.00    -0.009 A 
HETATM   26  C   UNL     1      42.790  -9.212  11.891  1.00  0.00     0.069 A 
HETATM   27  C   UNL     1      41.901  -8.994  10.834  1.00  0.00     0.039 A 
HETATM   28  C   UNL     1      45.925 -12.558  10.843  1.00  0.00     0.052 C 
BRANCH  26  29
HETATM   29  O   UNL     1      42.775  -8.553  13.092  1.00  0.00    -0.351 OA
BRANCH  29  30
HETATM   30  C   UNL     1      42.988  -9.339  14.264  1.00  0.00     0.171 C 
HETATM   31  C   UNL     1      41.635  -9.796  14.778  1.00  0.00     0.034 C 
ENDBRANCH  29  30
ENDBRANCH  26  29
ENDBRANCH   1  19
TORSDOF 7
ENDMDL
MODEL 10
REMARK VINA RESULT:      -7.7      6.631     10.253
REMARK  7 active torsions:
REMARK  status: ('A' for Active; 'I' for Inactive)
REMARK    1  A    between atoms: C_2  and  O_3 
REMARK    2  A    between atoms: O_3  and  C_4 
REMARK    3  A    between atoms: C_9  and  C_10 
REMARK       I    between atoms: C_10  and  N_11 
REMARK    4  A    between atoms: N_11  and  C_12 
REMARK    5  A    between atoms: C_12  and  C_13 
REMARK    6  A    between atoms: C_14  and  C_15 
REMARK    7  A    between atoms: C_15  and  N_16 
ROOT
HETATM    1  C   UNL     1      44.598 -13.242   7.798  1.00  0.00     0.276 C 
HETATM    2  N   UNL     1      43.589 -12.295   7.889  1.00  0.00    -0.351 N 
HETATM    3  O   UNL     1      45.637 -13.115   8.447  1.00  0.00    -0.265 OA
HETATM    4  H   UNL     1      42.712 -12.527   7.438  1.00  0.00     0.163 HD
ENDROOT
BRANCH   2   5
HETATM    5  C   UNL     1      43.507 -11.464   9.064  1.00  0.00     0.162 C 
BRANCH   5   6
HETATM    6  C   UNL     1      42.394 -10.452   8.958  1.00  0.00    -0.033 A 
HETATM    7  C   UNL     1      41.987  -9.638  10.040  1.00  0.00    -0.025 A 
HETATM    8  C   UNL     1      40.937  -8.717   9.840  1.00  0.00     0.009 A 
HETATM    9  C   UNL     1      40.301  -8.606   8.605  1.00  0.00     0.001 A 
HETATM   10  C   UNL     1      40.706  -9.405   7.543  1.00  0.00     0.001 A 
HETATM   11  C   UNL     1      41.746 -10.314   7.716  1.00  0.00     0.009 A 
BRANCH   7  12
HETATM   12  C   UNL     1      42.623  -9.706  11.411  1.00  0.00     0.274 C 
BRANCH  12  13
HETATM   13  N   UNL     1      41.748  -9.121  12.500  1.00  0.00    -0.067 N 
HETATM   14  H   UNL     1      40.984  -8.618  12.033  1.00  0.00     0.280 HD
HETATM   15  C   UNL     1      42.481  -8.174  13.412  1.00  0.00     0.235 C 
HETATM   16  C   UNL     1      43.091  -9.074  14.467  1.00  0.00     0.029 C 
HETATM   17  C   UNL     1      42.179 -10.292  14.550  1.00  0.00     0.029 C 
HETATM   18  C   UNL     1      41.152 -10.136  13.441  1.00  0.00     0.235 C 
ENDBRANCH  12  13
ENDBRANCH   7  12
ENDBRANCH   5   6
ENDBRANCH   2   5
BRANCH   1  19
HETATM   19  C   UNL     1      44.300 -14.371   6.945  1.00  0.00     0.150 A 
HETATM   20  O   UNL     1      44.721 -15.594   7.390  1.00  0.00    -0.304 OA
HETATM   21  C   UNL     1      44.279 -16.527   6.511  1.00  0.00     0.087 A 
HETATM   22  C   UNL     1      43.600 -15.920   5.466  1.00  0.00     0.009 A 
HETATM   23  C   UNL     1      44.466 -17.901   6.633  1.00  0.00     0.041 A 
HETATM   24  C   UNL     1      43.086 -16.744   4.446  1.00  0.00     0.051 A 
HETATM   25  C   UNL     1      43.616 -14.514   5.743  1.00  0.00    -0.009 A 
HETATM   26  C   UNL     1      43.272 -18.135   4.519  1.00  0.00     0.069 A 
HETATM   27  C   UNL     1      43.940 -18.701   5.610  1.00  0.00     0.039 A 
HETATM   28  C   UNL     1      43.027 -13.454   4.887  1.00  0.00     0.052 C 
BRANCH  26  29
HETATM   29  O   UNL     1      42.744 -18.831   3.463  1.00  0.00    -0.351 OA
BRANCH  29  30
HETATM   30  C   UNL     1      43.594 -19.035   2.334  1.00  0.00     0.171 C 
HETATM   31  C   UNL     1      43.856 -20.526   2.206  1.00  0.00     0.034 C 
ENDBRANCH  29  30
ENDBRANCH  26  29
ENDBRANCH   1  19
TORSDOF 7
ENDMDL
