MODEL 1
REMARK VINA RESULT:      -8.2      0.000      0.000
REMARK  5 active torsions:
REMARK  status: ('A' for Active; 'I' for Inactive)
REMARK    1  A    between atoms: C_3  and  O_4 
REMARK    2  A    between atoms: O_4  and  C_5 
REMARK    3  A    between atoms: C_14  and  N_15 
REMARK       I    between atoms: N_15  and  C_16 
REMARK    4  A    between atoms: C_16  and  C_17 
REMARK    5  A    between atoms: C_17  and  C_18 
ROOT
HETATM    1  C   UNL     1      43.357 -17.917   3.517  1.00  0.00     0.076 A 
HETATM    2  C   UNL     1      43.367 -18.229   4.880  1.00  0.00     0.039 A 
HETATM    3  C   UNL     1      43.917 -19.439   5.312  1.00  0.00     0.025 A 
HETATM    4  C   UNL     1      44.434 -20.347   4.382  1.00  0.00     0.044 A 
HETATM    5  C   UNL     1      45.002 -21.587   4.826  1.00  0.00     0.099 C 
HETATM    6  N   UNL     1      45.460 -22.591   5.185  1.00  0.00    -0.191 NA
HETATM    7  C   UNL     1      44.391 -20.044   3.017  1.00  0.00     0.025 A 
HETATM    8  C   UNL     1      43.845 -18.832   2.585  1.00  0.00     0.039 A 
ENDROOT
BRANCH   1   9
HETATM    9  O   UNL     1      42.819 -16.750   3.023  1.00  0.00    -0.311 OA
BRANCH   9  10
HETATM   10  C   UNL     1      42.573 -15.730   3.918  1.00  0.00     0.078 A 
HETATM   11  C   UNL     1      41.246 -15.331   4.061  1.00  0.00     0.037 A 
HETATM   12  C   UNL     1      40.927 -14.303   4.944  1.00  0.00     0.005 A 
HETATM   13  C   UNL     1      41.938 -13.675   5.677  1.00  0.00     0.029 A 
HETATM   14  C   UNL     1      43.279 -14.051   5.520  1.00  0.00     0.037 A 
HETATM   15  C   UNL     1      43.591 -15.070   4.618  1.00  0.00     0.066 A 
BRANCH  14  16
HETATM   16  N   UNL     1      44.235 -13.382   6.314  1.00  0.00    -0.327 N 
HETATM   17  C   UNL     1      44.674 -13.738   7.579  1.00  0.00     0.227 C 
HETATM   18  O   UNL     1      44.361 -14.756   8.194  1.00  0.00    -0.273 OA
HETATM   19  H   UNL     1      44.622 -12.536   5.916  1.00  0.00     0.169 HD
BRANCH  17  20
HETATM   20  C   UNL     1      45.632 -12.718   8.199  1.00  0.00     0.159 C 
BRANCH  20  21
HETATM   21  C   UNL     1      45.028 -12.066   9.405  1.00  0.00     0.017 A 
HETATM   22  N   UNL     1      44.034 -12.671  10.143  1.00  0.00    -0.369 N 
HETATM   23  H   UNL     1      43.615 -13.569   9.917  1.00  0.00     0.165 HD
HETATM   24  C   UNL     1      43.677 -11.863  11.188  1.00  0.00     0.088 A 
HETATM   25  C   UNL     1      44.457 -10.731  11.135  1.00  0.00     0.019 A 
HETATM   26  C   UNL     1      45.311 -10.858  10.013  1.00  0.00     0.027 A 
ENDBRANCH  20  21
ENDBRANCH  17  20
ENDBRANCH  14  16
ENDBRANCH   9  10
ENDBRANCH   1   9
TORSDOF 5
ENDMDL
MODEL 2
REMARK VINA RESULT:      -7.9      4.821      8.367
REMARK  5 active torsions:
REMARK  status: ('A' for Active; 'I' for Inactive)
REMARK    1  A    between atoms: C_3  and  O_4 
REMARK    2  A    between atoms: O_4  and  C_5 
REMARK    3  A    between atoms: C_14  and  N_15 
REMARK       I    between atoms: N_15  and  C_16 
REMARK    4  A    between atoms: C_16  and  C_17 
REMARK    5  A    between atoms: C_17  and  C_18 
ROOT
HETATM    1  C   UNL     1      43.580 -17.067   2.823  1.00  0.00     0.076 A 
HETATM    2  C   UNL     1      43.777 -17.627   1.557  1.00  0.00     0.039 A 
HETATM    3  C   UNL     1      43.989 -19.003   1.430  1.00  0.00     0.025 A 
HETATM    4  C   UNL     1      44.028 -19.815   2.570  1.00  0.00     0.044 A 
HETATM    5  C   UNL     1      44.242 -21.227   2.439  1.00  0.00     0.099 C 
HETATM    6  N   UNL     1      44.418 -22.369   2.334  1.00  0.00    -0.191 NA
HETATM    7  C   UNL     1      43.864 -19.243   3.836  1.00  0.00     0.025 A 
HETATM    8  C   UNL     1      43.647 -17.869   3.962  1.00  0.00     0.039 A 
ENDROOT
BRANCH   1   9
HETATM    9  O   UNL     1      43.379 -15.719   3.020  1.00  0.00    -0.311 OA
BRANCH   9  10
HETATM   10  C   UNL     1      42.079 -15.261   3.021  1.00  0.00     0.078 A 
HETATM   11  C   UNL     1      41.555 -14.874   4.252  1.00  0.00     0.037 A 
HETATM   12  C   UNL     1      40.245 -14.407   4.327  1.00  0.00     0.005 A 
HETATM   13  C   UNL     1      39.463 -14.334   3.171  1.00  0.00     0.029 A 
HETATM   14  C   UNL     1      39.973 -14.747   1.932  1.00  0.00     0.037 A 
HETATM   15  C   UNL     1      41.281 -15.232   1.870  1.00  0.00     0.066 A 
BRANCH  14  16
HETATM   16  N   UNL     1      39.126 -14.619   0.810  1.00  0.00    -0.327 N 
HETATM   17  C   UNL     1      39.200 -13.668  -0.195  1.00  0.00     0.227 C 
HETATM   18  O   UNL     1      40.077 -12.815  -0.322  1.00  0.00    -0.273 OA
HETATM   19  H   UNL     1      38.370 -15.289   0.753  1.00  0.00     0.169 HD
BRANCH  17  20
HETATM   20  C   UNL     1      38.046 -13.752  -1.196  1.00  0.00     0.159 C 
BRANCH  20  21
HETATM   21  C   UNL     1      38.409 -14.599  -2.377  1.00  0.00     0.017 A 
HETATM   22  N   UNL     1      39.684 -15.090  -2.562  1.00  0.00    -0.369 N 
HETATM   23  H   UNL     1      40.469 -14.894  -1.948  1.00  0.00     0.165 HD
HETATM   24  C   UNL     1      39.730 -15.835  -3.708  1.00  0.00     0.088 A 
HETATM   25  C   UNL     1      38.472 -15.840  -4.264  1.00  0.00     0.019 A 
HETATM   26  C   UNL     1      37.637 -15.063  -3.425  1.00  0.00     0.027 A 
ENDBRANCH  20  21
ENDBRANCH  17  20
ENDBRANCH  14  16
ENDBRANCH   9  10
ENDBRANCH   1   9
TORSDOF 5
ENDMDL
MODEL 3
REMARK VINA RESULT:      -7.9      5.253      8.713
REMARK  5 active torsions:
REMARK  status: ('A' for Active; 'I' for Inactive)
REMARK    1  A    between atoms: C_3  and  O_4 
REMARK    2  A    between atoms: O_4  and  C_5 
REMARK    3  A    between atoms: C_14  and  N_15 
REMARK       I    between atoms: N_15  and  C_16 
REMARK    4  A    between atoms: C_16  and  C_17 
REMARK    5  A    between atoms: C_17  and  C_18 
ROOT
HETATM    1  C   UNL     1      43.940 -17.651   3.359  1.00  0.00     0.076 A 
HETATM    2  C   UNL     1      44.109 -18.655   2.401  1.00  0.00     0.039 A 
HETATM    3  C   UNL     1      44.389 -19.962   2.806  1.00  0.00     0.025 A 
HETATM    4  C   UNL     1      44.525 -20.262   4.166  1.00  0.00     0.044 A 
HETATM    5  C   UNL     1      44.810 -21.605   4.581  1.00  0.00     0.099 C 
HETATM    6  N   UNL     1      45.042 -22.691   4.918  1.00  0.00    -0.191 NA
HETATM    7  C   UNL     1      44.388 -19.247   5.119  1.00  0.00     0.025 A 
HETATM    8  C   UNL     1      44.102 -17.940   4.714  1.00  0.00     0.039 A 
ENDROOT
BRANCH   1   9
HETATM    9  O   UNL     1      43.675 -16.340   3.029  1.00  0.00    -0.311 OA
BRANCH   9  10
HETATM   10  C   UNL     1      42.486 -16.072   2.384  1.00  0.00     0.078 A 
HETATM   11  C   UNL     1      41.409 -15.703   3.187  1.00  0.00     0.037 A 
HETATM   12  C   UNL     1      40.177 -15.424   2.602  1.00  0.00     0.005 A 
HETATM   13  C   UNL     1      40.025 -15.520   1.216  1.00  0.00     0.029 A 
HETATM   14  C   UNL     1      41.095 -15.918   0.402  1.00  0.00     0.037 A 
HETATM   15  C   UNL     1      42.322 -16.214   1.000  1.00  0.00     0.066 A 
BRANCH  14  16
HETATM   16  N   UNL     1      40.865 -15.968  -0.989  1.00  0.00    -0.327 N 
HETATM   17  C   UNL     1      41.044 -14.946  -1.908  1.00  0.00     0.227 C 
HETATM   18  O   UNL     1      41.518 -13.836  -1.674  1.00  0.00    -0.273 OA
HETATM   19  H   UNL     1      40.509 -16.846  -1.344  1.00  0.00     0.169 HD
BRANCH  17  20
HETATM   20  C   UNL     1      40.582 -15.311  -3.320  1.00  0.00     0.159 C 
BRANCH  20  21
HETATM   21  C   UNL     1      39.171 -14.870  -3.564  1.00  0.00     0.017 A 
HETATM   22  N   UNL     1      38.803 -13.543  -3.527  1.00  0.00    -0.369 N 
HETATM   23  H   UNL     1      39.433 -12.778  -3.303  1.00  0.00     0.165 HD
HETATM   24  C   UNL     1      37.466 -13.427  -3.795  1.00  0.00     0.088 A 
HETATM   25  C   UNL     1      36.967 -14.688  -4.021  1.00  0.00     0.019 A 
HETATM   26  C   UNL     1      38.040 -15.600  -3.879  1.00  0.00     0.027 A 
ENDBRANCH  20  21
ENDBRANCH  17  20
ENDBRANCH  14  16
ENDBRANCH   9  10
ENDBRANCH   1   9
TORSDOF 5
ENDMDL
MODEL 4
REMARK VINA RESULT:      -7.8      2.586      4.039
REMARK  5 active torsions:
REMARK  status: ('A' for Active; 'I' for Inactive)
REMARK    1  A    between atoms: C_3  and  O_4 
REMARK    2  A    between atoms: O_4  and  C_5 
REMARK    3  A    between atoms: C_14  and  N_15 
REMARK       I    between atoms: N_15  and  C_16 
REMARK    4  A    between atoms: C_16  and  C_17 
REMARK    5  A    between atoms: C_17  and  C_18 
ROOT
HETATM    1  C   UNL     1      43.022 -18.154   3.138  1.00  0.00     0.076 A 
HETATM    2  C   UNL     1      43.847 -17.838   2.054  1.00  0.00     0.039 A 
HETATM    3  C   UNL     1      43.335 -17.105   0.981  1.00  0.00     0.025 A 
HETATM    4  C   UNL     1      41.993 -16.708   0.979  1.00  0.00     0.044 A 
HETATM    5  C   UNL     1      41.468 -15.952  -0.122  1.00  0.00     0.099 C 
HETATM    6  N   UNL     1      41.043 -15.342  -1.013  1.00  0.00    -0.191 NA
HETATM    7  C   UNL     1      41.163 -17.055   2.050  1.00  0.00     0.025 A 
HETATM    8  C   UNL     1      41.677 -17.784   3.127  1.00  0.00     0.039 A 
ENDROOT
BRANCH   1   9
HETATM    9  O   UNL     1      43.459 -18.883   4.221  1.00  0.00    -0.311 OA
BRANCH   9  10
HETATM   10  C   UNL     1      43.492 -18.251   5.446  1.00  0.00     0.078 A 
HETATM   11  C   UNL     1      43.652 -19.065   6.565  1.00  0.00     0.037 A 
HETATM   12  C   UNL     1      43.688 -18.493   7.834  1.00  0.00     0.005 A 
HETATM   13  C   UNL     1      43.559 -17.108   7.978  1.00  0.00     0.029 A 
HETATM   14  C   UNL     1      43.370 -16.284   6.860  1.00  0.00     0.037 A 
HETATM   15  C   UNL     1      43.316 -16.869   5.594  1.00  0.00     0.066 A 
BRANCH  14  16
HETATM   16  N   UNL     1      43.272 -14.895   7.092  1.00  0.00    -0.327 N 
HETATM   17  C   UNL     1      44.307 -13.975   7.139  1.00  0.00     0.227 C 
HETATM   18  O   UNL     1      45.492 -14.205   6.902  1.00  0.00    -0.273 OA
HETATM   19  H   UNL     1      42.338 -14.544   7.262  1.00  0.00     0.169 HD
BRANCH  17  20
HETATM   20  C   UNL     1      43.852 -12.568   7.531  1.00  0.00     0.159 C 
BRANCH  20  21
HETATM   21  C   UNL     1      44.398 -12.171   8.868  1.00  0.00     0.017 A 
HETATM   22  N   UNL     1      43.797 -12.555  10.047  1.00  0.00    -0.369 N 
HETATM   23  H   UNL     1      42.938 -13.094  10.105  1.00  0.00     0.165 HD
HETATM   24  C   UNL     1      44.509 -12.064  11.108  1.00  0.00     0.088 A 
HETATM   25  C   UNL     1      45.587 -11.369  10.613  1.00  0.00     0.019 A 
HETATM   26  C   UNL     1      45.521 -11.437   9.201  1.00  0.00     0.027 A 
ENDBRANCH  20  21
ENDBRANCH  17  20
ENDBRANCH  14  16
ENDBRANCH   9  10
ENDBRANCH   1   9
TORSDOF 5
ENDMDL
MODEL 5
REMARK VINA RESULT:      -7.8      4.156      7.426
REMARK  5 active torsions:
REMARK  status: ('A' for Active; 'I' for Inactive)
REMARK    1  A    between atoms: C_3  and  O_4 
REMARK    2  A    between atoms: O_4  and  C_5 
REMARK    3  A    between atoms: C_14  and  N_15 
REMARK       I    between atoms: N_15  and  C_16 
REMARK    4  A    between atoms: C_16  and  C_17 
REMARK    5  A    between atoms: C_17  and  C_18 
ROOT
HETATM    1  C   UNL     1      43.697 -17.220   3.535  1.00  0.00     0.076 A 
HETATM    2  C   UNL     1      43.594 -17.420   2.155  1.00  0.00     0.039 A 
HETATM    3  C   UNL     1      43.680 -18.713   1.632  1.00  0.00     0.025 A 
HETATM    4  C   UNL     1      43.895 -19.802   2.484  1.00  0.00     0.044 A 
HETATM    5  C   UNL     1      43.980 -21.130   1.946  1.00  0.00     0.099 C 
HETATM    6  N   UNL     1      44.052 -22.203   1.512  1.00  0.00    -0.191 NA
HETATM    7  C   UNL     1      44.031 -19.592   3.860  1.00  0.00     0.025 A 
HETATM    8  C   UNL     1      43.938 -18.300   4.384  1.00  0.00     0.039 A 
ENDROOT
BRANCH   1   9
HETATM    9  O   UNL     1      43.633 -15.973   4.115  1.00  0.00    -0.311 OA
BRANCH   9  10
HETATM   10  C   UNL     1      42.383 -15.431   4.328  1.00  0.00     0.078 A 
HETATM   11  C   UNL     1      41.859 -15.555   5.613  1.00  0.00     0.037 A 
HETATM   12  C   UNL     1      40.599 -15.036   5.896  1.00  0.00     0.005 A 
HETATM   13  C   UNL     1      39.865 -14.399   4.892  1.00  0.00     0.029 A 
HETATM   14  C   UNL     1      40.372 -14.292   3.589  1.00  0.00     0.037 A 
HETATM   15  C   UNL     1      41.629 -14.833   3.310  1.00  0.00     0.066 A 
BRANCH  14  16
HETATM   16  N   UNL     1      39.578 -13.614   2.640  1.00  0.00    -0.327 N 
HETATM   17  C   UNL     1      38.687 -14.171   1.737  1.00  0.00     0.227 C 
HETATM   18  O   UNL     1      38.375 -15.359   1.667  1.00  0.00    -0.273 OA
HETATM   19  H   UNL     1      39.695 -12.609   2.609  1.00  0.00     0.169 HD
BRANCH  17  20
HETATM   20  C   UNL     1      38.082 -13.150   0.772  1.00  0.00     0.159 C 
BRANCH  20  21
HETATM   21  C   UNL     1      38.443 -13.461  -0.648  1.00  0.00     0.017 A 
HETATM   22  N   UNL     1      39.352 -14.445  -0.973  1.00  0.00    -0.369 N 
HETATM   23  H   UNL     1      39.864 -15.001  -0.294  1.00  0.00     0.165 HD
HETATM   24  C   UNL     1      39.483 -14.521  -2.333  1.00  0.00     0.088 A 
HETATM   25  C   UNL     1      38.641 -13.589  -2.894  1.00  0.00     0.019 A 
HETATM   26  C   UNL     1      37.983 -12.921  -1.834  1.00  0.00     0.027 A 
ENDBRANCH  20  21
ENDBRANCH  17  20
ENDBRANCH  14  16
ENDBRANCH   9  10
ENDBRANCH   1   9
TORSDOF 5
ENDMDL
MODEL 6
REMARK VINA RESULT:      -7.7      6.164      9.436
REMARK  5 active torsions:
REMARK  status: ('A' for Active; 'I' for Inactive)
REMARK    1  A    between atoms: C_3  and  O_4 
REMARK    2  A    between atoms: O_4  and  C_5 
REMARK    3  A    between atoms: C_14  and  N_15 
REMARK       I    between atoms: N_15  and  C_16 
REMARK    4  A    between atoms: C_16  and  C_17 
REMARK    5  A    between atoms: C_17  and  C_18 
ROOT
HETATM    1  C   UNL     1      39.436 -14.211  -2.407  1.00  0.00     0.076 A 
HETATM    2  C   UNL     1      39.147 -15.372  -3.130  1.00  0.00     0.039 A 
HETATM    3  C   UNL     1      38.020 -15.415  -3.956  1.00  0.00     0.025 A 
HETATM    4  C   UNL     1      37.170 -14.306  -4.041  1.00  0.00     0.044 A 
HETATM    5  C   UNL     1      36.016 -14.349  -4.892  1.00  0.00     0.099 C 
HETATM    6  N   UNL     1      35.081 -14.384  -5.579  1.00  0.00    -0.191 NA
HETATM    7  C   UNL     1      37.446 -13.159  -3.290  1.00  0.00     0.025 A 
HETATM    8  C   UNL     1      38.576 -13.114  -2.468  1.00  0.00     0.039 A 
ENDROOT
BRANCH   1   9
HETATM    9  O   UNL     1      40.521 -14.106  -1.566  1.00  0.00    -0.311 OA
BRANCH   9  10
HETATM   10  C   UNL     1      40.488 -14.823  -0.389  1.00  0.00     0.078 A 
HETATM   11  C   UNL     1      39.649 -14.340   0.613  1.00  0.00     0.037 A 
HETATM   12  C   UNL     1      39.571 -15.013   1.830  1.00  0.00     0.005 A 
HETATM   13  C   UNL     1      40.336 -16.163   2.042  1.00  0.00     0.029 A 
HETATM   14  C   UNL     1      41.204 -16.641   1.049  1.00  0.00     0.037 A 
HETATM   15  C   UNL     1      41.289 -15.949  -0.160  1.00  0.00     0.066 A 
BRANCH  14  16
HETATM   16  N   UNL     1      41.923 -17.822   1.334  1.00  0.00    -0.327 N 
HETATM   17  C   UNL     1      43.288 -17.946   1.536  1.00  0.00     0.227 C 
HETATM   18  O   UNL     1      44.101 -17.024   1.581  1.00  0.00    -0.273 OA
HETATM   19  H   UNL     1      41.374 -18.671   1.374  1.00  0.00     0.169 HD
BRANCH  17  20
HETATM   20  C   UNL     1      43.748 -19.395   1.706  1.00  0.00     0.159 C 
BRANCH  20  21
HETATM   21  C   UNL     1      44.144 -19.679   3.123  1.00  0.00     0.017 A 
HETATM   22  N   UNL     1      43.943 -18.767   4.135  1.00  0.00    -0.369 N 
HETATM   23  H   UNL     1      43.552 -17.838   4.003  1.00  0.00     0.165 HD
HETATM   24  C   UNL     1      44.385 -19.288   5.321  1.00  0.00     0.088 A 
HETATM   25  C   UNL     1      44.864 -20.554   5.077  1.00  0.00     0.019 A 
HETATM   26  C   UNL     1      44.710 -20.804   3.692  1.00  0.00     0.027 A 
ENDBRANCH  20  21
ENDBRANCH  17  20
ENDBRANCH  14  16
ENDBRANCH   9  10
ENDBRANCH   1   9
TORSDOF 5
ENDMDL
MODEL 7
REMARK VINA RESULT:      -7.7      4.530      8.617
REMARK  5 active torsions:
REMARK  status: ('A' for Active; 'I' for Inactive)
REMARK    1  A    between atoms: C_3  and  O_4 
REMARK    2  A    between atoms: O_4  and  C_5 
REMARK    3  A    between atoms: C_14  and  N_15 
REMARK       I    between atoms: N_15  and  C_16 
REMARK    4  A    between atoms: C_16  and  C_17 
REMARK    5  A    between atoms: C_17  and  C_18 
ROOT
HETATM    1  C   UNL     1      42.792 -16.158   5.427  1.00  0.00     0.076 A 
HETATM    2  C   UNL     1      42.662 -14.781   5.222  1.00  0.00     0.039 A 
HETATM    3  C   UNL     1      43.378 -13.887   6.024  1.00  0.00     0.025 A 
HETATM    4  C   UNL     1      44.205 -14.369   7.045  1.00  0.00     0.044 A 
HETATM    5  C   UNL     1      44.943 -13.452   7.865  1.00  0.00     0.099 C 
HETATM    6  N   UNL     1      45.538 -12.710   8.530  1.00  0.00    -0.191 NA
HETATM    7  C   UNL     1      44.306 -15.746   7.267  1.00  0.00     0.025 A 
HETATM    8  C   UNL     1      43.594 -16.640   6.462  1.00  0.00     0.039 A 
ENDROOT
BRANCH   1   9
HETATM    9  O   UNL     1      42.107 -17.092   4.683  1.00  0.00    -0.311 OA
BRANCH   9  10
HETATM   10  C   UNL     1      42.539 -17.323   3.394  1.00  0.00     0.078 A 
HETATM   11  C   UNL     1      43.656 -18.142   3.248  1.00  0.00     0.037 A 
HETATM   12  C   UNL     1      44.150 -18.413   1.975  1.00  0.00     0.005 A 
HETATM   13  C   UNL     1      43.527 -17.860   0.853  1.00  0.00     0.029 A 
HETATM   14  C   UNL     1      42.419 -17.012   0.991  1.00  0.00     0.037 A 
HETATM   15  C   UNL     1      41.943 -16.731   2.273  1.00  0.00     0.066 A 
BRANCH  14  16
HETATM   16  N   UNL     1      41.835 -16.514  -0.193  1.00  0.00    -0.327 N 
HETATM   17  C   UNL     1      41.490 -15.201  -0.472  1.00  0.00     0.227 C 
HETATM   18  O   UNL     1      41.713 -14.226   0.243  1.00  0.00    -0.273 OA
HETATM   19  H   UNL     1      41.630 -17.203  -0.905  1.00  0.00     0.169 HD
BRANCH  17  20
HETATM   20  C   UNL     1      40.767 -15.035  -1.810  1.00  0.00     0.159 C 
BRANCH  20  21
HETATM   21  C   UNL     1      41.262 -13.831  -2.552  1.00  0.00     0.017 A 
HETATM   22  N   UNL     1      42.502 -13.282  -2.309  1.00  0.00    -0.369 N 
HETATM   23  H   UNL     1      43.151 -13.616  -1.602  1.00  0.00     0.165 HD
HETATM   24  C   UNL     1      42.699 -12.205  -3.131  1.00  0.00     0.088 A 
HETATM   25  C   UNL     1      41.583 -12.065  -3.922  1.00  0.00     0.019 A 
HETATM   26  C   UNL     1      40.677 -13.090  -3.561  1.00  0.00     0.027 A 
ENDBRANCH  20  21
ENDBRANCH  17  20
ENDBRANCH  14  16
ENDBRANCH   9  10
ENDBRANCH   1   9
TORSDOF 5
ENDMDL
MODEL 8
REMARK VINA RESULT:      -7.6      4.834      9.048
REMARK  5 active torsions:
REMARK  status: ('A' for Active; 'I' for Inactive)
REMARK    1  A    between atoms: C_3  and  O_4 
REMARK    2  A    between atoms: O_4  and  C_5 
REMARK    3  A    between atoms: C_14  and  N_15 
REMARK       I    between atoms: N_15  and  C_16 
REMARK    4  A    between atoms: C_16  and  C_17 
REMARK    5  A    between atoms: C_17  and  C_18 
ROOT
HETATM    1  C   UNL     1      42.105 -15.769   5.492  1.00  0.00     0.076 A 
HETATM    2  C   UNL     1      42.126 -14.375   5.392  1.00  0.00     0.039 A 
HETATM    3  C   UNL     1      43.085 -13.642   6.097  1.00  0.00     0.025 A 
HETATM    4  C   UNL     1      44.006 -14.300   6.920  1.00  0.00     0.044 A 
HETATM    5  C   UNL     1      44.992 -13.547   7.641  1.00  0.00     0.099 C 
HETATM    6  N   UNL     1      45.789 -12.939   8.225  1.00  0.00    -0.191 NA
HETATM    7  C   UNL     1      43.958 -15.693   7.042  1.00  0.00     0.025 A 
HETATM    8  C   UNL     1      43.003 -16.426   6.333  1.00  0.00     0.039 A 
ENDROOT
BRANCH   1   9
HETATM    9  O   UNL     1      41.180 -16.551   4.835  1.00  0.00    -0.311 OA
BRANCH   9  10
HETATM   10  C   UNL     1      41.328 -16.706   3.474  1.00  0.00     0.078 A 
HETATM   11  C   UNL     1      42.160 -17.741   3.050  1.00  0.00     0.037 A 
HETATM   12  C   UNL     1      42.359 -17.952   1.688  1.00  0.00     0.005 A 
HETATM   13  C   UNL     1      41.730 -17.123   0.755  1.00  0.00     0.029 A 
HETATM   14  C   UNL     1      40.913 -16.062   1.172  1.00  0.00     0.037 A 
HETATM   15  C   UNL     1      40.735 -15.848   2.540  1.00  0.00     0.066 A 
BRANCH  14  16
HETATM   16  N   UNL     1      40.297 -15.288   0.165  1.00  0.00    -0.327 N 
HETATM   17  C   UNL     1      40.803 -14.155  -0.451  1.00  0.00     0.227 C 
HETATM   18  O   UNL     1      41.923 -13.675  -0.280  1.00  0.00    -0.273 OA
HETATM   19  H   UNL     1      39.374 -15.590  -0.117  1.00  0.00     0.169 HD
BRANCH  17  20
HETATM   20  C   UNL     1      39.815 -13.496  -1.416  1.00  0.00     0.159 C 
BRANCH  20  21
HETATM   21  C   UNL     1      39.336 -14.466  -2.453  1.00  0.00     0.017 A 
HETATM   22  N   UNL     1      37.998 -14.738  -2.636  1.00  0.00    -0.369 N 
HETATM   23  H   UNL     1      37.248 -14.342  -2.077  1.00  0.00     0.165 HD
HETATM   24  C   UNL     1      37.846 -15.646  -3.649  1.00  0.00     0.088 A 
HETATM   25  C   UNL     1      39.096 -15.953  -4.135  1.00  0.00     0.019 A 
HETATM   26  C   UNL     1      40.036 -15.209  -3.384  1.00  0.00     0.027 A 
ENDBRANCH  20  21
ENDBRANCH  17  20
ENDBRANCH  14  16
ENDBRANCH   9  10
ENDBRANCH   1   9
TORSDOF 5
ENDMDL
MODEL 9
REMARK VINA RESULT:      -7.4      2.432      2.730
REMARK  5 active torsions:
REMARK  status: ('A' for Active; 'I' for Inactive)
REMARK    1  A    between atoms: C_3  and  O_4 
REMARK    2  A    between atoms: O_4  and  C_5 
REMARK    3  A    between atoms: C_14  and  N_15 
REMARK       I    between atoms: N_15  and  C_16 
REMARK    4  A    between atoms: C_16  and  C_17 
REMARK    5  A    between atoms: C_17  and  C_18 
ROOT
HETATM    1  C   UNL     1      43.648 -16.860   2.792  1.00  0.00     0.076 A 
HETATM    2  C   UNL     1      43.873 -17.672   3.908  1.00  0.00     0.039 A 
HETATM    3  C   UNL     1      44.033 -19.051   3.744  1.00  0.00     0.025 A 
HETATM    4  C   UNL     1      43.943 -19.621   2.470  1.00  0.00     0.044 A 
HETATM    5  C   UNL     1      44.110 -21.036   2.302  1.00  0.00     0.099 C 
HETATM    6  N   UNL     1      44.243 -22.181   2.166  1.00  0.00    -0.191 NA
HETATM    7  C   UNL     1      43.684 -18.808   1.361  1.00  0.00     0.025 A 
HETATM    8  C   UNL     1      43.530 -17.429   1.524  1.00  0.00     0.039 A 
ENDROOT
BRANCH   1   9
HETATM    9  O   UNL     1      43.469 -15.498   2.884  1.00  0.00    -0.311 OA
BRANCH   9  10
HETATM   10  C   UNL     1      42.605 -15.031   3.852  1.00  0.00     0.078 A 
HETATM   11  C   UNL     1      41.343 -15.619   3.898  1.00  0.00     0.037 A 
HETATM   12  C   UNL     1      40.418 -15.191   4.847  1.00  0.00     0.005 A 
HETATM   13  C   UNL     1      40.758 -14.173   5.743  1.00  0.00     0.029 A 
HETATM   14  C   UNL     1      42.016 -13.557   5.686  1.00  0.00     0.037 A 
HETATM   15  C   UNL     1      42.930 -13.980   4.719  1.00  0.00     0.066 A 
BRANCH  14  16
HETATM   16  N   UNL     1      42.288 -12.554   6.641  1.00  0.00    -0.327 N 
HETATM   17  C   UNL     1      41.565 -11.394   6.871  1.00  0.00     0.227 C 
HETATM   18  O   UNL     1      40.506 -11.081   6.328  1.00  0.00    -0.273 OA
HETATM   19  H   UNL     1      43.117 -12.697   7.204  1.00  0.00     0.169 HD
BRANCH  17  20
HETATM   20  C   UNL     1      42.212 -10.470   7.905  1.00  0.00     0.159 C 
BRANCH  20  21
HETATM   21  C   UNL     1      41.619 -10.675   9.266  1.00  0.00     0.017 A 
HETATM   22  N   UNL     1      40.349 -11.179   9.442  1.00  0.00    -0.369 N 
HETATM   23  H   UNL     1      39.713 -11.414   8.685  1.00  0.00     0.165 HD
HETATM   24  C   UNL     1      40.070 -11.271  10.778  1.00  0.00     0.088 A 
HETATM   25  C   UNL     1      41.174 -10.836  11.474  1.00  0.00     0.019 A 
HETATM   26  C   UNL     1      42.153 -10.462  10.522  1.00  0.00     0.027 A 
ENDBRANCH  20  21
ENDBRANCH  17  20
ENDBRANCH  14  16
ENDBRANCH   9  10
ENDBRANCH   1   9
TORSDOF 5
ENDMDL
MODEL 10
REMARK VINA RESULT:      -7.3      4.811      7.257
REMARK  5 active torsions:
REMARK  status: ('A' for Active; 'I' for Inactive)
REMARK    1  A    between atoms: C_3  and  O_4 
REMARK    2  A    between atoms: O_4  and  C_5 
REMARK    3  A    between atoms: C_14  and  N_15 
REMARK       I    between atoms: N_15  and  C_16 
REMARK    4  A    between atoms: C_16  and  C_17 
REMARK    5  A    between atoms: C_17  and  C_18 
ROOT
HETATM    1  C   UNL     1      43.663 -17.288   3.661  1.00  0.00     0.076 A 
HETATM    2  C   UNL     1      43.722 -17.449   2.274  1.00  0.00     0.039 A 
HETATM    3  C   UNL     1      43.854 -18.729   1.727  1.00  0.00     0.025 A 
HETATM    4  C   UNL     1      43.951 -19.844   2.566  1.00  0.00     0.044 A 
HETATM    5  C   UNL     1      44.083 -21.157   2.004  1.00  0.00     0.099 C 
HETATM    6  N   UNL     1      44.192 -22.220   1.550  1.00  0.00    -0.191 NA
HETATM    7  C   UNL     1      43.925 -19.674   3.955  1.00  0.00     0.025 A 
HETATM    8  C   UNL     1      43.788 -18.395   4.502  1.00  0.00     0.039 A 
ENDROOT
BRANCH   1   9
HETATM    9  O   UNL     1      43.547 -16.057   4.266  1.00  0.00    -0.311 OA
BRANCH   9  10
HETATM   10  C   UNL     1      42.582 -15.198   3.785  1.00  0.00     0.078 A 
HETATM   11  C   UNL     1      41.263 -15.484   4.132  1.00  0.00     0.037 A 
HETATM   12  C   UNL     1      40.237 -14.662   3.675  1.00  0.00     0.005 A 
HETATM   13  C   UNL     1      40.533 -13.558   2.869  1.00  0.00     0.029 A 
HETATM   14  C   UNL     1      41.854 -13.278   2.493  1.00  0.00     0.037 A 
HETATM   15  C   UNL     1      42.874 -14.120   2.940  1.00  0.00     0.066 A 
BRANCH  14  16
HETATM   16  N   UNL     1      42.069 -12.133   1.697  1.00  0.00    -0.327 N 
HETATM   17  C   UNL     1      42.180 -12.077   0.317  1.00  0.00     0.227 C 
HETATM   18  O   UNL     1      42.026 -13.017  -0.461  1.00  0.00    -0.273 OA
HETATM   19  H   UNL     1      42.174 -11.262   2.201  1.00  0.00     0.169 HD
BRANCH  17  20
HETATM   20  C   UNL     1      42.532 -10.684  -0.208  1.00  0.00     0.159 C 
BRANCH  20  21
HETATM   21  C   UNL     1      42.215 -10.555  -1.667  1.00  0.00     0.017 A 
HETATM   22  N   UNL     1      41.042 -11.038  -2.206  1.00  0.00    -0.369 N 
HETATM   23  H   UNL     1      40.331 -11.539  -1.681  1.00  0.00     0.165 HD
HETATM   24  C   UNL     1      41.010 -10.776  -3.549  1.00  0.00     0.088 A 
HETATM   25  C   UNL     1      42.164 -10.105  -3.880  1.00  0.00     0.019 A 
HETATM   26  C   UNL     1      42.924  -9.962  -2.694  1.00  0.00     0.027 A 
ENDBRANCH  20  21
ENDBRANCH  17  20
ENDBRANCH  14  16
ENDBRANCH   9  10
ENDBRANCH   1   9
TORSDOF 5
ENDMDL
