MODEL 1
REMARK VINA RESULT:     -10.0      0.000      0.000
REMARK  6 active torsions:
REMARK  status: ('A' for Active; 'I' for Inactive)
REMARK    1  A    between atoms: C_2  and  O_3 
REMARK    2  A    between atoms: C_2  and  C_4 
REMARK    3  A    between atoms: C_6  and  N_7 
REMARK       I    between atoms: N_7  and  C_8 
REMARK    4  A    between atoms: C_8  and  C_9 
REMARK    5  A    between atoms: C_12  and  C_13 
REMARK    6  A    between atoms: C_18  and  C_19 
ROOT
HETATM    1  C   UNL     1      41.590 -15.906   3.500  1.00  0.00     0.096 C 
HETATM    2  C   UNL     1      42.475 -16.830   4.023  1.00  0.00     0.138 C 
HETATM    3  N   UNL     1      42.913 -16.299   5.216  1.00  0.00    -0.240 N 
HETATM    4  C   UNL     1      43.882 -16.933   6.093  1.00  0.00     0.221 C 
HETATM    5  C   UNL     1      44.066 -18.415   5.718  1.00  0.00     0.066 C 
HETATM    6  C   UNL     1      44.155 -18.571   4.196  1.00  0.00     0.118 C 
HETATM    7  N   UNL     1      42.933 -18.035   3.581  1.00  0.00    -0.365 N 
HETATM    8  N   UNL     1      42.522 -15.030   5.406  1.00  0.00    -0.181 NA
HETATM    9  C   UNL     1      41.691 -14.805   4.385  1.00  0.00     0.160 C 
HETATM   10  H   UNL     1      42.929 -18.204   2.572  1.00  0.00     0.161 HD
ENDROOT
BRANCH   1  11
HETATM   11  C   UNL     1      40.762 -15.983   2.307  1.00  0.00     0.261 C 
HETATM   12  N   UNL     1      40.728 -14.804   1.586  1.00  0.00    -0.323 N 
HETATM   13  H   UNL     1      41.347 -14.074   1.922  1.00  0.00     0.169 HD
HETATM   14  O   UNL     1      40.206 -17.032   2.004  1.00  0.00    -0.267 OA
BRANCH  12  15
HETATM   15  C   UNL     1      40.023 -14.535   0.397  1.00  0.00     0.035 A 
HETATM   16  C   UNL     1      40.482 -14.879  -0.877  1.00  0.00     0.039 A 
HETATM   17  C   UNL     1      39.731 -14.572  -2.026  1.00  0.00    -0.028 A 
HETATM   18  C   UNL     1      38.509 -13.902  -1.878  1.00  0.00     0.010 A 
HETATM   19  C   UNL     1      38.038 -13.566  -0.611  1.00  0.00     0.003 A 
HETATM   20  C   UNL     1      38.790 -13.885   0.521  1.00  0.00     0.029 A 
BRANCH  17  21
HETATM   21  C   UNL     1      40.268 -14.935  -3.394  1.00  0.00     0.147 C 
HETATM   22  C   UNL     1      39.389 -15.957  -4.100  1.00  0.00     0.044 C 
BRANCH  21  23
HETATM   23  O   UNL     1      41.591 -15.459  -3.287  1.00  0.00    -0.391 OA
HETATM   24  H   UNL     1      41.522 -16.420  -3.423  1.00  0.00     0.210 HD
ENDBRANCH  21  23
ENDBRANCH  17  21
ENDBRANCH  12  15
ENDBRANCH   1  11
BRANCH   4  25
HETATM   25  C   UNL     1      43.477 -16.826   7.548  1.00  0.00     0.409 C 
HETATM   26  F   UNL     1      43.815 -15.653   8.119  1.00  0.00    -0.169 F 
HETATM   27  F   UNL     1      42.151 -17.023   7.729  1.00  0.00    -0.169 F 
HETATM   28  F   UNL     1      44.113 -17.791   8.266  1.00  0.00    -0.169 F 
ENDBRANCH   4  25
BRANCH   6  29
HETATM   29  C   UNL     1      44.333 -20.018   3.782  1.00  0.00    -0.035 A 
HETATM   30  C   UNL     1      44.127 -20.430   2.455  1.00  0.00     0.009 A 
HETATM   31  C   UNL     1      44.284 -21.769   2.091  1.00  0.00     0.001 A 
HETATM   32  C   UNL     1      44.650 -22.712   3.049  1.00  0.00     0.000 A 
HETATM   33  C   UNL     1      44.863 -22.319   4.368  1.00  0.00     0.001 A 
HETATM   34  C   UNL     1      44.706 -20.980   4.733  1.00  0.00     0.009 A 
ENDBRANCH   6  29
TORSDOF 6
ENDMDL
MODEL 2
REMARK VINA RESULT:      -9.7      1.316      1.604
REMARK  6 active torsions:
REMARK  status: ('A' for Active; 'I' for Inactive)
REMARK    1  A    between atoms: C_2  and  O_3 
REMARK    2  A    between atoms: C_2  and  C_4 
REMARK    3  A    between atoms: C_6  and  N_7 
REMARK       I    between atoms: N_7  and  C_8 
REMARK    4  A    between atoms: C_8  and  C_9 
REMARK    5  A    between atoms: C_12  and  C_13 
REMARK    6  A    between atoms: C_18  and  C_19 
ROOT
HETATM    1  C   UNL     1      42.816 -14.797   4.139  1.00  0.00     0.096 C 
HETATM    2  C   UNL     1      43.241 -16.078   4.440  1.00  0.00     0.138 C 
HETATM    3  N   UNL     1      43.509 -16.077   5.791  1.00  0.00    -0.240 N 
HETATM    4  C   UNL     1      44.009 -17.223   6.532  1.00  0.00     0.221 C 
HETATM    5  C   UNL     1      43.842 -18.516   5.710  1.00  0.00     0.066 C 
HETATM    6  C   UNL     1      44.250 -18.275   4.253  1.00  0.00     0.118 C 
HETATM    7  N   UNL     1      43.425 -17.199   3.689  1.00  0.00    -0.365 N 
HETATM    8  N   UNL     1      43.468 -14.854   6.340  1.00  0.00    -0.181 NA
HETATM    9  C   UNL     1      43.012 -14.084   5.347  1.00  0.00     0.160 C 
HETATM   10  H   UNL     1      43.617 -17.077   2.691  1.00  0.00     0.161 HD
ENDROOT
BRANCH   1  11
HETATM   11  C   UNL     1      42.319 -14.253   2.885  1.00  0.00     0.261 C 
HETATM   12  N   UNL     1      41.141 -14.840   2.463  1.00  0.00    -0.323 N 
HETATM   13  H   UNL     1      40.727 -15.497   3.115  1.00  0.00     0.169 HD
HETATM   14  O   UNL     1      42.914 -13.340   2.326  1.00  0.00    -0.267 OA
BRANCH  12  15
HETATM   15  C   UNL     1      40.402 -14.559   1.297  1.00  0.00     0.035 A 
HETATM   16  C   UNL     1      40.914 -14.675   0.002  1.00  0.00     0.039 A 
HETATM   17  C   UNL     1      40.124 -14.369  -1.120  1.00  0.00    -0.028 A 
HETATM   18  C   UNL     1      38.806 -13.934  -0.924  1.00  0.00     0.010 A 
HETATM   19  C   UNL     1      38.283 -13.828   0.362  1.00  0.00     0.003 A 
HETATM   20  C   UNL     1      39.076 -14.143   1.467  1.00  0.00     0.029 A 
BRANCH  17  21
HETATM   21  C   UNL     1      40.717 -14.479  -2.509  1.00  0.00     0.147 C 
HETATM   22  C   UNL     1      40.488 -15.853  -3.121  1.00  0.00     0.044 C 
BRANCH  21  23
HETATM   23  O   UNL     1      42.120 -14.217  -2.474  1.00  0.00    -0.391 OA
HETATM   24  H   UNL     1      42.563 -15.080  -2.401  1.00  0.00     0.210 HD
ENDBRANCH  21  23
ENDBRANCH  17  21
ENDBRANCH  12  15
ENDBRANCH   1  11
BRANCH   4  25
HETATM   25  C   UNL     1      43.310 -17.379   7.865  1.00  0.00     0.409 C 
HETATM   26  F   UNL     1      43.584 -18.542   8.489  1.00  0.00    -0.169 F 
HETATM   27  F   UNL     1      43.590 -16.364   8.715  1.00  0.00    -0.169 F 
HETATM   28  F   UNL     1      41.962 -17.362   7.675  1.00  0.00    -0.169 F 
ENDBRANCH   4  25
BRANCH   6  29
HETATM   29  C   UNL     1      44.098 -19.523   3.407  1.00  0.00    -0.035 A 
HETATM   30  C   UNL     1      43.276 -19.538   2.267  1.00  0.00     0.009 A 
HETATM   31  C   UNL     1      43.136 -20.699   1.504  1.00  0.00     0.001 A 
HETATM   32  C   UNL     1      43.817 -21.858   1.869  1.00  0.00     0.000 A 
HETATM   33  C   UNL     1      44.640 -21.858   2.993  1.00  0.00     0.001 A 
HETATM   34  C   UNL     1      44.780 -20.698   3.758  1.00  0.00     0.009 A 
ENDBRANCH   6  29
TORSDOF 6
ENDMDL
MODEL 3
REMARK VINA RESULT:      -9.2      1.631      2.139
REMARK  6 active torsions:
REMARK  status: ('A' for Active; 'I' for Inactive)
REMARK    1  A    between atoms: C_2  and  O_3 
REMARK    2  A    between atoms: C_2  and  C_4 
REMARK    3  A    between atoms: C_6  and  N_7 
REMARK       I    between atoms: N_7  and  C_8 
REMARK    4  A    between atoms: C_8  and  C_9 
REMARK    5  A    between atoms: C_12  and  C_13 
REMARK    6  A    between atoms: C_18  and  C_19 
ROOT
HETATM    1  C   UNL     1      41.965 -15.232   3.811  1.00  0.00     0.096 C 
HETATM    2  C   UNL     1      42.673 -16.351   4.210  1.00  0.00     0.138 C 
HETATM    3  N   UNL     1      43.051 -16.113   5.513  1.00  0.00    -0.240 N 
HETATM    4  C   UNL     1      43.842 -17.025   6.321  1.00  0.00     0.221 C 
HETATM    5  C   UNL     1      43.879 -18.425   5.680  1.00  0.00     0.066 C 
HETATM    6  C   UNL     1      44.100 -18.311   4.168  1.00  0.00     0.118 C 
HETATM    7  N   UNL     1      43.022 -17.507   3.579  1.00  0.00    -0.365 N 
HETATM    8  N   UNL     1      42.802 -14.858   5.916  1.00  0.00    -0.181 NA
HETATM    9  C   UNL     1      42.111 -14.336   4.898  1.00  0.00     0.160 C 
HETATM   10  H   UNL     1      43.098 -17.487   2.559  1.00  0.00     0.161 HD
ENDROOT
BRANCH   1  11
HETATM   11  C   UNL     1      41.259 -14.975   2.566  1.00  0.00     0.261 C 
HETATM   12  N   UNL     1      42.091 -14.936   1.463  1.00  0.00    -0.323 N 
HETATM   13  H   UNL     1      43.059 -15.181   1.642  1.00  0.00     0.169 HD
HETATM   14  O   UNL     1      40.040 -14.850   2.559  1.00  0.00    -0.267 OA
BRANCH  12  15
HETATM   15  C   UNL     1      41.738 -14.702   0.120  1.00  0.00     0.035 A 
HETATM   16  C   UNL     1      41.779 -13.445  -0.490  1.00  0.00     0.039 A 
HETATM   17  C   UNL     1      41.403 -13.278  -1.834  1.00  0.00    -0.028 A 
HETATM   18  C   UNL     1      40.976 -14.397  -2.563  1.00  0.00     0.010 A 
HETATM   19  C   UNL     1      40.945 -15.655  -1.968  1.00  0.00     0.003 A 
HETATM   20  C   UNL     1      41.327 -15.807  -0.635  1.00  0.00     0.029 A 
BRANCH  17  21
HETATM   21  C   UNL     1      41.433 -11.898  -2.458  1.00  0.00     0.147 C 
HETATM   22  C   UNL     1      42.144 -11.895  -3.803  1.00  0.00     0.044 C 
BRANCH  21  23
HETATM   23  O   UNL     1      42.084 -10.973  -1.589  1.00  0.00    -0.391 OA
HETATM   24  H   UNL     1      43.034 -11.181  -1.621  1.00  0.00     0.210 HD
ENDBRANCH  21  23
ENDBRANCH  17  21
ENDBRANCH  12  15
ENDBRANCH   1  11
BRANCH   4  25
HETATM   25  C   UNL     1      43.309 -17.130   7.734  1.00  0.00     0.409 C 
HETATM   26  F   UNL     1      43.658 -16.094   8.523  1.00  0.00    -0.169 F 
HETATM   27  F   UNL     1      41.962 -17.256   7.768  1.00  0.00    -0.169 F 
HETATM   28  F   UNL     1      43.817 -18.244   8.328  1.00  0.00    -0.169 F 
ENDBRANCH   4  25
BRANCH   6  29
HETATM   29  C   UNL     1      44.140 -19.669   3.496  1.00  0.00    -0.035 A 
HETATM   30  C   UNL     1      44.713 -20.783   4.132  1.00  0.00     0.009 A 
HETATM   31  C   UNL     1      44.753 -22.025   3.496  1.00  0.00     0.001 A 
HETATM   32  C   UNL     1      44.218 -22.170   2.218  1.00  0.00     0.000 A 
HETATM   33  C   UNL     1      43.641 -21.076   1.576  1.00  0.00     0.001 A 
HETATM   34  C   UNL     1      43.601 -19.833   2.211  1.00  0.00     0.009 A 
ENDBRANCH   6  29
TORSDOF 6
ENDMDL
MODEL 4
REMARK VINA RESULT:      -8.9      3.838      8.516
REMARK  6 active torsions:
REMARK  status: ('A' for Active; 'I' for Inactive)
REMARK    1  A    between atoms: C_2  and  O_3 
REMARK    2  A    between atoms: C_2  and  C_4 
REMARK    3  A    between atoms: C_6  and  N_7 
REMARK       I    between atoms: N_7  and  C_8 
REMARK    4  A    between atoms: C_8  and  C_9 
REMARK    5  A    between atoms: C_12  and  C_13 
REMARK    6  A    between atoms: C_18  and  C_19 
ROOT
HETATM    1  C   UNL     1      42.190 -14.880   1.832  1.00  0.00     0.096 C 
HETATM    2  C   UNL     1      41.556 -14.307   0.744  1.00  0.00     0.138 C 
HETATM    3  N   UNL     1      41.905 -12.976   0.764  1.00  0.00    -0.240 N 
HETATM    4  C   UNL     1      41.437 -11.987  -0.193  1.00  0.00     0.221 C 
HETATM    5  C   UNL     1      40.823 -12.675  -1.427  1.00  0.00     0.066 C 
HETATM    6  C   UNL     1      39.931 -13.844  -0.995  1.00  0.00     0.118 C 
HETATM    7  N   UNL     1      40.728 -14.802  -0.218  1.00  0.00    -0.365 N 
HETATM    8  N   UNL     1      42.557 -12.614   1.879  1.00  0.00    -0.181 NA
HETATM    9  C   UNL     1      42.761 -13.775   2.509  1.00  0.00     0.160 C 
HETATM   10  H   UNL     1      40.178 -15.634   0.009  1.00  0.00     0.161 HD
ENDROOT
BRANCH   1  11
HETATM   11  C   UNL     1      42.247 -16.273   2.246  1.00  0.00     0.261 C 
HETATM   12  N   UNL     1      43.439 -16.613   2.859  1.00  0.00    -0.323 N 
HETATM   13  H   UNL     1      44.076 -15.841   3.025  1.00  0.00     0.169 HD
HETATM   14  O   UNL     1      41.285 -17.012   2.074  1.00  0.00    -0.267 OA
BRANCH  12  15
HETATM   15  C   UNL     1      43.824 -17.868   3.367  1.00  0.00     0.035 A 
HETATM   16  C   UNL     1      43.967 -19.017   2.584  1.00  0.00     0.039 A 
HETATM   17  C   UNL     1      44.346 -20.243   3.157  1.00  0.00    -0.028 A 
HETATM   18  C   UNL     1      44.575 -20.305   4.538  1.00  0.00     0.010 A 
HETATM   19  C   UNL     1      44.448 -19.163   5.325  1.00  0.00     0.003 A 
HETATM   20  C   UNL     1      44.079 -17.950   4.741  1.00  0.00     0.029 A 
BRANCH  17  21
HETATM   21  C   UNL     1      44.466 -21.476   2.285  1.00  0.00     0.147 C 
HETATM   22  C   UNL     1      43.213 -21.711   1.453  1.00  0.00     0.044 C 
BRANCH  21  23
HETATM   23  O   UNL     1      44.710 -22.631   3.087  1.00  0.00    -0.391 OA
HETATM   24  H   UNL     1      45.365 -22.371   3.758  1.00  0.00     0.210 HD
ENDBRANCH  21  23
ENDBRANCH  17  21
ENDBRANCH  12  15
ENDBRANCH   1  11
BRANCH   4  25
HETATM   25  C   UNL     1      42.550 -11.060  -0.632  1.00  0.00     0.409 C 
HETATM   26  F   UNL     1      42.967 -10.218   0.334  1.00  0.00    -0.169 F 
HETATM   27  F   UNL     1      43.625 -11.733  -1.104  1.00  0.00    -0.169 F 
HETATM   28  F   UNL     1      42.108 -10.273  -1.652  1.00  0.00    -0.169 F 
ENDBRANCH   4  25
BRANCH   6  29
HETATM   29  C   UNL     1      39.309 -14.552  -2.182  1.00  0.00    -0.035 A 
HETATM   30  C   UNL     1      40.053 -15.443  -2.974  1.00  0.00     0.009 A 
HETATM   31  C   UNL     1      39.469 -16.079  -4.071  1.00  0.00     0.001 A 
HETATM   32  C   UNL     1      38.135 -15.835  -4.389  1.00  0.00     0.000 A 
HETATM   33  C   UNL     1      37.382 -14.958  -3.610  1.00  0.00     0.001 A 
HETATM   34  C   UNL     1      37.965 -14.321  -2.513  1.00  0.00     0.009 A 
ENDBRANCH   6  29
TORSDOF 6
ENDMDL
MODEL 5
REMARK VINA RESULT:      -8.8      4.967      8.480
REMARK  6 active torsions:
REMARK  status: ('A' for Active; 'I' for Inactive)
REMARK    1  A    between atoms: C_2  and  O_3 
REMARK    2  A    between atoms: C_2  and  C_4 
REMARK    3  A    between atoms: C_6  and  N_7 
REMARK       I    between atoms: N_7  and  C_8 
REMARK    4  A    between atoms: C_8  and  C_9 
REMARK    5  A    between atoms: C_12  and  C_13 
REMARK    6  A    between atoms: C_18  and  C_19 
ROOT
HETATM    1  C   UNL     1      42.715 -13.848   5.444  1.00  0.00     0.096 C 
HETATM    2  C   UNL     1      42.575 -14.964   4.639  1.00  0.00     0.138 C 
HETATM    3  N   UNL     1      41.709 -14.595   3.634  1.00  0.00    -0.240 N 
HETATM    4  C   UNL     1      41.259 -15.477   2.570  1.00  0.00     0.221 C 
HETATM    5  C   UNL     1      42.149 -16.732   2.492  1.00  0.00     0.066 C 
HETATM    6  C   UNL     1      42.434 -17.269   3.899  1.00  0.00     0.118 C 
HETATM    7  N   UNL     1      43.092 -16.223   4.694  1.00  0.00    -0.365 N 
HETATM    8  N   UNL     1      41.141 -13.397   3.835  1.00  0.00    -0.181 NA
HETATM    9  C   UNL     1      41.778 -12.929   4.912  1.00  0.00     0.160 C 
HETATM   10  H   UNL     1      43.371 -16.583   5.610  1.00  0.00     0.161 HD
ENDROOT
BRANCH   1  11
HETATM   11  C   UNL     1      43.575 -13.637   6.598  1.00  0.00     0.261 C 
HETATM   12  N   UNL     1      43.265 -12.493   7.310  1.00  0.00    -0.323 N 
HETATM   13  H   UNL     1      42.434 -12.002   7.000  1.00  0.00     0.169 HD
HETATM   14  O   UNL     1      44.447 -14.451   6.879  1.00  0.00    -0.267 OA
BRANCH  12  15
HETATM   15  C   UNL     1      43.900 -11.992   8.463  1.00  0.00     0.035 A 
HETATM   16  C   UNL     1      43.309 -11.085   9.347  1.00  0.00     0.039 A 
HETATM   17  C   UNL     1      44.002 -10.616  10.476  1.00  0.00    -0.028 A 
HETATM   18  C   UNL     1      45.310 -11.066  10.704  1.00  0.00     0.010 A 
HETATM   19  C   UNL     1      45.902 -11.980   9.836  1.00  0.00     0.003 A 
HETATM   20  C   UNL     1      45.199 -12.443   8.723  1.00  0.00     0.029 A 
BRANCH  17  21
HETATM   21  C   UNL     1      43.344  -9.613  11.400  1.00  0.00     0.147 C 
HETATM   22  C   UNL     1      43.349 -10.081  12.848  1.00  0.00     0.044 C 
BRANCH  21  23
HETATM   23  O   UNL     1      41.996  -9.374  10.997  1.00  0.00    -0.391 OA
HETATM   24  H   UNL     1      41.701  -8.576  11.468  1.00  0.00     0.210 HD
ENDBRANCH  21  23
ENDBRANCH  17  21
ENDBRANCH  12  15
ENDBRANCH   1  11
BRANCH   4  25
HETATM   25  C   UNL     1      41.250 -14.779   1.227  1.00  0.00     0.409 C 
HETATM   26  F   UNL     1      40.091 -14.150   0.951  1.00  0.00    -0.169 F 
HETATM   27  F   UNL     1      42.259 -13.886   1.105  1.00  0.00    -0.169 F 
HETATM   28  F   UNL     1      41.425 -15.698   0.238  1.00  0.00    -0.169 F 
ENDBRANCH   4  25
BRANCH   6  29
HETATM   29  C   UNL     1      43.312 -18.504   3.868  1.00  0.00    -0.035 A 
HETATM   30  C   UNL     1      43.927 -18.993   5.033  1.00  0.00     0.009 A 
HETATM   31  C   UNL     1      44.743 -20.125   4.987  1.00  0.00     0.001 A 
HETATM   32  C   UNL     1      44.952 -20.784   3.777  1.00  0.00     0.000 A 
HETATM   33  C   UNL     1      44.345 -20.314   2.614  1.00  0.00     0.001 A 
HETATM   34  C   UNL     1      43.529 -19.181   2.659  1.00  0.00     0.009 A 
ENDBRANCH   6  29
TORSDOF 6
ENDMDL
MODEL 6
REMARK VINA RESULT:      -8.7      3.868      8.816
REMARK  6 active torsions:
REMARK  status: ('A' for Active; 'I' for Inactive)
REMARK    1  A    between atoms: C_2  and  O_3 
REMARK    2  A    between atoms: C_2  and  C_4 
REMARK    3  A    between atoms: C_6  and  N_7 
REMARK       I    between atoms: N_7  and  C_8 
REMARK    4  A    between atoms: C_8  and  C_9 
REMARK    5  A    between atoms: C_12  and  C_13 
REMARK    6  A    between atoms: C_18  and  C_19 
ROOT
HETATM    1  C   UNL     1      42.050 -14.660   1.801  1.00  0.00     0.096 C 
HETATM    2  C   UNL     1      41.453 -14.118   0.678  1.00  0.00     0.138 C 
HETATM    3  N   UNL     1      41.820 -12.791   0.660  1.00  0.00    -0.240 N 
HETATM    4  C   UNL     1      41.391 -11.832  -0.343  1.00  0.00     0.221 C 
HETATM    5  C   UNL     1      40.799 -12.555  -1.568  1.00  0.00     0.066 C 
HETATM    6  C   UNL     1      39.879 -13.696  -1.118  1.00  0.00     0.118 C 
HETATM    7  N   UNL     1      40.643 -14.636  -0.287  1.00  0.00    -0.365 N 
HETATM    8  N   UNL     1      42.448 -12.399   1.778  1.00  0.00    -0.181 NA
HETATM    9  C   UNL     1      42.620 -13.539   2.453  1.00  0.00     0.160 C 
HETATM   10  H   UNL     1      40.075 -15.452  -0.045  1.00  0.00     0.161 HD
ENDROOT
BRANCH   1  11
HETATM   11  C   UNL     1      42.078 -16.038   2.267  1.00  0.00     0.261 C 
HETATM   12  N   UNL     1      43.337 -16.462   2.648  1.00  0.00    -0.323 N 
HETATM   13  H   UNL     1      44.054 -15.745   2.645  1.00  0.00     0.169 HD
HETATM   14  O   UNL     1      41.044 -16.693   2.326  1.00  0.00    -0.267 OA
BRANCH  12  15
HETATM   15  C   UNL     1      43.714 -17.730   3.132  1.00  0.00     0.035 A 
HETATM   16  C   UNL     1      43.776 -18.060   4.489  1.00  0.00     0.039 A 
HETATM   17  C   UNL     1      44.170 -19.344   4.905  1.00  0.00    -0.028 A 
HETATM   18  C   UNL     1      44.514 -20.296   3.935  1.00  0.00     0.010 A 
HETATM   19  C   UNL     1      44.443 -19.979   2.581  1.00  0.00     0.003 A 
HETATM   20  C   UNL     1      44.042 -18.704   2.182  1.00  0.00     0.029 A 
BRANCH  17  21
HETATM   21  C   UNL     1      44.252 -19.663   6.383  1.00  0.00     0.147 C 
HETATM   22  C   UNL     1      43.708 -21.048   6.699  1.00  0.00     0.044 C 
BRANCH  21  23
HETATM   23  O   UNL     1      43.526 -18.697   7.141  1.00  0.00    -0.391 OA
HETATM   24  H   UNL     1      44.163 -18.009   7.400  1.00  0.00     0.210 HD
ENDBRANCH  21  23
ENDBRANCH  17  21
ENDBRANCH  12  15
ENDBRANCH   1  11
BRANCH   4  25
HETATM   25  C   UNL     1      42.527 -10.936  -0.786  1.00  0.00     0.409 C 
HETATM   26  F   UNL     1      42.211 -10.130  -1.820  1.00  0.00    -0.169 F 
HETATM   27  F   UNL     1      43.001 -10.169   0.222  1.00  0.00    -0.169 F 
HETATM   28  F   UNL     1      43.569 -11.702  -1.212  1.00  0.00    -0.169 F 
ENDBRANCH   4  25
BRANCH   6  29
HETATM   29  C   UNL     1      39.278 -14.438  -2.295  1.00  0.00    -0.035 A 
HETATM   30  C   UNL     1      37.975 -14.163  -2.744  1.00  0.00     0.009 A 
HETATM   31  C   UNL     1      37.430 -14.863  -3.822  1.00  0.00     0.001 A 
HETATM   32  C   UNL     1      38.180 -15.844  -4.466  1.00  0.00     0.000 A 
HETATM   33  C   UNL     1      39.476 -16.125  -4.036  1.00  0.00     0.001 A 
HETATM   34  C   UNL     1      40.022 -15.426  -2.957  1.00  0.00     0.009 A 
ENDBRANCH   6  29
TORSDOF 6
ENDMDL
MODEL 7
REMARK VINA RESULT:      -8.6      4.632      7.666
REMARK  6 active torsions:
REMARK  status: ('A' for Active; 'I' for Inactive)
REMARK    1  A    between atoms: C_2  and  O_3 
REMARK    2  A    between atoms: C_2  and  C_4 
REMARK    3  A    between atoms: C_6  and  N_7 
REMARK       I    between atoms: N_7  and  C_8 
REMARK    4  A    between atoms: C_8  and  C_9 
REMARK    5  A    between atoms: C_12  and  C_13 
REMARK    6  A    between atoms: C_18  and  C_19 
ROOT
HETATM    1  C   UNL     1      41.231 -14.196   4.158  1.00  0.00     0.096 C 
HETATM    2  C   UNL     1      41.463 -15.312   3.376  1.00  0.00     0.138 C 
HETATM    3  N   UNL     1      40.839 -15.064   2.174  1.00  0.00    -0.240 N 
HETATM    4  C   UNL     1      40.808 -15.992   1.056  1.00  0.00     0.221 C 
HETATM    5  C   UNL     1      41.860 -17.102   1.241  1.00  0.00     0.066 C 
HETATM    6  C   UNL     1      41.851 -17.605   2.689  1.00  0.00     0.118 C 
HETATM    7  N   UNL     1      42.125 -16.482   3.595  1.00  0.00    -0.365 N 
HETATM    8  N   UNL     1      40.071 -13.965   2.190  1.00  0.00    -0.181 NA
HETATM    9  C   UNL     1      40.338 -13.419   3.381  1.00  0.00     0.160 C 
HETATM   10  H   UNL     1      42.211 -16.806   4.562  1.00  0.00     0.161 HD
ENDROOT
BRANCH   1  11
HETATM   11  C   UNL     1      41.727 -13.873   5.487  1.00  0.00     0.261 C 
HETATM   12  N   UNL     1      41.675 -12.522   5.777  1.00  0.00    -0.323 N 
HETATM   13  H   UNL     1      41.218 -11.946   5.078  1.00  0.00     0.169 HD
HETATM   14  O   UNL     1      42.106 -14.761   6.241  1.00  0.00    -0.267 OA
BRANCH  12  15
HETATM   15  C   UNL     1      42.082 -11.873   6.959  1.00  0.00     0.035 A 
HETATM   16  C   UNL     1      43.318 -12.081   7.577  1.00  0.00     0.039 A 
HETATM   17  C   UNL     1      43.658 -11.407   8.763  1.00  0.00    -0.028 A 
HETATM   18  C   UNL     1      42.732 -10.521   9.329  1.00  0.00     0.010 A 
HETATM   19  C   UNL     1      41.503 -10.298   8.714  1.00  0.00     0.003 A 
HETATM   20  C   UNL     1      41.182 -10.968   7.532  1.00  0.00     0.029 A 
BRANCH  17  21
HETATM   21  C   UNL     1      44.995 -11.674   9.423  1.00  0.00     0.147 C 
HETATM   22  C   UNL     1      44.854 -11.931  10.916  1.00  0.00     0.044 C 
BRANCH  21  23
HETATM   23  O   UNL     1      45.876 -10.569   9.226  1.00  0.00    -0.391 OA
HETATM   24  H   UNL     1      46.761 -10.865   9.501  1.00  0.00     0.210 HD
ENDBRANCH  21  23
ENDBRANCH  17  21
ENDBRANCH  12  15
ENDBRANCH   1  11
BRANCH   4  25
HETATM   25  C   UNL     1      41.042 -15.289  -0.264  1.00  0.00     0.409 C 
HETATM   26  F   UNL     1      39.953 -14.654  -0.741  1.00  0.00    -0.169 F 
HETATM   27  F   UNL     1      42.060 -14.401  -0.201  1.00  0.00    -0.169 F 
HETATM   28  F   UNL     1      41.387 -16.206  -1.210  1.00  0.00    -0.169 F 
ENDBRANCH   4  25
BRANCH   6  29
HETATM   29  C   UNL     1      42.877 -18.697   2.917  1.00  0.00    -0.035 A 
HETATM   30  C   UNL     1      43.093 -19.708   1.965  1.00  0.00     0.009 A 
HETATM   31  C   UNL     1      44.033 -20.714   2.194  1.00  0.00     0.001 A 
HETATM   32  C   UNL     1      44.771 -20.722   3.375  1.00  0.00     0.000 A 
HETATM   33  C   UNL     1      44.573 -19.724   4.327  1.00  0.00     0.001 A 
HETATM   34  C   UNL     1      43.632 -18.717   4.100  1.00  0.00     0.009 A 
ENDBRANCH   6  29
TORSDOF 6
ENDMDL
MODEL 8
REMARK VINA RESULT:      -8.4      4.537      8.574
REMARK  6 active torsions:
REMARK  status: ('A' for Active; 'I' for Inactive)
REMARK    1  A    between atoms: C_2  and  O_3 
REMARK    2  A    between atoms: C_2  and  C_4 
REMARK    3  A    between atoms: C_6  and  N_7 
REMARK       I    between atoms: N_7  and  C_8 
REMARK    4  A    between atoms: C_8  and  C_9 
REMARK    5  A    between atoms: C_12  and  C_13 
REMARK    6  A    between atoms: C_18  and  C_19 
ROOT
HETATM    1  C   UNL     1      42.598 -14.891   5.269  1.00  0.00     0.096 C 
HETATM    2  C   UNL     1      42.492 -13.694   5.954  1.00  0.00     0.138 C 
HETATM    3  N   UNL     1      41.533 -12.964   5.288  1.00  0.00    -0.240 N 
HETATM    4  C   UNL     1      41.119 -11.620   5.655  1.00  0.00     0.221 C 
HETATM    5  C   UNL     1      41.601 -11.273   7.077  1.00  0.00     0.066 C 
HETATM    6  C   UNL     1      43.048 -11.738   7.275  1.00  0.00     0.118 C 
HETATM    7  N   UNL     1      43.127 -13.187   7.047  1.00  0.00    -0.365 N 
HETATM    8  N   UNL     1      41.153 -13.520   4.128  1.00  0.00    -0.181 NA
HETATM    9  C   UNL     1      41.771 -14.704   4.135  1.00  0.00     0.160 C 
HETATM   10  H   UNL     1      44.065 -13.538   7.258  1.00  0.00     0.161 HD
ENDROOT
BRANCH   1  11
HETATM   11  C   UNL     1      43.390 -16.071   5.578  1.00  0.00     0.261 C 
HETATM   12  N   UNL     1      42.946 -17.212   4.935  1.00  0.00    -0.323 N 
HETATM   13  H   UNL     1      42.196 -17.068   4.268  1.00  0.00     0.169 HD
HETATM   14  O   UNL     1      44.365 -15.989   6.314  1.00  0.00    -0.267 OA
BRANCH  12  15
HETATM   15  C   UNL     1      43.473 -18.515   5.020  1.00  0.00     0.035 A 
HETATM   16  C   UNL     1      43.816 -19.291   3.909  1.00  0.00     0.039 A 
HETATM   17  C   UNL     1      44.330 -20.591   4.064  1.00  0.00    -0.028 A 
HETATM   18  C   UNL     1      44.488 -21.108   5.357  1.00  0.00     0.010 A 
HETATM   19  C   UNL     1      44.162 -20.337   6.470  1.00  0.00     0.003 A 
HETATM   20  C   UNL     1      43.660 -19.046   6.301  1.00  0.00     0.029 A 
BRANCH  17  21
HETATM   21  C   UNL     1      44.667 -21.417   2.840  1.00  0.00     0.147 C 
HETATM   22  C   UNL     1      43.691 -21.171   1.699  1.00  0.00     0.044 C 
BRANCH  21  23
HETATM   23  O   UNL     1      44.660 -22.808   3.162  1.00  0.00    -0.391 OA
HETATM   24  H   UNL     1      43.797 -23.155   2.876  1.00  0.00     0.210 HD
ENDBRANCH  21  23
ENDBRANCH  17  21
ENDBRANCH  12  15
ENDBRANCH   1  11
BRANCH   4  25
HETATM   25  C   UNL     1      39.617 -11.454   5.576  1.00  0.00     0.409 C 
HETATM   26  F   UNL     1      39.165 -11.187   4.335  1.00  0.00    -0.169 F 
HETATM   27  F   UNL     1      38.954 -12.535   6.047  1.00  0.00    -0.169 F 
HETATM   28  F   UNL     1      39.236 -10.400   6.349  1.00  0.00    -0.169 F 
ENDBRANCH   4  25
BRANCH   6  29
HETATM   29  C   UNL     1      43.561 -11.419   8.665  1.00  0.00    -0.035 A 
HETATM   30  C   UNL     1      44.813 -11.879   9.106  1.00  0.00     0.009 A 
HETATM   31  C   UNL     1      45.267 -11.587  10.393  1.00  0.00     0.001 A 
HETATM   32  C   UNL     1      44.477 -10.829  11.255  1.00  0.00     0.000 A 
HETATM   33  C   UNL     1      43.235 -10.361  10.831  1.00  0.00     0.001 A 
HETATM   34  C   UNL     1      42.779 -10.653   9.544  1.00  0.00     0.009 A 
ENDBRANCH   6  29
TORSDOF 6
ENDMDL
MODEL 9
REMARK VINA RESULT:      -8.4      1.989      2.326
REMARK  6 active torsions:
REMARK  status: ('A' for Active; 'I' for Inactive)
REMARK    1  A    between atoms: C_2  and  O_3 
REMARK    2  A    between atoms: C_2  and  C_4 
REMARK    3  A    between atoms: C_6  and  N_7 
REMARK       I    between atoms: N_7  and  C_8 
REMARK    4  A    between atoms: C_8  and  C_9 
REMARK    5  A    between atoms: C_12  and  C_13 
REMARK    6  A    between atoms: C_18  and  C_19 
ROOT
HETATM    1  C   UNL     1      42.238 -15.075   2.305  1.00  0.00     0.096 C 
HETATM    2  C   UNL     1      42.795 -16.114   3.027  1.00  0.00     0.138 C 
HETATM    3  N   UNL     1      42.976 -15.630   4.304  1.00  0.00    -0.240 N 
HETATM    4  C   UNL     1      43.564 -16.386   5.396  1.00  0.00     0.221 C 
HETATM    5  C   UNL     1      43.606 -17.888   5.055  1.00  0.00     0.066 C 
HETATM    6  C   UNL     1      44.072 -18.091   3.609  1.00  0.00     0.118 C 
HETATM    7  N   UNL     1      43.160 -17.385   2.701  1.00  0.00    -0.365 N 
HETATM    8  N   UNL     1      42.753 -14.311   4.408  1.00  0.00    -0.181 NA
HETATM    9  C   UNL     1      42.271 -13.983   3.205  1.00  0.00     0.160 C 
HETATM   10  H   UNL     1      43.398 -17.576   1.724  1.00  0.00     0.161 HD
ENDROOT
BRANCH   1  11
HETATM   11  C   UNL     1      41.758 -15.050   0.932  1.00  0.00     0.261 C 
HETATM   12  N   UNL     1      41.250 -13.822   0.552  1.00  0.00    -0.323 N 
HETATM   13  H   UNL     1      41.359 -13.079   1.233  1.00  0.00     0.169 HD
HETATM   14  O   UNL     1      41.858 -16.043   0.222  1.00  0.00    -0.267 OA
BRANCH  12  15
HETATM   15  C   UNL     1      40.699 -13.460  -0.693  1.00  0.00     0.035 A 
HETATM   16  C   UNL     1      41.196 -12.430  -1.496  1.00  0.00     0.039 A 
HETATM   17  C   UNL     1      40.592 -12.113  -2.726  1.00  0.00    -0.028 A 
HETATM   18  C   UNL     1      39.469 -12.844  -3.138  1.00  0.00     0.010 A 
HETATM   19  C   UNL     1      38.975 -13.881  -2.350  1.00  0.00     0.003 A 
HETATM   20  C   UNL     1      39.590 -14.189  -1.136  1.00  0.00     0.029 A 
BRANCH  17  21
HETATM   21  C   UNL     1      41.138 -10.974  -3.560  1.00  0.00     0.147 C 
HETATM   22  C   UNL     1      42.341 -11.399  -4.390  1.00  0.00     0.044 C 
BRANCH  21  23
HETATM   23  O   UNL     1      41.517  -9.881  -2.724  1.00  0.00    -0.391 OA
HETATM   24  H   UNL     1      40.931  -9.908  -1.948  1.00  0.00     0.210 HD
ENDBRANCH  21  23
ENDBRANCH  17  21
ENDBRANCH  12  15
ENDBRANCH   1  11
BRANCH   4  25
HETATM   25  C   UNL     1      42.807 -16.184   6.691  1.00  0.00     0.409 C 
HETATM   26  F   UNL     1      43.482 -15.460   7.606  1.00  0.00    -0.169 F 
HETATM   27  F   UNL     1      41.600 -15.604   6.497  1.00  0.00    -0.169 F 
HETATM   28  F   UNL     1      42.567 -17.392   7.270  1.00  0.00    -0.169 F 
ENDBRANCH   4  25
BRANCH   6  29
HETATM   29  C   UNL     1      44.125 -19.558   3.231  1.00  0.00    -0.035 A 
HETATM   30  C   UNL     1      44.670 -20.519   4.099  1.00  0.00     0.009 A 
HETATM   31  C   UNL     1      44.722 -21.864   3.731  1.00  0.00     0.001 A 
HETATM   32  C   UNL     1      44.227 -22.267   2.493  1.00  0.00     0.000 A 
HETATM   33  C   UNL     1      43.679 -21.328   1.623  1.00  0.00     0.001 A 
HETATM   34  C   UNL     1      43.627 -19.981   1.989  1.00  0.00     0.009 A 
ENDBRANCH   6  29
TORSDOF 6
ENDMDL
MODEL 10
REMARK VINA RESULT:      -8.3      5.752      9.468
REMARK  6 active torsions:
REMARK  status: ('A' for Active; 'I' for Inactive)
REMARK    1  A    between atoms: C_2  and  O_3 
REMARK    2  A    between atoms: C_2  and  C_4 
REMARK    3  A    between atoms: C_6  and  N_7 
REMARK       I    between atoms: N_7  and  C_8 
REMARK    4  A    between atoms: C_8  and  C_9 
REMARK    5  A    between atoms: C_12  and  C_13 
REMARK    6  A    between atoms: C_18  and  C_19 
ROOT
HETATM    1  C   UNL     1      40.841 -11.399   6.114  1.00  0.00     0.096 C 
HETATM    2  C   UNL     1      40.965 -12.696   5.652  1.00  0.00     0.138 C 
HETATM    3  N   UNL     1      40.019 -12.835   4.661  1.00  0.00    -0.240 N 
HETATM    4  C   UNL     1      39.781 -14.059   3.915  1.00  0.00     0.221 C 
HETATM    5  C   UNL     1      40.950 -15.044   4.102  1.00  0.00     0.066 C 
HETATM    6  C   UNL     1      41.382 -15.084   5.572  1.00  0.00     0.118 C 
HETATM    7  N   UNL     1      41.775 -13.735   5.999  1.00  0.00    -0.365 N 
HETATM    8  N   UNL     1      39.178 -11.793   4.581  1.00  0.00    -0.181 NA
HETATM    9  C   UNL     1      39.699 -10.908   5.436  1.00  0.00     0.160 C 
HETATM   10  H   UNL     1      42.150 -13.749   6.951  1.00  0.00     0.161 HD
ENDROOT
BRANCH   1  11
HETATM   11  C   UNL     1      41.642 -10.680   7.092  1.00  0.00     0.261 C 
HETATM   12  N   UNL     1      41.964 -11.441   8.201  1.00  0.00    -0.323 N 
HETATM   13  H   UNL     1      41.688 -12.415   8.152  1.00  0.00     0.169 HD
HETATM   14  O   UNL     1      41.995  -9.527   6.879  1.00  0.00    -0.267 OA
BRANCH  12  15
HETATM   15  C   UNL     1      42.712 -11.054   9.330  1.00  0.00     0.035 A 
HETATM   16  C   UNL     1      42.165 -10.416  10.447  1.00  0.00     0.039 A 
HETATM   17  C   UNL     1      42.972 -10.047  11.538  1.00  0.00    -0.028 A 
HETATM   18  C   UNL     1      44.345 -10.322  11.490  1.00  0.00     0.010 A 
HETATM   19  C   UNL     1      44.897 -10.969  10.387  1.00  0.00     0.003 A 
HETATM   20  C   UNL     1      44.083 -11.336   9.314  1.00  0.00     0.029 A 
BRANCH  17  21
HETATM   21  C   UNL     1      42.354  -9.334  12.722  1.00  0.00     0.147 C 
HETATM   22  C   UNL     1      43.284  -9.315  13.926  1.00  0.00     0.044 C 
BRANCH  21  23
HETATM   23  O   UNL     1      41.127  -9.960  13.096  1.00  0.00    -0.391 OA
HETATM   24  H   UNL     1      40.412  -9.420  12.718  1.00  0.00     0.210 HD
ENDBRANCH  21  23
ENDBRANCH  17  21
ENDBRANCH  12  15
ENDBRANCH   1  11
BRANCH   4  25
HETATM   25  C   UNL     1      39.580 -13.787   2.439  1.00  0.00     0.409 C 
HETATM   26  F   UNL     1      38.330 -13.391   2.127  1.00  0.00    -0.169 F 
HETATM   27  F   UNL     1      40.450 -12.867   1.962  1.00  0.00    -0.169 F 
HETATM   28  F   UNL     1      39.801 -14.930   1.734  1.00  0.00    -0.169 F 
ENDBRANCH   4  25
BRANCH   6  29
HETATM   29  C   UNL     1      42.535 -16.040   5.799  1.00  0.00    -0.035 A 
HETATM   30  C   UNL     1      42.663 -17.223   5.052  1.00  0.00     0.009 A 
HETATM   31  C   UNL     1      43.724 -18.101   5.281  1.00  0.00     0.001 A 
HETATM   32  C   UNL     1      44.672 -17.806   6.258  1.00  0.00     0.000 A 
HETATM   33  C   UNL     1      44.563 -16.635   7.004  1.00  0.00     0.001 A 
HETATM   34  C   UNL     1      43.501 -15.756   6.776  1.00  0.00     0.009 A 
ENDBRANCH   6  29
TORSDOF 6
ENDMDL
