MODEL 1
REMARK VINA RESULT:      -9.4      0.000      0.000
REMARK  5 active torsions:
REMARK  status: ('A' for Active; 'I' for Inactive)
REMARK    1  A    between atoms: O_2  and  C_3 
REMARK    2  A    between atoms: C_5  and  O_6 
REMARK    3  A    between atoms: C_9  and  N_10 
REMARK       I    between atoms: N_10  and  C_11 
REMARK    4  A    between atoms: C_11  and  C_12 
REMARK    5  A    between atoms: C_20  and  C_21 
ROOT
HETATM    1  C   UNL     1      42.162 -16.226   2.306  1.00  0.00     0.047 A 
HETATM    2  C   UNL     1      42.583 -15.493   3.444  1.00  0.00     0.008 A 
HETATM    3  C   UNL     1      43.251 -16.237   4.435  1.00  0.00     0.068 A 
HETATM    4  C   UNL     1      43.639 -15.605   5.607  1.00  0.00     0.032 A 
HETATM    5  C   UNL     1      43.422 -14.242   5.823  1.00  0.00     0.002 A 
HETATM    6  C   UNL     1      42.822 -13.482   4.833  1.00  0.00     0.001 A 
HETATM    7  C   UNL     1      42.417 -14.096   3.649  1.00  0.00     0.015 A 
HETATM    8  N   UNL     1      43.549 -17.539   4.300  1.00  0.00    -0.248 NA
HETATM    9  C   UNL     1      43.228 -18.196   3.159  1.00  0.00     0.068 A 
HETATM   10  C   UNL     1      42.507 -17.573   2.158  1.00  0.00     0.050 A 
ENDROOT
BRANCH   1  11
HETATM   11  C   UNL     1      41.348 -15.651   1.199  1.00  0.00     0.257 C 
HETATM   12  N   UNL     1      42.065 -15.247   0.086  1.00  0.00    -0.323 N 
HETATM   13  H   UNL     1      43.068 -15.385   0.107  1.00  0.00     0.169 HD
HETATM   14  O   UNL     1      40.139 -15.558   1.365  1.00  0.00    -0.267 OA
BRANCH  12  15
HETATM   15  C   UNL     1      41.543 -14.739  -1.122  1.00  0.00     0.040 A 
HETATM   16  C   UNL     1      40.951 -15.532  -2.112  1.00  0.00     0.066 A 
HETATM   17  C   UNL     1      40.453 -14.950  -3.284  1.00  0.00     0.073 A 
HETATM   18  C   UNL     1      40.609 -13.582  -3.498  1.00  0.00     0.073 A 
HETATM   19  C   UNL     1      41.224 -12.800  -2.527  1.00  0.00     0.073 A 
HETATM   20  C   UNL     1      41.645 -13.359  -1.323  1.00  0.00     0.066 A 
BRANCH  17  21
HETATM   21  O   UNL     1      39.820 -15.621  -4.298  1.00  0.00    -0.356 OA
HETATM   22  C   UNL     1      38.453 -15.951  -4.072  1.00  0.00     0.210 C 
ENDBRANCH  17  21
BRANCH  19  23
HETATM   23  O   UNL     1      41.372 -11.454  -2.727  1.00  0.00    -0.356 OA
HETATM   24  C   UNL     1      42.631 -11.027  -2.203  1.00  0.00     0.210 C 
ENDBRANCH  19  23
ENDBRANCH  12  15
ENDBRANCH   1  11
BRANCH   9  25
HETATM   25  C   UNL     1      43.708 -19.593   3.066  1.00  0.00    -0.007 A 
HETATM   26  C   UNL     1      43.440 -20.374   1.927  1.00  0.00     0.014 A 
HETATM   27  C   UNL     1      43.865 -21.703   1.832  1.00  0.00     0.001 A 
HETATM   28  C   UNL     1      44.568 -22.286   2.882  1.00  0.00     0.000 A 
HETATM   29  C   UNL     1      44.843 -21.541   4.024  1.00  0.00     0.001 A 
HETATM   30  C   UNL     1      44.416 -20.212   4.116  1.00  0.00     0.014 A 
ENDBRANCH   9  25
TORSDOF 5
ENDMDL
MODEL 2
REMARK VINA RESULT:      -9.3      0.360      2.266
REMARK  5 active torsions:
REMARK  status: ('A' for Active; 'I' for Inactive)
REMARK    1  A    between atoms: O_2  and  C_3 
REMARK    2  A    between atoms: C_5  and  O_6 
REMARK    3  A    between atoms: C_9  and  N_10 
REMARK       I    between atoms: N_10  and  C_11 
REMARK    4  A    between atoms: C_11  and  C_12 
REMARK    5  A    between atoms: C_20  and  C_21 
ROOT
HETATM    1  C   UNL     1      42.147 -16.159   2.279  1.00  0.00     0.047 A 
HETATM    2  C   UNL     1      42.568 -15.431   3.420  1.00  0.00     0.008 A 
HETATM    3  C   UNL     1      43.233 -16.180   4.410  1.00  0.00     0.068 A 
HETATM    4  C   UNL     1      43.620 -15.553   5.585  1.00  0.00     0.032 A 
HETATM    5  C   UNL     1      43.405 -14.191   5.806  1.00  0.00     0.002 A 
HETATM    6  C   UNL     1      42.808 -13.425   4.817  1.00  0.00     0.001 A 
HETATM    7  C   UNL     1      42.404 -14.035   3.630  1.00  0.00     0.015 A 
HETATM    8  N   UNL     1      43.529 -17.482   4.270  1.00  0.00    -0.248 NA
HETATM    9  C   UNL     1      43.208 -18.135   3.127  1.00  0.00     0.068 A 
HETATM   10  C   UNL     1      42.491 -17.506   2.126  1.00  0.00     0.050 A 
ENDROOT
BRANCH   1  11
HETATM   11  C   UNL     1      41.337 -15.579   1.172  1.00  0.00     0.257 C 
HETATM   12  N   UNL     1      42.058 -15.156   0.070  1.00  0.00    -0.323 N 
HETATM   13  H   UNL     1      43.062 -15.285   0.096  1.00  0.00     0.169 HD
HETATM   14  O   UNL     1      40.125 -15.498   1.331  1.00  0.00    -0.267 OA
BRANCH  12  15
HETATM   15  C   UNL     1      41.541 -14.638  -1.137  1.00  0.00     0.040 A 
HETATM   16  C   UNL     1      41.532 -13.277  -1.462  1.00  0.00     0.066 A 
HETATM   17  C   UNL     1      41.001 -12.843  -2.683  1.00  0.00     0.073 A 
HETATM   18  C   UNL     1      40.417 -13.765  -3.551  1.00  0.00     0.073 A 
HETATM   19  C   UNL     1      40.402 -15.113  -3.213  1.00  0.00     0.073 A 
HETATM   20  C   UNL     1      41.001 -15.561  -2.039  1.00  0.00     0.066 A 
BRANCH  17  21
HETATM   21  O   UNL     1      40.977 -11.545  -3.123  1.00  0.00    -0.356 OA
HETATM   22  C   UNL     1      42.141 -11.095  -3.808  1.00  0.00     0.210 C 
ENDBRANCH  17  21
BRANCH  19  23
HETATM   23  O   UNL     1      39.837 -16.023  -4.065  1.00  0.00    -0.356 OA
HETATM   24  C   UNL     1      38.441 -15.751  -4.201  1.00  0.00     0.210 C 
ENDBRANCH  19  23
ENDBRANCH  12  15
ENDBRANCH   1  11
BRANCH   9  25
HETATM   25  C   UNL     1      43.686 -19.532   3.030  1.00  0.00    -0.007 A 
HETATM   26  C   UNL     1      43.386 -20.321   1.904  1.00  0.00     0.014 A 
HETATM   27  C   UNL     1      43.808 -21.650   1.806  1.00  0.00     0.001 A 
HETATM   28  C   UNL     1      44.541 -22.225   2.839  1.00  0.00     0.000 A 
HETATM   29  C   UNL     1      44.848 -21.473   3.968  1.00  0.00     0.001 A 
HETATM   30  C   UNL     1      44.424 -20.143   4.063  1.00  0.00     0.014 A 
ENDBRANCH   9  25
TORSDOF 5
ENDMDL
MODEL 3
REMARK VINA RESULT:      -9.0      1.728      2.507
REMARK  5 active torsions:
REMARK  status: ('A' for Active; 'I' for Inactive)
REMARK    1  A    between atoms: O_2  and  C_3 
REMARK    2  A    between atoms: C_5  and  O_6 
REMARK    3  A    between atoms: C_9  and  N_10 
REMARK       I    between atoms: N_10  and  C_11 
REMARK    4  A    between atoms: C_11  and  C_12 
REMARK    5  A    between atoms: C_20  and  C_21 
ROOT
HETATM    1  C   UNL     1      43.010 -15.912   3.112  1.00  0.00     0.047 A 
HETATM    2  C   UNL     1      43.379 -15.481   4.410  1.00  0.00     0.008 A 
HETATM    3  C   UNL     1      43.800 -16.494   5.292  1.00  0.00     0.068 A 
HETATM    4  C   UNL     1      44.118 -16.161   6.601  1.00  0.00     0.032 A 
HETATM    5  C   UNL     1      44.069 -14.846   7.065  1.00  0.00     0.002 A 
HETATM    6  C   UNL     1      43.716 -13.827   6.195  1.00  0.00     0.001 A 
HETATM    7  C   UNL     1      43.386 -14.138   4.876  1.00  0.00     0.015 A 
HETATM    8  N   UNL     1      43.927 -17.779   4.926  1.00  0.00    -0.248 NA
HETATM    9  C   UNL     1      43.667 -18.154   3.650  1.00  0.00     0.068 A 
HETATM   10  C   UNL     1      43.178 -17.246   2.729  1.00  0.00     0.050 A 
ENDROOT
BRANCH   1  11
HETATM   11  C   UNL     1      42.436 -15.017   2.068  1.00  0.00     0.257 C 
HETATM   12  N   UNL     1      41.507 -15.606   1.228  1.00  0.00    -0.323 N 
HETATM   13  H   UNL     1      41.284 -16.580   1.397  1.00  0.00     0.169 HD
HETATM   14  O   UNL     1      42.842 -13.863   2.017  1.00  0.00    -0.267 OA
BRANCH  12  15
HETATM   15  C   UNL     1      40.763 -14.976   0.209  1.00  0.00     0.040 A 
HETATM   16  C   UNL     1      39.767 -14.022   0.445  1.00  0.00     0.066 A 
HETATM   17  C   UNL     1      39.074 -13.439  -0.623  1.00  0.00     0.073 A 
HETATM   18  C   UNL     1      39.331 -13.861  -1.927  1.00  0.00     0.073 A 
HETATM   19  C   UNL     1      40.301 -14.830  -2.157  1.00  0.00     0.073 A 
HETATM   20  C   UNL     1      41.051 -15.352  -1.107  1.00  0.00     0.066 A 
BRANCH  17  21
HETATM   21  O   UNL     1      38.112 -12.469  -0.512  1.00  0.00    -0.356 OA
HETATM   22  C   UNL     1      37.188 -12.625   0.561  1.00  0.00     0.210 C 
ENDBRANCH  17  21
BRANCH  19  23
HETATM   23  O   UNL     1      40.563 -15.242  -3.436  1.00  0.00    -0.356 OA
HETATM   24  C   UNL     1      39.437 -15.958  -3.950  1.00  0.00     0.210 C 
ENDBRANCH  19  23
ENDBRANCH  12  15
ENDBRANCH   1  11
BRANCH   9  25
HETATM   25  C   UNL     1      43.954 -19.569   3.325  1.00  0.00    -0.007 A 
HETATM   26  C   UNL     1      43.570 -20.117   2.087  1.00  0.00     0.014 A 
HETATM   27  C   UNL     1      43.810 -21.457   1.772  1.00  0.00     0.001 A 
HETATM   28  C   UNL     1      44.441 -22.286   2.694  1.00  0.00     0.000 A 
HETATM   29  C   UNL     1      44.828 -21.775   3.928  1.00  0.00     0.001 A 
HETATM   30  C   UNL     1      44.585 -20.433   4.241  1.00  0.00     0.014 A 
ENDBRANCH   9  25
TORSDOF 5
ENDMDL
MODEL 4
REMARK VINA RESULT:      -8.9      1.966      2.608
REMARK  5 active torsions:
REMARK  status: ('A' for Active; 'I' for Inactive)
REMARK    1  A    between atoms: O_2  and  C_3 
REMARK    2  A    between atoms: C_5  and  O_6 
REMARK    3  A    between atoms: C_9  and  N_10 
REMARK       I    between atoms: N_10  and  C_11 
REMARK    4  A    between atoms: C_11  and  C_12 
REMARK    5  A    between atoms: C_20  and  C_21 
ROOT
HETATM    1  C   UNL     1      42.874 -15.939   3.307  1.00  0.00     0.047 A 
HETATM    2  C   UNL     1      43.329 -15.519   4.581  1.00  0.00     0.008 A 
HETATM    3  C   UNL     1      43.829 -16.537   5.416  1.00  0.00     0.068 A 
HETATM    4  C   UNL     1      44.235 -16.216   6.703  1.00  0.00     0.032 A 
HETATM    5  C   UNL     1      44.199 -14.908   7.189  1.00  0.00     0.002 A 
HETATM    6  C   UNL     1      43.768 -13.884   6.361  1.00  0.00     0.001 A 
HETATM    7  C   UNL     1      43.349 -14.182   5.065  1.00  0.00     0.015 A 
HETATM    8  N   UNL     1      43.949 -17.815   5.023  1.00  0.00    -0.248 NA
HETATM    9  C   UNL     1      43.603 -18.176   3.764  1.00  0.00     0.068 A 
HETATM   10  C   UNL     1      43.035 -17.265   2.893  1.00  0.00     0.050 A 
ENDROOT
BRANCH   1  11
HETATM   11  C   UNL     1      42.213 -15.039   2.320  1.00  0.00     0.257 C 
HETATM   12  N   UNL     1      41.124 -15.582   1.661  1.00  0.00    -0.323 N 
HETATM   13  H   UNL     1      40.858 -16.528   1.908  1.00  0.00     0.169 HD
HETATM   14  O   UNL     1      42.690 -13.924   2.152  1.00  0.00    -0.267 OA
BRANCH  12  15
HETATM   15  C   UNL     1      40.279 -14.932   0.737  1.00  0.00     0.040 A 
HETATM   16  C   UNL     1      40.590 -14.757  -0.616  1.00  0.00     0.066 A 
HETATM   17  C   UNL     1      39.696 -14.101  -1.471  1.00  0.00     0.073 A 
HETATM   18  C   UNL     1      38.518 -13.560  -0.958  1.00  0.00     0.073 A 
HETATM   19  C   UNL     1      38.224 -13.710   0.392  1.00  0.00     0.073 A 
HETATM   20  C   UNL     1      39.070 -14.433   1.230  1.00  0.00     0.066 A 
BRANCH  17  21
HETATM   21  O   UNL     1      39.877 -13.910  -2.816  1.00  0.00    -0.356 OA
HETATM   22  C   UNL     1      39.829 -15.080  -3.627  1.00  0.00     0.210 C 
ENDBRANCH  17  21
BRANCH  19  23
HETATM   23  O   UNL     1      37.065 -13.188   0.901  1.00  0.00    -0.356 OA
HETATM   24  C   UNL     1      36.741 -11.979   0.211  1.00  0.00     0.210 C 
ENDBRANCH  19  23
ENDBRANCH  12  15
ENDBRANCH   1  11
BRANCH   9  25
HETATM   25  C   UNL     1      43.887 -19.582   3.398  1.00  0.00    -0.007 A 
HETATM   26  C   UNL     1      44.538 -20.445   4.299  1.00  0.00     0.014 A 
HETATM   27  C   UNL     1      44.836 -21.768   3.961  1.00  0.00     0.001 A 
HETATM   28  C   UNL     1      44.490 -22.261   2.708  1.00  0.00     0.000 A 
HETATM   29  C   UNL     1      43.850 -21.431   1.793  1.00  0.00     0.001 A 
HETATM   30  C   UNL     1      43.554 -20.107   2.134  1.00  0.00     0.014 A 
ENDBRANCH   9  25
TORSDOF 5
ENDMDL
MODEL 5
REMARK VINA RESULT:      -8.8      1.174      1.393
REMARK  5 active torsions:
REMARK  status: ('A' for Active; 'I' for Inactive)
REMARK    1  A    between atoms: O_2  and  C_3 
REMARK    2  A    between atoms: C_5  and  O_6 
REMARK    3  A    between atoms: C_9  and  N_10 
REMARK       I    between atoms: N_10  and  C_11 
REMARK    4  A    between atoms: C_11  and  C_12 
REMARK    5  A    between atoms: C_20  and  C_21 
ROOT
HETATM    1  C   UNL     1      42.509 -16.179   3.475  1.00  0.00     0.047 A 
HETATM    2  C   UNL     1      43.085 -15.687   4.672  1.00  0.00     0.008 A 
HETATM    3  C   UNL     1      43.792 -16.632   5.441  1.00  0.00     0.068 A 
HETATM    4  C   UNL     1      44.332 -16.245   6.658  1.00  0.00     0.032 A 
HETATM    5  C   UNL     1      44.230 -14.936   7.133  1.00  0.00     0.002 A 
HETATM    6  C   UNL     1      43.591 -13.978   6.362  1.00  0.00     0.001 A 
HETATM    7  C   UNL     1      43.035 -14.345   5.137  1.00  0.00     0.015 A 
HETATM    8  N   UNL     1      43.987 -17.900   5.047  1.00  0.00    -0.248 NA
HETATM    9  C   UNL     1      43.515 -18.322   3.848  1.00  0.00     0.068 A 
HETATM   10  C   UNL     1      42.746 -17.491   3.055  1.00  0.00     0.050 A 
ENDROOT
BRANCH   1  11
HETATM   11  C   UNL     1      41.635 -15.371   2.578  1.00  0.00     0.257 C 
HETATM   12  N   UNL     1      42.224 -14.952   1.398  1.00  0.00    -0.323 N 
HETATM   13  H   UNL     1      43.182 -15.234   1.234  1.00  0.00     0.169 HD
HETATM   14  O   UNL     1      40.497 -15.124   2.958  1.00  0.00    -0.267 OA
BRANCH  12  15
HETATM   15  C   UNL     1      41.607 -14.241   0.347  1.00  0.00     0.040 A 
HETATM   16  C   UNL     1      40.704 -14.811  -0.557  1.00  0.00     0.066 A 
HETATM   17  C   UNL     1      40.132 -14.037  -1.574  1.00  0.00     0.073 A 
HETATM   18  C   UNL     1      40.515 -12.705  -1.728  1.00  0.00     0.073 A 
HETATM   19  C   UNL     1      41.434 -12.148  -0.846  1.00  0.00     0.073 A 
HETATM   20  C   UNL     1      41.943 -12.889   0.216  1.00  0.00     0.066 A 
BRANCH  17  21
HETATM   21  O   UNL     1      39.209 -14.478  -2.486  1.00  0.00    -0.356 OA
HETATM   22  C   UNL     1      39.714 -15.288  -3.543  1.00  0.00     0.210 C 
ENDBRANCH  17  21
BRANCH  19  23
HETATM   23  O   UNL     1      41.808 -10.839  -0.988  1.00  0.00    -0.356 OA
HETATM   24  C   UNL     1      43.179 -10.772  -1.389  1.00  0.00     0.210 C 
ENDBRANCH  19  23
ENDBRANCH  12  15
ENDBRANCH   1  11
BRANCH   9  25
HETATM   25  C   UNL     1      43.887 -19.701   3.460  1.00  0.00    -0.007 A 
HETATM   26  C   UNL     1      43.543 -20.213   2.196  1.00  0.00     0.014 A 
HETATM   27  C   UNL     1      43.865 -21.521   1.821  1.00  0.00     0.001 A 
HETATM   28  C   UNL     1      44.541 -22.352   2.709  1.00  0.00     0.000 A 
HETATM   29  C   UNL     1      44.891 -21.876   3.968  1.00  0.00     0.001 A 
HETATM   30  C   UNL     1      44.567 -20.567   4.340  1.00  0.00     0.014 A 
ENDBRANCH   9  25
TORSDOF 5
ENDMDL
MODEL 6
REMARK VINA RESULT:      -8.6      3.258      7.264
REMARK  5 active torsions:
REMARK  status: ('A' for Active; 'I' for Inactive)
REMARK    1  A    between atoms: O_2  and  C_3 
REMARK    2  A    between atoms: C_5  and  O_6 
REMARK    3  A    between atoms: C_9  and  N_10 
REMARK       I    between atoms: N_10  and  C_11 
REMARK    4  A    between atoms: C_11  and  C_12 
REMARK    5  A    between atoms: C_20  and  C_21 
ROOT
HETATM    1  C   UNL     1      43.204 -15.528   2.960  1.00  0.00     0.047 A 
HETATM    2  C   UNL     1      42.378 -15.336   1.824  1.00  0.00     0.008 A 
HETATM    3  C   UNL     1      42.201 -16.465   1.002  1.00  0.00     0.068 A 
HETATM    4  C   UNL     1      41.458 -16.342  -0.163  1.00  0.00     0.032 A 
HETATM    5  C   UNL     1      40.847 -15.142  -0.531  1.00  0.00     0.002 A 
HETATM    6  C   UNL     1      40.960 -14.037   0.297  1.00  0.00     0.001 A 
HETATM    7  C   UNL     1      41.707 -14.134   1.470  1.00  0.00     0.015 A 
HETATM    8  N   UNL     1      42.706 -17.674   1.296  1.00  0.00    -0.248 NA
HETATM    9  C   UNL     1      43.406 -17.859   2.440  1.00  0.00     0.068 A 
HETATM   10  C   UNL     1      43.696 -16.797   3.277  1.00  0.00     0.050 A 
ENDROOT
BRANCH   1  11
HETATM   11  C   UNL     1      43.603 -14.438   3.893  1.00  0.00     0.257 C 
HETATM   12  N   UNL     1      42.961 -14.443   5.119  1.00  0.00    -0.323 N 
HETATM   13  H   UNL     1      42.292 -15.184   5.287  1.00  0.00     0.169 HD
HETATM   14  O   UNL     1      44.431 -13.624   3.503  1.00  0.00    -0.267 OA
BRANCH  12  15
HETATM   15  C   UNL     1      43.199 -13.576   6.206  1.00  0.00     0.040 A 
HETATM   16  C   UNL     1      44.252 -13.733   7.114  1.00  0.00     0.066 A 
HETATM   17  C   UNL     1      44.422 -12.826   8.168  1.00  0.00     0.073 A 
HETATM   18  C   UNL     1      43.497 -11.799   8.353  1.00  0.00     0.073 A 
HETATM   19  C   UNL     1      42.436 -11.662   7.467  1.00  0.00     0.073 A 
HETATM   20  C   UNL     1      42.308 -12.510   6.370  1.00  0.00     0.066 A 
BRANCH  17  21
HETATM   21  O   UNL     1      45.437 -12.858   9.089  1.00  0.00    -0.356 OA
HETATM   22  C   UNL     1      45.508 -11.749   9.979  1.00  0.00     0.210 C 
ENDBRANCH  17  21
BRANCH  19  23
HETATM   23  O   UNL     1      41.529 -10.651   7.639  1.00  0.00    -0.356 OA
HETATM   24  C   UNL     1      40.205 -11.158   7.457  1.00  0.00     0.210 C 
ENDBRANCH  19  23
ENDBRANCH  12  15
ENDBRANCH   1  11
BRANCH   9  25
HETATM   25  C   UNL     1      43.814 -19.253   2.725  1.00  0.00    -0.007 A 
HETATM   26  C   UNL     1      43.574 -20.280   1.793  1.00  0.00     0.014 A 
HETATM   27  C   UNL     1      43.931 -21.606   2.055  1.00  0.00     0.001 A 
HETATM   28  C   UNL     1      44.537 -21.938   3.262  1.00  0.00     0.000 A 
HETATM   29  C   UNL     1      44.784 -20.946   4.205  1.00  0.00     0.001 A 
HETATM   30  C   UNL     1      44.425 -19.620   3.940  1.00  0.00     0.014 A 
ENDBRANCH   9  25
TORSDOF 5
ENDMDL
MODEL 7
REMARK VINA RESULT:      -8.6      3.293      7.316
REMARK  5 active torsions:
REMARK  status: ('A' for Active; 'I' for Inactive)
REMARK    1  A    between atoms: O_2  and  C_3 
REMARK    2  A    between atoms: C_5  and  O_6 
REMARK    3  A    between atoms: C_9  and  N_10 
REMARK       I    between atoms: N_10  and  C_11 
REMARK    4  A    between atoms: C_11  and  C_12 
REMARK    5  A    between atoms: C_20  and  C_21 
ROOT
HETATM    1  C   UNL     1      43.112 -15.482   2.897  1.00  0.00     0.047 A 
HETATM    2  C   UNL     1      42.326 -15.293   1.733  1.00  0.00     0.008 A 
HETATM    3  C   UNL     1      42.173 -16.425   0.910  1.00  0.00     0.068 A 
HETATM    4  C   UNL     1      41.470 -16.304  -0.280  1.00  0.00     0.032 A 
HETATM    5  C   UNL     1      40.875 -15.103  -0.673  1.00  0.00     0.002 A 
HETATM    6  C   UNL     1      40.963 -13.996   0.155  1.00  0.00     0.001 A 
HETATM    7  C   UNL     1      41.670 -14.091   1.353  1.00  0.00     0.015 A 
HETATM    8  N   UNL     1      42.665 -17.633   1.225  1.00  0.00    -0.248 NA
HETATM    9  C   UNL     1      43.326 -17.816   2.393  1.00  0.00     0.068 A 
HETATM   10  C   UNL     1      43.591 -16.752   3.235  1.00  0.00     0.050 A 
ENDROOT
BRANCH   1  11
HETATM   11  C   UNL     1      43.483 -14.390   3.839  1.00  0.00     0.257 C 
HETATM   12  N   UNL     1      42.725 -14.322   4.995  1.00  0.00    -0.323 N 
HETATM   13  H   UNL     1      41.999 -15.018   5.113  1.00  0.00     0.169 HD
HETATM   14  O   UNL     1      44.392 -13.637   3.514  1.00  0.00    -0.267 OA
BRANCH  12  15
HETATM   15  C   UNL     1      42.907 -13.438   6.079  1.00  0.00     0.040 A 
HETATM   16  C   UNL     1      42.100 -12.320   6.319  1.00  0.00     0.066 A 
HETATM   17  C   UNL     1      42.343 -11.492   7.421  1.00  0.00     0.073 A 
HETATM   18  C   UNL     1      43.438 -11.743   8.247  1.00  0.00     0.073 A 
HETATM   19  C   UNL     1      44.256 -12.837   7.991  1.00  0.00     0.073 A 
HETATM   20  C   UNL     1      43.970 -13.712   6.946  1.00  0.00     0.066 A 
BRANCH  17  21
HETATM   21  O   UNL     1      41.596 -10.398   7.775  1.00  0.00    -0.356 OA
HETATM   22  C   UNL     1      41.800  -9.902   9.094  1.00  0.00     0.210 C 
ENDBRANCH  17  21
BRANCH  19  23
HETATM   23  O   UNL     1      45.327 -13.094   8.803  1.00  0.00    -0.356 OA
HETATM   24  C   UNL     1      45.566 -11.969   9.651  1.00  0.00     0.210 C 
ENDBRANCH  19  23
ENDBRANCH  12  15
ENDBRANCH   1  11
BRANCH   9  25
HETATM   25  C   UNL     1      43.721 -19.210   2.696  1.00  0.00    -0.007 A 
HETATM   26  C   UNL     1      44.344 -19.535   3.915  1.00  0.00     0.014 A 
HETATM   27  C   UNL     1      44.745 -20.842   4.208  1.00  0.00     0.001 A 
HETATM   28  C   UNL     1      44.534 -21.859   3.282  1.00  0.00     0.000 A 
HETATM   29  C   UNL     1      43.925 -21.568   2.066  1.00  0.00     0.001 A 
HETATM   30  C   UNL     1      43.525 -20.259   1.776  1.00  0.00     0.014 A 
ENDBRANCH   9  25
TORSDOF 5
ENDMDL
MODEL 8
REMARK VINA RESULT:      -8.2      2.008      2.398
REMARK  5 active torsions:
REMARK  status: ('A' for Active; 'I' for Inactive)
REMARK    1  A    between atoms: O_2  and  C_3 
REMARK    2  A    between atoms: C_5  and  O_6 
REMARK    3  A    between atoms: C_9  and  N_10 
REMARK       I    between atoms: N_10  and  C_11 
REMARK    4  A    between atoms: C_11  and  C_12 
REMARK    5  A    between atoms: C_20  and  C_21 
ROOT
HETATM    1  C   UNL     1      41.800 -16.125   2.495  1.00  0.00     0.047 A 
HETATM    2  C   UNL     1      41.294 -15.909   3.801  1.00  0.00     0.008 A 
HETATM    3  C   UNL     1      41.406 -17.000   4.686  1.00  0.00     0.068 A 
HETATM    4  C   UNL     1      40.876 -16.890   5.963  1.00  0.00     0.032 A 
HETATM    5  C   UNL     1      40.267 -15.718   6.417  1.00  0.00     0.002 A 
HETATM    6  C   UNL     1      40.204 -14.615   5.581  1.00  0.00     0.001 A 
HETATM    7  C   UNL     1      40.722 -14.703   4.290  1.00  0.00     0.015 A 
HETATM    8  N   UNL     1      42.017 -18.149   4.360  1.00  0.00    -0.248 NA
HETATM    9  C   UNL     1      42.586 -18.296   3.139  1.00  0.00     0.068 A 
HETATM   10  C   UNL     1      42.466 -17.312   2.176  1.00  0.00     0.050 A 
ENDROOT
BRANCH   1  11
HETATM   11  C   UNL     1      41.682 -15.141   1.383  1.00  0.00     0.257 C 
HETATM   12  N   UNL     1      40.654 -15.380   0.488  1.00  0.00    -0.323 N 
HETATM   13  H   UNL     1      40.064 -16.184   0.665  1.00  0.00     0.169 HD
HETATM   14  O   UNL     1      42.501 -14.232   1.333  1.00  0.00    -0.267 OA
BRANCH  12  15
HETATM   15  C   UNL     1      40.276 -14.574  -0.607  1.00  0.00     0.040 A 
HETATM   16  C   UNL     1      41.099 -14.318  -1.709  1.00  0.00     0.066 A 
HETATM   17  C   UNL     1      40.648 -13.508  -2.758  1.00  0.00     0.073 A 
HETATM   18  C   UNL     1      39.397 -12.898  -2.674  1.00  0.00     0.073 A 
HETATM   19  C   UNL     1      38.593 -13.131  -1.565  1.00  0.00     0.073 A 
HETATM   20  C   UNL     1      39.001 -14.001  -0.558  1.00  0.00     0.066 A 
BRANCH  17  21
HETATM   21  O   UNL     1      41.350 -13.223  -3.901  1.00  0.00    -0.356 OA
HETATM   22  C   UNL     1      42.109 -12.018  -3.884  1.00  0.00     0.210 C 
ENDBRANCH  17  21
BRANCH  19  23
HETATM   23  O   UNL     1      37.360 -12.541  -1.480  1.00  0.00    -0.356 OA
HETATM   24  C   UNL     1      37.077 -11.845  -2.696  1.00  0.00     0.210 C 
ENDBRANCH  19  23
ENDBRANCH  12  15
ENDBRANCH   1  11
BRANCH   9  25
HETATM   25  C   UNL     1      43.335 -19.554   2.927  1.00  0.00    -0.007 A 
HETATM   26  C   UNL     1      43.095 -20.357   1.796  1.00  0.00     0.014 A 
HETATM   27  C   UNL     1      43.776 -21.560   1.592  1.00  0.00     0.001 A 
HETATM   28  C   UNL     1      44.718 -21.993   2.520  1.00  0.00     0.000 A 
HETATM   29  C   UNL     1      44.974 -21.224   3.650  1.00  0.00     0.001 A 
HETATM   30  C   UNL     1      44.290 -20.021   3.852  1.00  0.00     0.014 A 
ENDBRANCH   9  25
TORSDOF 5
ENDMDL
MODEL 9
REMARK VINA RESULT:      -8.1      2.332      3.174
REMARK  5 active torsions:
REMARK  status: ('A' for Active; 'I' for Inactive)
REMARK    1  A    between atoms: O_2  and  C_3 
REMARK    2  A    between atoms: C_5  and  O_6 
REMARK    3  A    between atoms: C_9  and  N_10 
REMARK       I    between atoms: N_10  and  C_11 
REMARK    4  A    between atoms: C_11  and  C_12 
REMARK    5  A    between atoms: C_20  and  C_21 
ROOT
HETATM    1  C   UNL     1      41.114 -15.371   1.778  1.00  0.00     0.047 A 
HETATM    2  C   UNL     1      40.730 -14.836   3.032  1.00  0.00     0.008 A 
HETATM    3  C   UNL     1      41.020 -15.639   4.152  1.00  0.00     0.068 A 
HETATM    4  C   UNL     1      40.618 -15.214   5.410  1.00  0.00     0.032 A 
HETATM    5  C   UNL     1      39.967 -13.995   5.609  1.00  0.00     0.002 A 
HETATM    6  C   UNL     1      39.729 -13.164   4.527  1.00  0.00     0.001 A 
HETATM    7  C   UNL     1      40.117 -13.572   3.252  1.00  0.00     0.015 A 
HETATM    8  N   UNL     1      41.685 -16.802   4.069  1.00  0.00    -0.248 NA
HETATM    9  C   UNL     1      42.134 -17.246   2.870  1.00  0.00     0.068 A 
HETATM   10  C   UNL     1      41.837 -16.566   1.703  1.00  0.00     0.050 A 
ENDROOT
BRANCH   1  11
HETATM   11  C   UNL     1      40.803 -14.732   0.469  1.00  0.00     0.257 C 
HETATM   12  N   UNL     1      39.457 -14.633   0.163  1.00  0.00    -0.323 N 
HETATM   13  H   UNL     1      38.800 -14.983   0.849  1.00  0.00     0.169 HD
HETATM   14  O   UNL     1      41.742 -14.377  -0.233  1.00  0.00    -0.267 OA
BRANCH  12  15
HETATM   15  C   UNL     1      38.886 -14.013  -0.968  1.00  0.00     0.040 A 
HETATM   16  C   UNL     1      38.431 -12.689  -0.987  1.00  0.00     0.066 A 
HETATM   17  C   UNL     1      37.878 -12.145  -2.153  1.00  0.00     0.073 A 
HETATM   18  C   UNL     1      37.717 -12.947  -3.282  1.00  0.00     0.073 A 
HETATM   19  C   UNL     1      38.143 -14.270  -3.252  1.00  0.00     0.073 A 
HETATM   20  C   UNL     1      38.770 -14.792  -2.124  1.00  0.00     0.066 A 
BRANCH  17  21
HETATM   21  O   UNL     1      37.439 -10.855  -2.298  1.00  0.00    -0.356 OA
HETATM   22  C   UNL     1      36.194 -10.690  -2.969  1.00  0.00     0.210 C 
ENDBRANCH  17  21
BRANCH  19  23
HETATM   23  O   UNL     1      37.995 -15.060  -4.360  1.00  0.00    -0.356 OA
HETATM   24  C   UNL     1      38.905 -16.160  -4.290  1.00  0.00     0.210 C 
ENDBRANCH  19  23
ENDBRANCH  12  15
ENDBRANCH   1  11
BRANCH   9  25
HETATM   25  C   UNL     1      42.956 -18.475   2.907  1.00  0.00    -0.007 A 
HETATM   26  C   UNL     1      42.911 -19.407   1.853  1.00  0.00     0.014 A 
HETATM   27  C   UNL     1      43.662 -20.585   1.883  1.00  0.00     0.001 A 
HETATM   28  C   UNL     1      44.479 -20.862   2.974  1.00  0.00     0.000 A 
HETATM   29  C   UNL     1      44.542 -19.964   4.034  1.00  0.00     0.001 A 
HETATM   30  C   UNL     1      43.788 -18.785   4.002  1.00  0.00     0.014 A 
ENDBRANCH   9  25
TORSDOF 5
ENDMDL
MODEL 10
REMARK VINA RESULT:      -8.0      2.984      7.923
REMARK  5 active torsions:
REMARK  status: ('A' for Active; 'I' for Inactive)
REMARK    1  A    between atoms: O_2  and  C_3 
REMARK    2  A    between atoms: C_5  and  O_6 
REMARK    3  A    between atoms: C_9  and  N_10 
REMARK       I    between atoms: N_10  and  C_11 
REMARK    4  A    between atoms: C_11  and  C_12 
REMARK    5  A    between atoms: C_20  and  C_21 
ROOT
HETATM    1  C   UNL     1      41.405 -14.892   2.786  1.00  0.00     0.047 A 
HETATM    2  C   UNL     1      40.574 -13.929   3.410  1.00  0.00     0.008 A 
HETATM    3  C   UNL     1      39.778 -13.157   2.541  1.00  0.00     0.068 A 
HETATM    4  C   UNL     1      38.984 -12.150   3.070  1.00  0.00     0.032 A 
HETATM    5  C   UNL     1      38.919 -11.897   4.441  1.00  0.00     0.002 A 
HETATM    6  C   UNL     1      39.648 -12.687   5.316  1.00  0.00     0.001 A 
HETATM    7  C   UNL     1      40.459 -13.702   4.808  1.00  0.00     0.015 A 
HETATM    8  N   UNL     1      39.734 -13.356   1.215  1.00  0.00    -0.248 NA
HETATM    9  C   UNL     1      40.460 -14.352   0.651  1.00  0.00     0.068 A 
HETATM   10  C   UNL     1      41.327 -15.117   1.408  1.00  0.00     0.050 A 
ENDROOT
BRANCH   1  11
HETATM   11  C   UNL     1      42.398 -15.732   3.513  1.00  0.00     0.257 C 
HETATM   12  N   UNL     1      42.080 -17.076   3.608  1.00  0.00    -0.323 N 
HETATM   13  H   UNL     1      41.219 -17.379   3.170  1.00  0.00     0.169 HD
HETATM   14  O   UNL     1      43.383 -15.177   3.984  1.00  0.00    -0.267 OA
BRANCH  12  15
HETATM   15  C   UNL     1      42.870 -18.098   4.175  1.00  0.00     0.040 A 
HETATM   16  C   UNL     1      43.563 -19.056   3.427  1.00  0.00     0.066 A 
HETATM   17  C   UNL     1      44.329 -20.039   4.066  1.00  0.00     0.073 A 
HETATM   18  C   UNL     1      44.349 -20.103   5.458  1.00  0.00     0.073 A 
HETATM   19  C   UNL     1      43.638 -19.168   6.200  1.00  0.00     0.073 A 
HETATM   20  C   UNL     1      42.941 -18.139   5.571  1.00  0.00     0.066 A 
BRANCH  17  21
HETATM   21  O   UNL     1      45.077 -20.998   3.435  1.00  0.00    -0.356 OA
HETATM   22  C   UNL     1      44.444 -21.675   2.354  1.00  0.00     0.210 C 
ENDBRANCH  17  21
BRANCH  19  23
HETATM   23  O   UNL     1      43.660 -19.221   7.568  1.00  0.00    -0.356 OA
HETATM   24  C   UNL     1      43.633 -17.895   8.100  1.00  0.00     0.210 C 
ENDBRANCH  19  23
ENDBRANCH  12  15
ENDBRANCH   1  11
BRANCH   9  25
HETATM   25  C   UNL     1      40.246 -14.560  -0.799  1.00  0.00    -0.007 A 
HETATM   26  C   UNL     1      40.899 -15.603  -1.482  1.00  0.00     0.014 A 
HETATM   27  C   UNL     1      40.728 -15.799  -2.856  1.00  0.00     0.001 A 
HETATM   28  C   UNL     1      39.899 -14.951  -3.583  1.00  0.00     0.000 A 
HETATM   29  C   UNL     1      39.244 -13.908  -2.936  1.00  0.00     0.001 A 
HETATM   30  C   UNL     1      39.417 -13.714  -1.562  1.00  0.00     0.014 A 
ENDBRANCH   9  25
TORSDOF 5
ENDMDL
