MODEL 1
REMARK VINA RESULT:      -7.8      0.000      0.000
REMARK  5 active torsions:
REMARK  status: ('A' for Active; 'I' for Inactive)
REMARK    1  A    between atoms: O_2  and  C_3 
REMARK    2  A    between atoms: C_5  and  C_15 
REMARK    3  A    between atoms: C_8  and  C_9 
REMARK       I    between atoms: C_15  and  N_17 
REMARK    4  A    between atoms: N_17  and  C_18 
REMARK    5  A    between atoms: C_18  and  C_19 
ROOT
HETATM    1  C   UNL     1      42.748 -10.516  10.160  1.00  0.00     0.080 A 
HETATM    2  C   UNL     1      43.188 -11.404   9.165  1.00  0.00     0.054 A 
HETATM    3  C   UNL     1      44.495 -11.912   9.190  1.00  0.00     0.034 A 
HETATM    4  C   UNL     1      45.379 -11.503  10.189  1.00  0.00     0.018 A 
HETATM    5  C   UNL     1      44.946 -10.629  11.187  1.00  0.00     0.016 A 
HETATM    6  C   UNL     1      43.628 -10.138  11.199  1.00  0.00     0.010 A 
ENDROOT
BRANCH   3   7
HETATM    7  C   UNL     1      44.978 -12.879   8.167  1.00  0.00     0.252 C 
HETATM    8  O   UNL     1      46.129 -12.822   7.752  1.00  0.00    -0.268 OA
HETATM    9  N   UNL     1      44.071 -13.837   7.768  1.00  0.00    -0.353 N 
HETATM   10  H   UNL     1      43.268 -14.003   8.362  1.00  0.00     0.163 HD
BRANCH   9  11
HETATM   11  C   UNL     1      44.471 -14.932   6.915  1.00  0.00     0.163 C 
BRANCH  11  12
HETATM   12  C   UNL     1      43.458 -15.165   5.822  1.00  0.00    -0.019 A 
HETATM   13  C   UNL     1      43.480 -14.336   4.687  1.00  0.00     0.012 A 
HETATM   14  C   UNL     1      42.552 -14.506   3.656  1.00  0.00     0.020 A 
HETATM   15  C   UNL     1      41.587 -15.503   3.755  1.00  0.00     0.012 A 
HETATM   16 BR   UNL     1      40.324 -15.726   2.366  1.00  0.00    -0.051 Br
HETATM   17  C   UNL     1      41.540 -16.333   4.871  1.00  0.00     0.043 A 
HETATM   18  C   UNL     1      42.473 -16.165   5.899  1.00  0.00     0.043 A 
HETATM   19 CL   UNL     1      42.348 -17.212   7.269  1.00  0.00    -0.084 Cl
ENDBRANCH  11  12
ENDBRANCH   9  11
ENDBRANCH   3   7
BRANCH   1  20
HETATM   20  O   UNL     1      41.471 -10.017  10.206  1.00  0.00    -0.355 OA
HETATM   21  C   UNL     1      40.407 -10.932  10.438  1.00  0.00     0.210 C 
ENDBRANCH   1  20
BRANCH   6  22
HETATM   22  C   UNL     1      43.218  -9.238  12.273  1.00  0.00     0.013 A 
HETATM   23  C   UNL     1      42.683  -7.928  12.243  1.00  0.00     0.152 A 
HETATM   24  N   UNL     1      42.434  -7.440  13.462  1.00  0.00    -0.187 NA
HETATM   25  N   UNL     1      42.793  -8.442  14.278  1.00  0.00    -0.289 N 
HETATM   26  H   UNL     1      42.682  -8.309  15.278  1.00  0.00     0.188 HD
HETATM   27  C   UNL     1      43.271  -9.537  13.620  1.00  0.00     0.123 A 
ENDBRANCH   6  22
TORSDOF 5
ENDMDL
MODEL 2
REMARK VINA RESULT:      -7.8      8.003     11.698
REMARK  5 active torsions:
REMARK  status: ('A' for Active; 'I' for Inactive)
REMARK    1  A    between atoms: O_2  and  C_3 
REMARK    2  A    between atoms: C_5  and  C_15 
REMARK    3  A    between atoms: C_8  and  C_9 
REMARK       I    between atoms: C_15  and  N_17 
REMARK    4  A    between atoms: N_17  and  C_18 
REMARK    5  A    between atoms: C_18  and  C_19 
ROOT
HETATM    1  C   UNL     1      40.023 -14.545  -1.754  1.00  0.00     0.080 A 
HETATM    2  C   UNL     1      40.750 -14.697  -0.563  1.00  0.00     0.054 A 
HETATM    3  C   UNL     1      40.128 -14.521   0.681  1.00  0.00     0.034 A 
HETATM    4  C   UNL     1      38.782 -14.156   0.736  1.00  0.00     0.018 A 
HETATM    5  C   UNL     1      38.050 -14.013  -0.443  1.00  0.00     0.016 A 
HETATM    6  C   UNL     1      38.649 -14.221  -1.698  1.00  0.00     0.010 A 
ENDROOT
BRANCH   3   7
HETATM    7  C   UNL     1      40.866 -14.706   1.960  1.00  0.00     0.252 C 
HETATM    8  O   UNL     1      40.260 -14.807   3.019  1.00  0.00    -0.268 OA
HETATM    9  N   UNL     1      42.237 -14.795   1.855  1.00  0.00    -0.353 N 
HETATM   10  H   UNL     1      42.629 -15.005   0.945  1.00  0.00     0.163 HD
BRANCH   9  11
HETATM   11  C   UNL     1      43.051 -15.147   2.996  1.00  0.00     0.163 C 
BRANCH  11  12
HETATM   12  C   UNL     1      43.417 -16.610   2.970  1.00  0.00    -0.019 A 
HETATM   13  C   UNL     1      43.587 -17.247   1.729  1.00  0.00     0.012 A 
HETATM   14  C   UNL     1      43.912 -18.604   1.657  1.00  0.00     0.020 A 
HETATM   15  C   UNL     1      44.061 -19.340   2.829  1.00  0.00     0.012 A 
HETATM   16 BR   UNL     1      44.490 -21.178   2.733  1.00  0.00    -0.051 Br
HETATM   17  C   UNL     1      43.893 -18.734   4.070  1.00  0.00     0.043 A 
HETATM   18  C   UNL     1      43.573 -17.375   4.140  1.00  0.00     0.043 A 
HETATM   19 CL   UNL     1      43.353 -16.686   5.710  1.00  0.00    -0.084 Cl
ENDBRANCH  11  12
ENDBRANCH   9  11
ENDBRANCH   3   7
BRANCH   1  20
HETATM   20  O   UNL     1      40.572 -14.742  -2.997  1.00  0.00    -0.355 OA
HETATM   21  C   UNL     1      41.463 -13.752  -3.496  1.00  0.00     0.210 C 
ENDBRANCH   1  20
BRANCH   6  22
HETATM   22  C   UNL     1      37.837 -14.076  -2.903  1.00  0.00     0.013 A 
HETATM   23  C   UNL     1      37.167 -15.033  -3.700  1.00  0.00     0.152 A 
HETATM   24  N   UNL     1      36.520 -14.488  -4.735  1.00  0.00    -0.187 NA
HETATM   25  N   UNL     1      36.761 -13.176  -4.596  1.00  0.00    -0.289 N 
HETATM   26  H   UNL     1      36.355 -12.539  -5.274  1.00  0.00     0.188 HD
HETATM   27  C   UNL     1      37.545 -12.876  -3.521  1.00  0.00     0.123 A 
ENDBRANCH   6  22
TORSDOF 5
ENDMDL
MODEL 3
REMARK VINA RESULT:      -7.8      8.354     10.766
REMARK  5 active torsions:
REMARK  status: ('A' for Active; 'I' for Inactive)
REMARK    1  A    between atoms: O_2  and  C_3 
REMARK    2  A    between atoms: C_5  and  C_15 
REMARK    3  A    between atoms: C_8  and  C_9 
REMARK       I    between atoms: C_15  and  N_17 
REMARK    4  A    between atoms: N_17  and  C_18 
REMARK    5  A    between atoms: C_18  and  C_19 
ROOT
HETATM    1  C   UNL     1      43.036 -18.366   3.882  1.00  0.00     0.080 A 
HETATM    2  C   UNL     1      42.578 -17.127   3.408  1.00  0.00     0.054 A 
HETATM    3  C   UNL     1      42.856 -16.717   2.096  1.00  0.00     0.034 A 
HETATM    4  C   UNL     1      43.627 -17.531   1.265  1.00  0.00     0.018 A 
HETATM    5  C   UNL     1      44.077 -18.769   1.725  1.00  0.00     0.016 A 
HETATM    6  C   UNL     1      43.777 -19.212   3.026  1.00  0.00     0.010 A 
ENDROOT
BRANCH   3   7
HETATM    7  C   UNL     1      42.356 -15.423   1.557  1.00  0.00     0.252 C 
HETATM    8  O   UNL     1      42.180 -14.466   2.302  1.00  0.00    -0.268 OA
HETATM    9  N   UNL     1      42.154 -15.376   0.195  1.00  0.00    -0.353 N 
HETATM   10  H   UNL     1      42.599 -16.086  -0.373  1.00  0.00     0.163 HD
BRANCH   9  11
HETATM   11  C   UNL     1      41.839 -14.133  -0.469  1.00  0.00     0.163 C 
BRANCH  11  12
HETATM   12  C   UNL     1      40.605 -14.274  -1.326  1.00  0.00    -0.019 A 
HETATM   13  C   UNL     1      40.724 -14.856  -2.600  1.00  0.00     0.012 A 
HETATM   14  C   UNL     1      39.611 -14.993  -3.433  1.00  0.00     0.020 A 
HETATM   15  C   UNL     1      38.368 -14.541  -3.002  1.00  0.00     0.012 A 
HETATM   16 BR   UNL     1      36.863 -14.716  -4.133  1.00  0.00    -0.051 Br
HETATM   17  C   UNL     1      38.224 -13.956  -1.748  1.00  0.00     0.043 A 
HETATM   18  C   UNL     1      39.338 -13.825  -0.914  1.00  0.00     0.043 A 
HETATM   19 CL   UNL     1      39.100 -13.069   0.623  1.00  0.00    -0.084 Cl
ENDBRANCH  11  12
ENDBRANCH   9  11
ENDBRANCH   3   7
BRANCH   1  20
HETATM   20  O   UNL     1      42.761 -18.834   5.143  1.00  0.00    -0.355 OA
HETATM   21  C   UNL     1      43.124 -18.018   6.249  1.00  0.00     0.210 C 
ENDBRANCH   1  20
BRANCH   6  22
HETATM   22  C   UNL     1      44.257 -20.522   3.456  1.00  0.00     0.013 A 
HETATM   23  C   UNL     1      44.842 -20.951   4.670  1.00  0.00     0.152 A 
HETATM   24  N   UNL     1      45.147 -22.252   4.670  1.00  0.00    -0.187 NA
HETATM   25  N   UNL     1      44.744 -22.666   3.460  1.00  0.00    -0.289 N 
HETATM   26  H   UNL     1      44.863 -23.646   3.223  1.00  0.00     0.188 HD
HETATM   27  C   UNL     1      44.209 -21.672   2.694  1.00  0.00     0.123 A 
ENDBRANCH   6  22
TORSDOF 5
ENDMDL
MODEL 4
REMARK VINA RESULT:      -7.4      4.379      9.151
REMARK  5 active torsions:
REMARK  status: ('A' for Active; 'I' for Inactive)
REMARK    1  A    between atoms: O_2  and  C_3 
REMARK    2  A    between atoms: C_5  and  C_15 
REMARK    3  A    between atoms: C_8  and  C_9 
REMARK       I    between atoms: C_15  and  N_17 
REMARK    4  A    between atoms: N_17  and  C_18 
REMARK    5  A    between atoms: C_18  and  C_19 
ROOT
HETATM    1  C   UNL     1      42.722 -17.118   4.983  1.00  0.00     0.080 A 
HETATM    2  C   UNL     1      42.468 -15.738   5.021  1.00  0.00     0.054 A 
HETATM    3  C   UNL     1      43.145 -14.912   5.929  1.00  0.00     0.034 A 
HETATM    4  C   UNL     1      44.053 -15.471   6.829  1.00  0.00     0.018 A 
HETATM    5  C   UNL     1      44.320 -16.840   6.791  1.00  0.00     0.016 A 
HETATM    6  C   UNL     1      43.677 -17.678   5.863  1.00  0.00     0.010 A 
ENDROOT
BRANCH   3   7
HETATM    7  C   UNL     1      42.918 -13.442   5.970  1.00  0.00     0.252 C 
HETATM    8  O   UNL     1      42.539 -12.843   4.971  1.00  0.00    -0.268 OA
HETATM    9  N   UNL     1      43.121 -12.836   7.191  1.00  0.00    -0.353 N 
HETATM   10  H   UNL     1      43.134 -13.424   8.014  1.00  0.00     0.163 HD
BRANCH   9  11
HETATM   11  C   UNL     1      42.768 -11.451   7.403  1.00  0.00     0.163 C 
BRANCH  11  12
HETATM   12  C   UNL     1      42.927 -11.067   8.853  1.00  0.00    -0.019 A 
HETATM   13  C   UNL     1      41.809 -10.584   9.555  1.00  0.00     0.012 A 
HETATM   14  C   UNL     1      41.913 -10.203  10.895  1.00  0.00     0.020 A 
HETATM   15  C   UNL     1      43.141 -10.294  11.545  1.00  0.00     0.012 A 
HETATM   16 BR   UNL     1      43.285  -9.769  13.355  1.00  0.00    -0.051 Br
HETATM   17  C   UNL     1      44.263 -10.764  10.871  1.00  0.00     0.043 A 
HETATM   18  C   UNL     1      44.156 -11.149   9.531  1.00  0.00     0.043 A 
HETATM   19 CL   UNL     1      45.591 -11.702   8.742  1.00  0.00    -0.084 Cl
ENDBRANCH  11  12
ENDBRANCH   9  11
ENDBRANCH   3   7
BRANCH   1  20
HETATM   20  O   UNL     1      42.117 -17.967   4.091  1.00  0.00    -0.355 OA
HETATM   21  C   UNL     1      42.275 -17.698   2.703  1.00  0.00     0.210 C 
ENDBRANCH   1  20
BRANCH   6  22
HETATM   22  C   UNL     1      44.001 -19.101   5.850  1.00  0.00     0.013 A 
HETATM   23  C   UNL     1      44.769 -19.878   4.952  1.00  0.00     0.152 A 
HETATM   24  N   UNL     1      44.828 -21.168   5.297  1.00  0.00    -0.187 NA
HETATM   25  N   UNL     1      44.111 -21.220   6.429  1.00  0.00    -0.289 N 
HETATM   26  H   UNL     1      44.018 -22.115   6.898  1.00  0.00     0.188 HD
HETATM   27  C   UNL     1      43.591 -20.015   6.802  1.00  0.00     0.123 A 
ENDBRANCH   6  22
TORSDOF 5
ENDMDL
MODEL 5
REMARK VINA RESULT:      -7.3      8.505     10.702
REMARK  5 active torsions:
REMARK  status: ('A' for Active; 'I' for Inactive)
REMARK    1  A    between atoms: O_2  and  C_3 
REMARK    2  A    between atoms: C_5  and  C_15 
REMARK    3  A    between atoms: C_8  and  C_9 
REMARK       I    between atoms: C_15  and  N_17 
REMARK    4  A    between atoms: N_17  and  C_18 
REMARK    5  A    between atoms: C_18  and  C_19 
ROOT
HETATM    1  C   UNL     1      42.064 -17.983   3.700  1.00  0.00     0.080 A 
HETATM    2  C   UNL     1      41.254 -16.974   3.157  1.00  0.00     0.054 A 
HETATM    3  C   UNL     1      41.377 -16.608   1.809  1.00  0.00     0.034 A 
HETATM    4  C   UNL     1      42.339 -17.225   1.008  1.00  0.00     0.018 A 
HETATM    5  C   UNL     1      43.142 -18.236   1.538  1.00  0.00     0.016 A 
HETATM    6  C   UNL     1      43.007 -18.641   2.878  1.00  0.00     0.010 A 
ENDROOT
BRANCH   3   7
HETATM    7  C   UNL     1      40.509 -15.564   1.199  1.00  0.00     0.252 C 
HETATM    8  O   UNL     1      39.662 -14.988   1.871  1.00  0.00    -0.268 OA
HETATM    9  N   UNL     1      40.754 -15.277  -0.126  1.00  0.00    -0.353 N 
HETATM   10  H   UNL     1      41.643 -15.565  -0.516  1.00  0.00     0.163 HD
BRANCH   9  11
HETATM   11  C   UNL     1      40.101 -14.168  -0.782  1.00  0.00     0.163 C 
BRANCH  11  12
HETATM   12  C   UNL     1      41.042 -12.999  -0.936  1.00  0.00    -0.019 A 
HETATM   13  C   UNL     1      41.225 -12.125   0.150  1.00  0.00     0.012 A 
HETATM   14  C   UNL     1      42.075 -11.021   0.048  1.00  0.00     0.020 A 
HETATM   15  C   UNL     1      42.745 -10.776  -1.147  1.00  0.00     0.012 A 
HETATM   16 BR   UNL     1      43.887  -9.277  -1.289  1.00  0.00    -0.051 Br
HETATM   17  C   UNL     1      42.577 -11.622  -2.238  1.00  0.00     0.043 A 
HETATM   18  C   UNL     1      41.729 -12.729  -2.132  1.00  0.00     0.043 A 
HETATM   19 CL   UNL     1      41.544 -13.729  -3.530  1.00  0.00    -0.084 Cl
ENDBRANCH  11  12
ENDBRANCH   9  11
ENDBRANCH   3   7
BRANCH   1  20
HETATM   20  O   UNL     1      41.962 -18.408   5.001  1.00  0.00    -0.355 OA
HETATM   21  C   UNL     1      42.102 -17.438   6.031  1.00  0.00     0.210 C 
ENDBRANCH   1  20
BRANCH   6  22
HETATM   22  C   UNL     1      43.859 -19.715   3.381  1.00  0.00     0.013 A 
HETATM   23  C   UNL     1      44.637 -19.817   4.558  1.00  0.00     0.152 A 
HETATM   24  N   UNL     1      45.283 -20.983   4.655  1.00  0.00    -0.187 NA
HETATM   25  N   UNL     1      44.908 -21.640   3.548  1.00  0.00    -0.289 N 
HETATM   26  H   UNL     1      45.269 -22.577   3.400  1.00  0.00     0.188 HD
HETATM   27  C   UNL     1      44.062 -20.926   2.751  1.00  0.00     0.123 A 
ENDBRANCH   6  22
TORSDOF 5
ENDMDL
MODEL 6
REMARK VINA RESULT:      -7.2      7.910     11.578
REMARK  5 active torsions:
REMARK  status: ('A' for Active; 'I' for Inactive)
REMARK    1  A    between atoms: O_2  and  C_3 
REMARK    2  A    between atoms: C_5  and  C_15 
REMARK    3  A    between atoms: C_8  and  C_9 
REMARK       I    between atoms: C_15  and  N_17 
REMARK    4  A    between atoms: N_17  and  C_18 
REMARK    5  A    between atoms: C_18  and  C_19 
ROOT
HETATM    1  C   UNL     1      40.727 -14.167  -1.870  1.00  0.00     0.080 A 
HETATM    2  C   UNL     1      41.614 -14.189  -0.782  1.00  0.00     0.054 A 
HETATM    3  C   UNL     1      41.129 -14.248   0.533  1.00  0.00     0.034 A 
HETATM    4  C   UNL     1      39.753 -14.246   0.765  1.00  0.00     0.018 A 
HETATM    5  C   UNL     1      38.865 -14.235  -0.312  1.00  0.00     0.016 A 
HETATM    6  C   UNL     1      39.334 -14.212  -1.638  1.00  0.00     0.010 A 
ENDROOT
BRANCH   3   7
HETATM    7  C   UNL     1      42.046 -14.305   1.704  1.00  0.00     0.252 C 
HETATM    8  O   UNL     1      42.696 -13.320   2.032  1.00  0.00    -0.268 OA
HETATM    9  N   UNL     1      42.071 -15.499   2.390  1.00  0.00    -0.353 N 
HETATM   10  H   UNL     1      41.303 -16.143   2.248  1.00  0.00     0.163 HD
BRANCH   9  11
HETATM   11  C   UNL     1      42.785 -15.625   3.640  1.00  0.00     0.163 C 
BRANCH  11  12
HETATM   12  C   UNL     1      43.258 -17.041   3.854  1.00  0.00    -0.019 A 
HETATM   13  C   UNL     1      43.096 -17.629   5.121  1.00  0.00     0.012 A 
HETATM   14  C   UNL     1      43.533 -18.933   5.368  1.00  0.00     0.020 A 
HETATM   15  C   UNL     1      44.144 -19.659   4.351  1.00  0.00     0.012 A 
HETATM   16 BR   UNL     1      44.746 -21.419   4.688  1.00  0.00    -0.051 Br
HETATM   17  C   UNL     1      44.322 -19.099   3.090  1.00  0.00     0.043 A 
HETATM   18  C   UNL     1      43.880 -17.796   2.843  1.00  0.00     0.043 A 
HETATM   19 CL   UNL     1      44.150 -17.146   1.264  1.00  0.00    -0.084 Cl
ENDBRANCH  11  12
ENDBRANCH   9  11
ENDBRANCH   3   7
BRANCH   1  20
HETATM   20  O   UNL     1      41.146 -14.147  -3.177  1.00  0.00    -0.355 OA
HETATM   21  C   UNL     1      41.699 -12.938  -3.681  1.00  0.00     0.210 C 
ENDBRANCH   1  20
BRANCH   6  22
HETATM   22  C   UNL     1      38.366 -14.217  -2.731  1.00  0.00     0.013 A 
HETATM   23  C   UNL     1      37.785 -15.280  -3.461  1.00  0.00     0.152 A 
HETATM   24  N   UNL     1      36.928 -14.862  -4.398  1.00  0.00    -0.187 NA
HETATM   25  N   UNL     1      36.944 -13.528  -4.260  1.00  0.00    -0.289 N 
HETATM   26  H   UNL     1      36.349 -12.975  -4.869  1.00  0.00     0.188 HD
HETATM   27  C   UNL     1      37.788 -13.090  -3.282  1.00  0.00     0.123 A 
ENDBRANCH   6  22
TORSDOF 5
ENDMDL
MODEL 7
REMARK VINA RESULT:      -7.2      4.333      9.060
REMARK  5 active torsions:
REMARK  status: ('A' for Active; 'I' for Inactive)
REMARK    1  A    between atoms: O_2  and  C_3 
REMARK    2  A    between atoms: C_5  and  C_15 
REMARK    3  A    between atoms: C_8  and  C_9 
REMARK       I    between atoms: C_15  and  N_17 
REMARK    4  A    between atoms: N_17  and  C_18 
REMARK    5  A    between atoms: C_18  and  C_19 
ROOT
HETATM    1  C   UNL     1      42.333 -16.601   5.085  1.00  0.00     0.080 A 
HETATM    2  C   UNL     1      41.993 -15.244   5.202  1.00  0.00     0.054 A 
HETATM    3  C   UNL     1      42.779 -14.376   5.974  1.00  0.00     0.034 A 
HETATM    4  C   UNL     1      43.887 -14.871   6.662  1.00  0.00     0.018 A 
HETATM    5  C   UNL     1      44.237 -16.217   6.542  1.00  0.00     0.016 A 
HETATM    6  C   UNL     1      43.482 -17.094   5.744  1.00  0.00     0.010 A 
ENDROOT
BRANCH   3   7
HETATM    7  C   UNL     1      42.460 -12.927   6.090  1.00  0.00     0.252 C 
HETATM    8  O   UNL     1      41.980 -12.318   5.143  1.00  0.00    -0.268 OA
HETATM    9  N   UNL     1      42.702 -12.355   7.320  1.00  0.00    -0.353 N 
HETATM   10  H   UNL     1      42.806 -12.972   8.116  1.00  0.00     0.163 HD
BRANCH   9  11
HETATM   11  C   UNL     1      42.275 -11.006   7.612  1.00  0.00     0.163 C 
BRANCH  11  12
HETATM   12  C   UNL     1      42.393 -10.706   9.086  1.00  0.00    -0.019 A 
HETATM   13  C   UNL     1      43.673 -10.588   9.655  1.00  0.00     0.012 A 
HETATM   14  C   UNL     1      43.830 -10.325  11.018  1.00  0.00     0.020 A 
HETATM   15  C   UNL     1      42.706 -10.187  11.828  1.00  0.00     0.012 A 
HETATM   16 BR   UNL     1      42.919  -9.843  13.674  1.00  0.00    -0.051 Br
HETATM   17  C   UNL     1      41.429 -10.305  11.289  1.00  0.00     0.043 A 
HETATM   18  C   UNL     1      41.274 -10.562   9.924  1.00  0.00     0.043 A 
HETATM   19 CL   UNL     1      39.662 -10.722   9.320  1.00  0.00    -0.084 Cl
ENDBRANCH  11  12
ENDBRANCH   9  11
ENDBRANCH   3   7
BRANCH   1  20
HETATM   20  O   UNL     1      41.623 -17.487   4.314  1.00  0.00    -0.355 OA
HETATM   21  C   UNL     1      41.653 -17.315   2.903  1.00  0.00     0.210 C 
ENDBRANCH   1  20
BRANCH   6  22
HETATM   22  C   UNL     1      43.897 -18.490   5.637  1.00  0.00     0.013 A 
HETATM   23  C   UNL     1      43.686 -19.597   6.492  1.00  0.00     0.152 A 
HETATM   24  N   UNL     1      44.237 -20.724   6.031  1.00  0.00    -0.187 NA
HETATM   25  N   UNL     1      44.789 -20.347   4.869  1.00  0.00    -0.289 N 
HETATM   26  H   UNL     1      45.268 -21.050   4.314  1.00  0.00     0.188 HD
HETATM   27  C   UNL     1      44.620 -19.023   4.588  1.00  0.00     0.123 A 
ENDBRANCH   6  22
TORSDOF 5
ENDMDL
MODEL 8
REMARK VINA RESULT:      -7.2      6.561     10.223
REMARK  5 active torsions:
REMARK  status: ('A' for Active; 'I' for Inactive)
REMARK    1  A    between atoms: O_2  and  C_3 
REMARK    2  A    between atoms: C_5  and  C_15 
REMARK    3  A    between atoms: C_8  and  C_9 
REMARK       I    between atoms: C_15  and  N_17 
REMARK    4  A    between atoms: N_17  and  C_18 
REMARK    5  A    between atoms: C_18  and  C_19 
ROOT
HETATM    1  C   UNL     1      43.360 -18.564   4.181  1.00  0.00     0.080 A 
HETATM    2  C   UNL     1      42.947 -17.312   3.699  1.00  0.00     0.054 A 
HETATM    3  C   UNL     1      43.151 -16.962   2.357  1.00  0.00     0.034 A 
HETATM    4  C   UNL     1      43.803 -17.850   1.500  1.00  0.00     0.018 A 
HETATM    5  C   UNL     1      44.207 -19.100   1.969  1.00  0.00     0.016 A 
HETATM    6  C   UNL     1      43.978 -19.483   3.303  1.00  0.00     0.010 A 
ENDROOT
BRANCH   3   7
HETATM    7  C   UNL     1      42.696 -15.654   1.811  1.00  0.00     0.252 C 
HETATM    8  O   UNL     1      42.099 -15.600   0.743  1.00  0.00    -0.268 OA
HETATM    9  N   UNL     1      42.954 -14.552   2.596  1.00  0.00    -0.353 N 
HETATM   10  H   UNL     1      43.170 -14.707   3.573  1.00  0.00     0.163 HD
BRANCH   9  11
HETATM   11  C   UNL     1      42.412 -13.255   2.262  1.00  0.00     0.163 C 
BRANCH  11  12
HETATM   12  C   UNL     1      41.880 -12.557   3.489  1.00  0.00    -0.019 A 
HETATM   13  C   UNL     1      42.167 -13.095   4.755  1.00  0.00     0.012 A 
HETATM   14  C   UNL     1      41.683 -12.490   5.918  1.00  0.00     0.020 A 
HETATM   15  C   UNL     1      40.899 -11.344   5.824  1.00  0.00     0.012 A 
HETATM   16 BR   UNL     1      40.234 -10.532   7.395  1.00  0.00    -0.051 Br
HETATM   17  C   UNL     1      40.596 -10.795   4.581  1.00  0.00     0.043 A 
HETATM   18  C   UNL     1      41.085 -11.399   3.420  1.00  0.00     0.043 A 
HETATM   19 CL   UNL     1      40.655 -10.684   1.906  1.00  0.00    -0.084 Cl
ENDBRANCH  11  12
ENDBRANCH   9  11
ENDBRANCH   3   7
BRANCH   1  20
HETATM   20  O   UNL     1      43.152 -18.974   5.475  1.00  0.00    -0.355 OA
HETATM   21  C   UNL     1      43.170 -17.987   6.497  1.00  0.00     0.210 C 
ENDBRANCH   1  20
BRANCH   6  22
HETATM   22  C   UNL     1      44.405 -20.808   3.743  1.00  0.00     0.013 A 
HETATM   23  C   UNL     1      44.929 -21.261   4.976  1.00  0.00     0.152 A 
HETATM   24  N   UNL     1      45.198 -22.570   4.978  1.00  0.00    -0.187 NA
HETATM   25  N   UNL     1      44.831 -22.965   3.751  1.00  0.00    -0.289 N 
HETATM   26  H   UNL     1      44.932 -23.947   3.511  1.00  0.00     0.188 HD
HETATM   27  C   UNL     1      44.355 -21.952   2.971  1.00  0.00     0.123 A 
ENDBRANCH   6  22
TORSDOF 5
ENDMDL
MODEL 9
REMARK VINA RESULT:      -7.1      3.853      8.750
REMARK  5 active torsions:
REMARK  status: ('A' for Active; 'I' for Inactive)
REMARK    1  A    between atoms: O_2  and  C_3 
REMARK    2  A    between atoms: C_5  and  C_15 
REMARK    3  A    between atoms: C_8  and  C_9 
REMARK       I    between atoms: C_15  and  N_17 
REMARK    4  A    between atoms: N_17  and  C_18 
REMARK    5  A    between atoms: C_18  and  C_19 
ROOT
HETATM    1  C   UNL     1      43.594 -14.445   4.556  1.00  0.00     0.080 A 
HETATM    2  C   UNL     1      44.142 -13.637   5.564  1.00  0.00     0.054 A 
HETATM    3  C   UNL     1      44.423 -14.168   6.831  1.00  0.00     0.034 A 
HETATM    4  C   UNL     1      44.122 -15.503   7.105  1.00  0.00     0.018 A 
HETATM    5  C   UNL     1      43.588 -16.316   6.105  1.00  0.00     0.016 A 
HETATM    6  C   UNL     1      43.333 -15.809   4.818  1.00  0.00     0.010 A 
ENDROOT
BRANCH   3   7
HETATM    7  C   UNL     1      45.032 -13.342   7.909  1.00  0.00     0.252 C 
HETATM    8  O   UNL     1      46.166 -12.896   7.785  1.00  0.00    -0.268 OA
HETATM    9  N   UNL     1      44.230 -13.092   9.002  1.00  0.00    -0.353 N 
HETATM   10  H   UNL     1      43.233 -13.232   8.897  1.00  0.00     0.163 HD
BRANCH   9  11
HETATM   11  C   UNL     1      44.640 -12.165  10.031  1.00  0.00     0.163 C 
BRANCH  11  12
HETATM   12  C   UNL     1      43.447 -11.481  10.651  1.00  0.00    -0.019 A 
HETATM   13  C   UNL     1      43.281 -11.537  12.046  1.00  0.00     0.012 A 
HETATM   14  C   UNL     1      42.183 -10.930  12.662  1.00  0.00     0.020 A 
HETATM   15  C   UNL     1      41.236 -10.268  11.886  1.00  0.00     0.012 A 
HETATM   16 BR   UNL     1      39.745  -9.457  12.718  1.00  0.00    -0.051 Br
HETATM   17  C   UNL     1      41.375 -10.203  10.503  1.00  0.00     0.043 A 
HETATM   18  C   UNL     1      42.477 -10.807   9.889  1.00  0.00     0.043 A 
HETATM   19 CL   UNL     1      42.582 -10.712   8.166  1.00  0.00    -0.084 Cl
ENDBRANCH  11  12
ENDBRANCH   9  11
ENDBRANCH   3   7
BRANCH   1  20
HETATM   20  O   UNL     1      43.334 -13.989   3.288  1.00  0.00    -0.355 OA
HETATM   21  C   UNL     1      42.300 -13.026   3.126  1.00  0.00     0.210 C 
ENDBRANCH   1  20
BRANCH   6  22
HETATM   22  C   UNL     1      42.788 -16.703   3.800  1.00  0.00     0.013 A 
HETATM   23  C   UNL     1      41.488 -16.819   3.256  1.00  0.00     0.152 A 
HETATM   24  N   UNL     1      41.395 -17.777   2.329  1.00  0.00    -0.187 NA
HETATM   25  N   UNL     1      42.640 -18.269   2.263  1.00  0.00    -0.289 N 
HETATM   26  H   UNL     1      42.827 -19.018   1.604  1.00  0.00     0.188 HD
HETATM   27  C   UNL     1      43.511 -17.666   3.123  1.00  0.00     0.123 A 
ENDBRANCH   6  22
TORSDOF 5
ENDMDL
MODEL 10
REMARK VINA RESULT:      -6.9      4.419      9.184
REMARK  5 active torsions:
REMARK  status: ('A' for Active; 'I' for Inactive)
REMARK    1  A    between atoms: O_2  and  C_3 
REMARK    2  A    between atoms: C_5  and  C_15 
REMARK    3  A    between atoms: C_8  and  C_9 
REMARK       I    between atoms: C_15  and  N_17 
REMARK    4  A    between atoms: N_17  and  C_18 
REMARK    5  A    between atoms: C_18  and  C_19 
ROOT
HETATM    1  C   UNL     1      42.860 -14.075   5.284  1.00  0.00     0.080 A 
HETATM    2  C   UNL     1      42.107 -13.113   5.975  1.00  0.00     0.054 A 
HETATM    3  C   UNL     1      40.709 -13.087   5.866  1.00  0.00     0.034 A 
HETATM    4  C   UNL     1      40.062 -14.001   5.034  1.00  0.00     0.018 A 
HETATM    5  C   UNL     1      40.802 -14.967   4.351  1.00  0.00     0.016 A 
HETATM    6  C   UNL     1      42.201 -15.031   4.478  1.00  0.00     0.010 A 
ENDROOT
BRANCH   3   7
HETATM    7  C   UNL     1      39.884 -12.098   6.612  1.00  0.00     0.252 C 
HETATM    8  O   UNL     1      38.757 -11.813   6.227  1.00  0.00    -0.268 OA
HETATM    9  N   UNL     1      40.453 -11.579   7.754  1.00  0.00    -0.353 N 
HETATM   10  H   UNL     1      41.235 -12.077   8.161  1.00  0.00     0.163 HD
BRANCH   9  11
HETATM   11  C   UNL     1      39.690 -10.747   8.656  1.00  0.00     0.163 C 
BRANCH  11  12
HETATM   12  C   UNL     1      40.499 -10.386   9.877  1.00  0.00    -0.019 A 
HETATM   13  C   UNL     1      41.868 -10.702   9.903  1.00  0.00     0.012 A 
HETATM   14  C   UNL     1      42.653 -10.400  11.019  1.00  0.00     0.020 A 
HETATM   15  C   UNL     1      42.071  -9.785  12.124  1.00  0.00     0.012 A 
HETATM   16 BR   UNL     1      43.130  -9.386  13.638  1.00  0.00    -0.051 Br
HETATM   17  C   UNL     1      40.717  -9.467  12.125  1.00  0.00     0.043 A 
HETATM   18  C   UNL     1      39.935  -9.766  11.005  1.00  0.00     0.043 A 
HETATM   19 CL   UNL     1      38.254  -9.367  11.076  1.00  0.00    -0.084 Cl
ENDBRANCH  11  12
ENDBRANCH   9  11
ENDBRANCH   3   7
BRANCH   1  20
HETATM   20  O   UNL     1      44.225 -14.171   5.383  1.00  0.00    -0.355 OA
HETATM   21  C   UNL     1      44.815 -13.981   6.663  1.00  0.00     0.210 C 
ENDBRANCH   1  20
BRANCH   6  22
HETATM   22  C   UNL     1      42.930 -16.070   3.756  1.00  0.00     0.013 A 
HETATM   23  C   UNL     1      43.477 -16.096   2.452  1.00  0.00     0.152 A 
HETATM   24  N   UNL     1      44.080 -17.253   2.162  1.00  0.00    -0.187 NA
HETATM   25  N   UNL     1      43.935 -17.969   3.286  1.00  0.00    -0.289 N 
HETATM   26  H   UNL     1      44.331 -18.904   3.315  1.00  0.00     0.188 HD
HETATM   27  C   UNL     1      43.253 -17.312   4.268  1.00  0.00     0.123 A 
ENDBRANCH   6  22
TORSDOF 5
ENDMDL
