MODEL 1
REMARK VINA RESULT:      -8.0      0.000      0.000
REMARK  5 active torsions:
REMARK  status: ('A' for Active; 'I' for Inactive)
REMARK    1  A    between atoms: C_9  and  C_10 
REMARK       I    between atoms: C_10  and  N_11 
REMARK    2  A    between atoms: N_11  and  C_12 
REMARK    3  A    between atoms: C_12  and  C_13 
REMARK    4  A    between atoms: C_12  and  C_16 
REMARK    5  A    between atoms: C_19  and  O_20 
ROOT
HETATM    1  C   UNL     1      41.760 -15.262   3.803  1.00  0.00     0.273 C 
HETATM    2  N   UNL     1      42.972 -15.819   4.132  1.00  0.00    -0.346 N 
HETATM    3  O   UNL     1      40.682 -15.662   4.231  1.00  0.00    -0.266 OA
HETATM    4  H   UNL     1      43.780 -15.340   3.750  1.00  0.00     0.163 HD
ENDROOT
BRANCH   2   5
HETATM    5  C   UNL     1      43.140 -16.889   5.084  1.00  0.00     0.122 C 
BRANCH   5   6
HETATM    6  C   UNL     1      44.072 -16.504   6.213  1.00  0.00     0.013 A 
HETATM    7  C   UNL     1      43.957 -15.204   6.979  1.00  0.00     0.007 A 
HETATM    8  C   UNL     1      43.643 -16.507   7.664  1.00  0.00     0.007 A 
ENDBRANCH   5   6
BRANCH   5   9
HETATM    9  C   UNL     1      43.649 -18.163   4.424  1.00  0.00    -0.035 A 
HETATM   10  C   UNL     1      43.237 -18.476   3.120  1.00  0.00     0.012 A 
HETATM   11  C   UNL     1      43.667 -19.652   2.497  1.00  0.00     0.037 A 
HETATM   12  C   UNL     1      44.521 -20.536   3.155  1.00  0.00     0.068 A 
HETATM   13  C   UNL     1      44.924 -20.246   4.457  1.00  0.00     0.037 A 
HETATM   14  C   UNL     1      44.487 -19.074   5.087  1.00  0.00     0.012 A 
BRANCH  12  15
HETATM   15  O   UNL     1      44.874 -21.642   2.431  1.00  0.00    -0.356 OA
HETATM   16  C   UNL     1      43.999 -22.018   1.376  1.00  0.00     0.210 C 
ENDBRANCH  12  15
ENDBRANCH   5   9
ENDBRANCH   2   5
BRANCH   1  17
HETATM   17  C   UNL     1      41.897 -14.115   2.890  1.00  0.00     0.157 A 
HETATM   18  C   UNL     1      41.727 -14.107   1.474  1.00  0.00     0.029 A 
HETATM   19  C   UNL     1      41.407 -15.057   0.483  1.00  0.00     0.023 A 
HETATM   20  C   UNL     1      41.955 -12.791   1.090  1.00  0.00     0.063 A 
HETATM   21  C   UNL     1      41.323 -14.655  -0.861  1.00  0.00    -0.061 A 
HETATM   22  C   UNL     1      40.987 -15.650  -1.933  1.00  0.00     0.048 C 
HETATM   23  C   UNL     1      41.563 -13.318  -1.204  1.00  0.00     0.009 A 
HETATM   24  C   UNL     1      41.883 -12.358  -0.237  1.00  0.00     0.032 A 
HETATM   25  N   UNL     1      42.236 -12.121   2.247  1.00  0.00    -0.277 N 
HETATM   26  H   UNL     1      42.454 -11.136   2.346  1.00  0.00     0.189 HD
HETATM   27  N   UNL     1      42.206 -12.882   3.355  1.00  0.00    -0.168 NA
ENDBRANCH   1  17
TORSDOF 5
ENDMDL
MODEL 2
REMARK VINA RESULT:      -7.9      3.079      7.929
REMARK  5 active torsions:
REMARK  status: ('A' for Active; 'I' for Inactive)
REMARK    1  A    between atoms: C_9  and  C_10 
REMARK       I    between atoms: C_10  and  N_11 
REMARK    2  A    between atoms: N_11  and  C_12 
REMARK    3  A    between atoms: C_12  and  C_13 
REMARK    4  A    between atoms: C_12  and  C_16 
REMARK    5  A    between atoms: C_19  and  O_20 
ROOT
HETATM    1  C   UNL     1      41.368 -15.852   0.673  1.00  0.00     0.273 C 
HETATM    2  N   UNL     1      41.162 -14.552   0.280  1.00  0.00    -0.346 N 
HETATM    3  O   UNL     1      41.710 -16.753  -0.085  1.00  0.00    -0.266 OA
HETATM    4  H   UNL     1      40.945 -13.908   1.031  1.00  0.00     0.163 HD
ENDROOT
BRANCH   2   5
HETATM    5  C   UNL     1      41.400 -14.063  -1.056  1.00  0.00     0.122 C 
BRANCH   5   6
HETATM    6  C   UNL     1      41.638 -12.568  -1.080  1.00  0.00     0.013 A 
HETATM    7  C   UNL     1      42.958 -11.942  -1.472  1.00  0.00     0.007 A 
HETATM    8  C   UNL     1      41.757 -11.780  -2.366  1.00  0.00     0.007 A 
ENDBRANCH   5   6
BRANCH   5   9
HETATM    9  C   UNL     1      40.256 -14.406  -2.000  1.00  0.00    -0.035 A 
HETATM   10  C   UNL     1      38.971 -13.906  -1.737  1.00  0.00     0.012 A 
HETATM   11  C   UNL     1      37.896 -14.224  -2.571  1.00  0.00     0.037 A 
HETATM   12  C   UNL     1      38.076 -15.040  -3.687  1.00  0.00     0.068 A 
HETATM   13  C   UNL     1      39.342 -15.558  -3.951  1.00  0.00     0.037 A 
HETATM   14  C   UNL     1      40.420 -15.249  -3.111  1.00  0.00     0.012 A 
BRANCH  12  15
HETATM   15  O   UNL     1      36.946 -15.265  -4.424  1.00  0.00    -0.356 OA
HETATM   16  C   UNL     1      36.127 -14.134  -4.696  1.00  0.00     0.210 C 
ENDBRANCH  12  15
ENDBRANCH   5   9
ENDBRANCH   2   5
BRANCH   1  17
HETATM   17  C   UNL     1      41.151 -16.044   2.117  1.00  0.00     0.157 A 
HETATM   18  C   UNL     1      41.817 -16.962   2.982  1.00  0.00     0.029 A 
HETATM   19  C   UNL     1      42.820 -17.943   2.844  1.00  0.00     0.023 A 
HETATM   20  C   UNL     1      41.262 -16.746   4.236  1.00  0.00     0.063 A 
HETATM   21  C   UNL     1      43.236 -18.672   3.971  1.00  0.00    -0.061 A 
HETATM   22  C   UNL     1      44.299 -19.724   3.847  1.00  0.00     0.048 C 
HETATM   23  C   UNL     1      42.646 -18.423   5.217  1.00  0.00     0.009 A 
HETATM   24  C   UNL     1      41.648 -17.455   5.377  1.00  0.00     0.032 A 
HETATM   25  N   UNL     1      40.337 -15.756   4.056  1.00  0.00    -0.277 N 
HETATM   26  H   UNL     1      39.738 -15.343   4.761  1.00  0.00     0.189 HD
HETATM   27  N   UNL     1      40.243 -15.302   2.794  1.00  0.00    -0.168 NA
ENDBRANCH   1  17
TORSDOF 5
ENDMDL
MODEL 3
REMARK VINA RESULT:      -7.9      2.269      3.339
REMARK  5 active torsions:
REMARK  status: ('A' for Active; 'I' for Inactive)
REMARK    1  A    between atoms: C_9  and  C_10 
REMARK       I    between atoms: C_10  and  N_11 
REMARK    2  A    between atoms: N_11  and  C_12 
REMARK    3  A    between atoms: C_12  and  C_13 
REMARK    4  A    between atoms: C_12  and  C_16 
REMARK    5  A    between atoms: C_19  and  O_20 
ROOT
HETATM    1  C   UNL     1      41.211 -15.121   0.643  1.00  0.00     0.273 C 
HETATM    2  N   UNL     1      42.393 -15.523   1.218  1.00  0.00    -0.346 N 
HETATM    3  O   UNL     1      40.135 -15.100   1.230  1.00  0.00    -0.266 OA
HETATM    4  H   UNL     1      43.210 -15.426   0.627  1.00  0.00     0.163 HD
ENDROOT
BRANCH   2   5
HETATM    5  C   UNL     1      42.534 -15.893   2.605  1.00  0.00     0.122 C 
BRANCH   5   6
HETATM    6  C   UNL     1      43.381 -14.901   3.373  1.00  0.00     0.013 A 
HETATM    7  C   UNL     1      43.040 -13.432   3.491  1.00  0.00     0.007 A 
HETATM    8  C   UNL     1      42.955 -14.320   4.703  1.00  0.00     0.007 A 
ENDBRANCH   5   6
BRANCH   5   9
HETATM    9  C   UNL     1      43.122 -17.288   2.765  1.00  0.00    -0.035 A 
HETATM   10  C   UNL     1      43.149 -18.156   1.663  1.00  0.00     0.012 A 
HETATM   11  C   UNL     1      43.659 -19.452   1.786  1.00  0.00     0.037 A 
HETATM   12  C   UNL     1      44.160 -19.908   3.006  1.00  0.00     0.068 A 
HETATM   13  C   UNL     1      44.124 -19.062   4.112  1.00  0.00     0.037 A 
HETATM   14  C   UNL     1      43.604 -17.767   3.994  1.00  0.00     0.012 A 
BRANCH  12  15
HETATM   15  O   UNL     1      44.638 -21.189   2.987  1.00  0.00    -0.356 OA
HETATM   16  C   UNL     1      44.305 -21.978   1.852  1.00  0.00     0.210 C 
ENDBRANCH  12  15
ENDBRANCH   5   9
ENDBRANCH   2   5
BRANCH   1  17
HETATM   17  C   UNL     1      41.382 -14.699  -0.757  1.00  0.00     0.157 A 
HETATM   18  C   UNL     1      41.875 -13.447  -1.233  1.00  0.00     0.029 A 
HETATM   19  C   UNL     1      42.337 -12.250  -0.652  1.00  0.00     0.023 A 
HETATM   20  C   UNL     1      41.849 -13.551  -2.618  1.00  0.00     0.063 A 
HETATM   21  C   UNL     1      42.762 -11.197  -1.479  1.00  0.00    -0.061 A 
HETATM   22  C   UNL     1      43.255  -9.911  -0.882  1.00  0.00     0.048 C 
HETATM   23  C   UNL     1      42.716 -11.344  -2.872  1.00  0.00     0.009 A 
HETATM   24  C   UNL     1      42.259 -12.523  -3.470  1.00  0.00     0.032 A 
HETATM   25  N   UNL     1      41.363 -14.802  -2.877  1.00  0.00    -0.277 N 
HETATM   26  H   UNL     1      41.207 -15.222  -3.786  1.00  0.00     0.189 HD
HETATM   27  N   UNL     1      41.074 -15.528  -1.782  1.00  0.00    -0.168 NA
ENDBRANCH   1  17
TORSDOF 5
ENDMDL
MODEL 4
REMARK VINA RESULT:      -7.9      2.445      6.737
REMARK  5 active torsions:
REMARK  status: ('A' for Active; 'I' for Inactive)
REMARK    1  A    between atoms: C_9  and  C_10 
REMARK       I    between atoms: C_10  and  N_11 
REMARK    2  A    between atoms: N_11  and  C_12 
REMARK    3  A    between atoms: C_12  and  C_13 
REMARK    4  A    between atoms: C_12  and  C_16 
REMARK    5  A    between atoms: C_19  and  O_20 
ROOT
HETATM    1  C   UNL     1      43.316 -16.587   5.878  1.00  0.00     0.273 C 
HETATM    2  N   UNL     1      42.259 -16.522   5.002  1.00  0.00    -0.346 N 
HETATM    3  O   UNL     1      43.998 -15.622   6.203  1.00  0.00    -0.266 OA
HETATM    4  H   UNL     1      41.751 -17.390   4.880  1.00  0.00     0.163 HD
ENDROOT
BRANCH   2   5
HETATM    5  C   UNL     1      41.766 -15.299   4.418  1.00  0.00     0.122 C 
BRANCH   5   6
HETATM    6  C   UNL     1      40.445 -14.873   5.022  1.00  0.00     0.013 A 
HETATM    7  C   UNL     1      40.288 -13.651   5.901  1.00  0.00     0.007 A 
HETATM    8  C   UNL     1      39.671 -13.671   4.528  1.00  0.00     0.007 A 
ENDBRANCH   5   6
BRANCH   5   9
HETATM    9  C   UNL     1      41.616 -15.410   2.907  1.00  0.00    -0.035 A 
HETATM   10  C   UNL     1      41.139 -16.605   2.347  1.00  0.00     0.012 A 
HETATM   11  C   UNL     1      41.015 -16.745   0.962  1.00  0.00     0.037 A 
HETATM   12  C   UNL     1      41.355 -15.698   0.105  1.00  0.00     0.068 A 
HETATM   13  C   UNL     1      41.846 -14.512   0.647  1.00  0.00     0.037 A 
HETATM   14  C   UNL     1      41.981 -14.372   2.034  1.00  0.00     0.012 A 
BRANCH  12  15
HETATM   15  O   UNL     1      41.177 -15.962  -1.225  1.00  0.00    -0.356 OA
HETATM   16  C   UNL     1      40.707 -14.889  -2.030  1.00  0.00     0.210 C 
ENDBRANCH  12  15
ENDBRANCH   5   9
ENDBRANCH   2   5
BRANCH   1  17
HETATM   17  C   UNL     1      43.529 -17.947   6.401  1.00  0.00     0.157 A 
HETATM   18  C   UNL     1      43.893 -19.114   5.665  1.00  0.00     0.029 A 
HETATM   19  C   UNL     1      44.159 -19.423   4.315  1.00  0.00     0.023 A 
HETATM   20  C   UNL     1      43.977 -20.127   6.611  1.00  0.00     0.063 A 
HETATM   21  C   UNL     1      44.504 -20.737   3.960  1.00  0.00    -0.061 A 
HETATM   22  C   UNL     1      44.789 -21.090   2.529  1.00  0.00     0.048 C 
HETATM   23  C   UNL     1      44.575 -21.729   4.948  1.00  0.00     0.009 A 
HETATM   24  C   UNL     1      44.313 -21.445   6.293  1.00  0.00     0.032 A 
HETATM   25  N   UNL     1      43.671 -19.534   7.804  1.00  0.00    -0.277 N 
HETATM   26  H   UNL     1      43.634 -19.975   8.715  1.00  0.00     0.189 HD
HETATM   27  N   UNL     1      43.401 -18.219   7.721  1.00  0.00    -0.168 NA
ENDBRANCH   1  17
TORSDOF 5
ENDMDL
MODEL 5
REMARK VINA RESULT:      -7.9      1.426      1.972
REMARK  5 active torsions:
REMARK  status: ('A' for Active; 'I' for Inactive)
REMARK    1  A    between atoms: C_9  and  C_10 
REMARK       I    between atoms: C_10  and  N_11 
REMARK    2  A    between atoms: N_11  and  C_12 
REMARK    3  A    between atoms: C_12  and  C_13 
REMARK    4  A    between atoms: C_12  and  C_16 
REMARK    5  A    between atoms: C_19  and  O_20 
ROOT
HETATM    1  C   UNL     1      41.410 -14.550   1.837  1.00  0.00     0.273 C 
HETATM    2  N   UNL     1      42.510 -15.209   2.330  1.00  0.00    -0.346 N 
HETATM    3  O   UNL     1      40.295 -14.600   2.345  1.00  0.00    -0.266 OA
HETATM    4  H   UNL     1      43.376 -15.021   1.840  1.00  0.00     0.163 HD
ENDROOT
BRANCH   2   5
HETATM    5  C   UNL     1      42.514 -15.976   3.552  1.00  0.00     0.122 C 
BRANCH   5   6
HETATM    6  C   UNL     1      43.228 -15.252   4.674  1.00  0.00     0.013 A 
HETATM    7  C   UNL     1      42.724 -13.963   5.285  1.00  0.00     0.007 A 
HETATM    8  C   UNL     1      42.707 -15.232   6.094  1.00  0.00     0.007 A 
ENDBRANCH   5   6
BRANCH   5   9
HETATM    9  C   UNL     1      43.142 -17.349   3.360  1.00  0.00    -0.035 A 
HETATM   10  C   UNL     1      43.015 -17.999   2.123  1.00  0.00     0.012 A 
HETATM   11  C   UNL     1      43.558 -19.271   1.924  1.00  0.00     0.037 A 
HETATM   12  C   UNL     1      44.245 -19.921   2.949  1.00  0.00     0.068 A 
HETATM   13  C   UNL     1      44.364 -19.295   4.188  1.00  0.00     0.037 A 
HETATM   14  C   UNL     1      43.812 -18.024   4.393  1.00  0.00     0.012 A 
BRANCH  12  15
HETATM   15  O   UNL     1      44.735 -21.155   2.621  1.00  0.00    -0.356 OA
HETATM   16  C   UNL     1      44.025 -21.879   1.624  1.00  0.00     0.210 C 
ENDBRANCH  12  15
ENDBRANCH   5   9
ENDBRANCH   2   5
BRANCH   1  17
HETATM   17  C   UNL     1      41.721 -13.758   0.636  1.00  0.00     0.157 A 
HETATM   18  C   UNL     1      41.411 -14.077  -0.720  1.00  0.00     0.029 A 
HETATM   19  C   UNL     1      40.772 -15.138  -1.394  1.00  0.00     0.023 A 
HETATM   20  C   UNL     1      41.905 -13.014  -1.464  1.00  0.00     0.063 A 
HETATM   21  C   UNL     1      40.647 -15.094  -2.792  1.00  0.00    -0.061 A 
HETATM   22  C   UNL     1      39.974 -16.214  -3.531  1.00  0.00     0.048 C 
HETATM   23  C   UNL     1      41.162 -14.003  -3.504  1.00  0.00     0.009 A 
HETATM   24  C   UNL     1      41.801 -12.940  -2.855  1.00  0.00     0.032 A 
HETATM   25  N   UNL     1      42.457 -12.159  -0.551  1.00  0.00    -0.277 N 
HETATM   26  H   UNL     1      42.913 -11.274  -0.739  1.00  0.00     0.189 HD
HETATM   27  N   UNL     1      42.362 -12.569   0.726  1.00  0.00    -0.168 NA
ENDBRANCH   1  17
TORSDOF 5
ENDMDL
MODEL 6
REMARK VINA RESULT:      -7.8      4.558      8.812
REMARK  5 active torsions:
REMARK  status: ('A' for Active; 'I' for Inactive)
REMARK    1  A    between atoms: C_9  and  C_10 
REMARK       I    between atoms: C_10  and  N_11 
REMARK    2  A    between atoms: N_11  and  C_12 
REMARK    3  A    between atoms: C_12  and  C_13 
REMARK    4  A    between atoms: C_12  and  C_16 
REMARK    5  A    between atoms: C_19  and  O_20 
ROOT
HETATM    1  C   UNL     1      44.065 -14.632   7.030  1.00  0.00     0.273 C 
HETATM    2  N   UNL     1      44.334 -14.019   8.230  1.00  0.00    -0.346 N 
HETATM    3  O   UNL     1      44.055 -14.053   5.949  1.00  0.00    -0.266 OA
HETATM    4  H   UNL     1      44.367 -14.640   9.029  1.00  0.00     0.163 HD
ENDROOT
BRANCH   2   5
HETATM    5  C   UNL     1      44.718 -12.635   8.363  1.00  0.00     0.122 C 
BRANCH   5   6
HETATM    6  C   UNL     1      46.204 -12.481   8.612  1.00  0.00     0.013 A 
HETATM    7  C   UNL     1      47.207 -12.206   7.514  1.00  0.00     0.007 A 
HETATM    8  C   UNL     1      46.910 -11.145   8.539  1.00  0.00     0.007 A 
ENDBRANCH   5   6
BRANCH   5   9
HETATM    9  C   UNL     1      43.947 -11.934   9.472  1.00  0.00    -0.035 A 
HETATM   10  C   UNL     1      44.152 -12.319  10.805  1.00  0.00     0.012 A 
HETATM   11  C   UNL     1      43.440 -11.711  11.843  1.00  0.00     0.037 A 
HETATM   12  C   UNL     1      42.513 -10.703  11.577  1.00  0.00     0.068 A 
HETATM   13  C   UNL     1      42.286 -10.323  10.256  1.00  0.00     0.037 A 
HETATM   14  C   UNL     1      42.992 -10.937   9.213  1.00  0.00     0.012 A 
BRANCH  12  15
HETATM   15  O   UNL     1      41.893 -10.185  12.680  1.00  0.00    -0.356 OA
HETATM   16  C   UNL     1      42.650 -10.162  13.884  1.00  0.00     0.210 C 
ENDBRANCH  12  15
ENDBRANCH   5   9
ENDBRANCH   2   5
BRANCH   1  17
HETATM   17  C   UNL     1      43.806 -16.074   7.181  1.00  0.00     0.157 A 
HETATM   18  C   UNL     1      43.757 -17.061   6.152  1.00  0.00     0.029 A 
HETATM   19  C   UNL     1      43.907 -17.076   4.751  1.00  0.00     0.023 A 
HETATM   20  C   UNL     1      43.492 -18.256   6.808  1.00  0.00     0.063 A 
HETATM   21  C   UNL     1      43.791 -18.291   4.054  1.00  0.00    -0.061 A 
HETATM   22  C   UNL     1      43.944 -18.331   2.562  1.00  0.00     0.048 C 
HETATM   23  C   UNL     1      43.520 -19.473   4.757  1.00  0.00     0.009 A 
HETATM   24  C   UNL     1      43.365 -19.480   6.148  1.00  0.00     0.032 A 
HETATM   25  N   UNL     1      43.401 -17.928   8.133  1.00  0.00    -0.277 N 
HETATM   26  H   UNL     1      43.215 -18.555   8.906  1.00  0.00     0.189 HD
HETATM   27  N   UNL     1      43.589 -16.624   8.399  1.00  0.00    -0.168 NA
ENDBRANCH   1  17
TORSDOF 5
ENDMDL
MODEL 7
REMARK VINA RESULT:      -7.7      2.707      8.063
REMARK  5 active torsions:
REMARK  status: ('A' for Active; 'I' for Inactive)
REMARK    1  A    between atoms: C_9  and  C_10 
REMARK       I    between atoms: C_10  and  N_11 
REMARK    2  A    between atoms: N_11  and  C_12 
REMARK    3  A    between atoms: C_12  and  C_13 
REMARK    4  A    between atoms: C_12  and  C_16 
REMARK    5  A    between atoms: C_19  and  O_20 
ROOT
HETATM    1  C   UNL     1      41.240 -17.095   1.708  1.00  0.00     0.273 C 
HETATM    2  N   UNL     1      41.074 -15.740   1.549  1.00  0.00    -0.346 N 
HETATM    3  O   UNL     1      40.679 -17.941   1.020  1.00  0.00    -0.266 OA
HETATM    4  H   UNL     1      41.652 -15.165   2.150  1.00  0.00     0.163 HD
ENDROOT
BRANCH   2   5
HETATM    5  C   UNL     1      40.283 -15.139   0.502  1.00  0.00     0.122 C 
BRANCH   5   6
HETATM    6  C   UNL     1      41.123 -14.767  -0.701  1.00  0.00     0.013 A 
HETATM    7  C   UNL     1      41.004 -15.455  -2.043  1.00  0.00     0.007 A 
HETATM    8  C   UNL     1      40.560 -14.024  -1.892  1.00  0.00     0.007 A 
ENDBRANCH   5   6
BRANCH   5   9
HETATM    9  C   UNL     1      39.532 -13.909   0.991  1.00  0.00    -0.035 A 
HETATM   10  C   UNL     1      38.162 -13.782   0.715  1.00  0.00     0.012 A 
HETATM   11  C   UNL     1      37.451 -12.652   1.129  1.00  0.00     0.037 A 
HETATM   12  C   UNL     1      38.085 -11.628   1.831  1.00  0.00     0.068 A 
HETATM   13  C   UNL     1      39.449 -11.732   2.097  1.00  0.00     0.037 A 
HETATM   14  C   UNL     1      40.166 -12.859   1.675  1.00  0.00     0.012 A 
BRANCH  12  15
HETATM   15  O   UNL     1      37.274 -10.585   2.186  1.00  0.00    -0.356 OA
HETATM   16  C   UNL     1      37.631  -9.872   3.363  1.00  0.00     0.210 C 
ENDBRANCH  12  15
ENDBRANCH   5   9
ENDBRANCH   2   5
BRANCH   1  17
HETATM   17  C   UNL     1      42.185 -17.422   2.788  1.00  0.00     0.157 A 
HETATM   18  C   UNL     1      43.011 -18.580   2.900  1.00  0.00     0.029 A 
HETATM   19  C   UNL     1      43.239 -19.743   2.137  1.00  0.00     0.023 A 
HETATM   20  C   UNL     1      43.717 -18.409   4.084  1.00  0.00     0.063 A 
HETATM   21  C   UNL     1      44.170 -20.694   2.585  1.00  0.00    -0.061 A 
HETATM   22  C   UNL     1      44.427 -21.942   1.790  1.00  0.00     0.048 C 
HETATM   23  C   UNL     1      44.858 -20.482   3.787  1.00  0.00     0.009 A 
HETATM   24  C   UNL     1      44.647 -19.336   4.561  1.00  0.00     0.032 A 
HETATM   25  N   UNL     1      43.290 -17.212   4.589  1.00  0.00    -0.277 N 
HETATM   26  H   UNL     1      43.593 -16.768   5.448  1.00  0.00     0.189 HD
HETATM   27  N   UNL     1      42.371 -16.583   3.835  1.00  0.00    -0.168 NA
ENDBRANCH   1  17
TORSDOF 5
ENDMDL
MODEL 8
REMARK VINA RESULT:      -7.7      2.490      4.086
REMARK  5 active torsions:
REMARK  status: ('A' for Active; 'I' for Inactive)
REMARK    1  A    between atoms: C_9  and  C_10 
REMARK       I    between atoms: C_10  and  N_11 
REMARK    2  A    between atoms: N_11  and  C_12 
REMARK    3  A    between atoms: C_12  and  C_13 
REMARK    4  A    between atoms: C_12  and  C_16 
REMARK    5  A    between atoms: C_19  and  O_20 
ROOT
HETATM    1  C   UNL     1      43.297 -14.275   3.740  1.00  0.00     0.273 C 
HETATM    2  N   UNL     1      42.801 -15.493   3.340  1.00  0.00    -0.346 N 
HETATM    3  O   UNL     1      44.372 -13.816   3.369  1.00  0.00    -0.266 OA
HETATM    4  H   UNL     1      41.872 -15.709   3.681  1.00  0.00     0.163 HD
ENDROOT
BRANCH   2   5
HETATM    5  C   UNL     1      43.442 -16.349   2.372  1.00  0.00     0.122 C 
BRANCH   5   6
HETATM    6  C   UNL     1      42.587 -16.549   1.138  1.00  0.00     0.013 A 
HETATM    7  C   UNL     1      41.179 -17.100   1.182  1.00  0.00     0.007 A 
HETATM    8  C   UNL     1      41.408 -15.660   0.808  1.00  0.00     0.007 A 
ENDBRANCH   5   6
BRANCH   5   9
HETATM    9  C   UNL     1      43.801 -17.706   2.960  1.00  0.00    -0.035 A 
HETATM   10  C   UNL     1      43.853 -17.862   4.354  1.00  0.00     0.012 A 
HETATM   11  C   UNL     1      44.204 -19.089   4.923  1.00  0.00     0.037 A 
HETATM   12  C   UNL     1      44.505 -20.188   4.120  1.00  0.00     0.068 A 
HETATM   13  C   UNL     1      44.473 -20.043   2.734  1.00  0.00     0.037 A 
HETATM   14  C   UNL     1      44.131 -18.812   2.160  1.00  0.00     0.012 A 
BRANCH  12  15
HETATM   15  O   UNL     1      44.822 -21.330   4.802  1.00  0.00    -0.356 OA
HETATM   16  C   UNL     1      44.621 -22.559   4.116  1.00  0.00     0.210 C 
ENDBRANCH  12  15
ENDBRANCH   5   9
ENDBRANCH   2   5
BRANCH   1  17
HETATM   17  C   UNL     1      42.383 -13.569   4.653  1.00  0.00     0.157 A 
HETATM   18  C   UNL     1      41.135 -12.958   4.333  1.00  0.00     0.029 A 
HETATM   19  C   UNL     1      40.356 -12.786   3.171  1.00  0.00     0.023 A 
HETATM   20  C   UNL     1      40.666 -12.441   5.534  1.00  0.00     0.063 A 
HETATM   21  C   UNL     1      39.130 -12.105   3.253  1.00  0.00    -0.061 A 
HETATM   22  C   UNL     1      38.285 -11.908   2.027  1.00  0.00     0.048 C 
HETATM   23  C   UNL     1      38.696 -11.598   4.485  1.00  0.00     0.009 A 
HETATM   24  C   UNL     1      39.454 -11.755   5.651  1.00  0.00     0.032 A 
HETATM   25  N   UNL     1      41.619 -12.759   6.461  1.00  0.00    -0.277 N 
HETATM   26  H   UNL     1      41.609 -12.538   7.449  1.00  0.00     0.189 HD
HETATM   27  N   UNL     1      42.668 -13.444   5.971  1.00  0.00    -0.168 NA
ENDBRANCH   1  17
TORSDOF 5
ENDMDL
MODEL 9
REMARK VINA RESULT:      -7.6      2.539      7.526
REMARK  5 active torsions:
REMARK  status: ('A' for Active; 'I' for Inactive)
REMARK    1  A    between atoms: C_9  and  C_10 
REMARK       I    between atoms: C_10  and  N_11 
REMARK    2  A    between atoms: N_11  and  C_12 
REMARK    3  A    between atoms: C_12  and  C_13 
REMARK    4  A    between atoms: C_12  and  C_16 
REMARK    5  A    between atoms: C_19  and  O_20 
ROOT
HETATM    1  C   UNL     1      42.932 -16.554   3.416  1.00  0.00     0.273 C 
HETATM    2  N   UNL     1      41.586 -16.762   3.238  1.00  0.00    -0.346 N 
HETATM    3  O   UNL     1      43.544 -15.592   2.964  1.00  0.00    -0.266 OA
HETATM    4  H   UNL     1      41.210 -17.568   3.724  1.00  0.00     0.163 HD
ENDROOT
BRANCH   2   5
HETATM    5  C   UNL     1      40.705 -15.837   2.568  1.00  0.00     0.122 C 
BRANCH   5   6
HETATM    6  C   UNL     1      41.331 -15.266   1.313  1.00  0.00     0.013 A 
HETATM    7  C   UNL     1      41.489 -16.052   0.030  1.00  0.00     0.007 A 
HETATM    8  C   UNL     1      40.520 -14.902   0.089  1.00  0.00     0.007 A 
ENDBRANCH   5   6
BRANCH   5   9
HETATM    9  C   UNL     1      40.277 -14.696   3.481  1.00  0.00    -0.035 A 
HETATM   10  C   UNL     1      40.251 -14.897   4.869  1.00  0.00     0.012 A 
HETATM   11  C   UNL     1      39.838 -13.876   5.731  1.00  0.00     0.037 A 
HETATM   12  C   UNL     1      39.448 -12.634   5.231  1.00  0.00     0.068 A 
HETATM   13  C   UNL     1      39.452 -12.427   3.853  1.00  0.00     0.037 A 
HETATM   14  C   UNL     1      39.857 -13.451   2.986  1.00  0.00     0.012 A 
BRANCH  12  15
HETATM   15  O   UNL     1      39.077 -11.722   6.180  1.00  0.00    -0.356 OA
HETATM   16  C   UNL     1      40.121 -11.155   6.962  1.00  0.00     0.210 C 
ENDBRANCH  12  15
ENDBRANCH   5   9
ENDBRANCH   2   5
BRANCH   1  17
HETATM   17  C   UNL     1      43.561 -17.608   4.229  1.00  0.00     0.157 A 
HETATM   18  C   UNL     1      43.879 -18.941   3.829  1.00  0.00     0.029 A 
HETATM   19  C   UNL     1      43.741 -19.710   2.657  1.00  0.00     0.023 A 
HETATM   20  C   UNL     1      44.461 -19.525   4.947  1.00  0.00     0.063 A 
HETATM   21  C   UNL     1      44.195 -21.040   2.643  1.00  0.00    -0.061 A 
HETATM   22  C   UNL     1      44.056 -21.879   1.406  1.00  0.00     0.048 C 
HETATM   23  C   UNL     1      44.774 -21.589   3.794  1.00  0.00     0.009 A 
HETATM   24  C   UNL     1      44.919 -20.844   4.970  1.00  0.00     0.032 A 
HETATM   25  N   UNL     1      44.456 -18.551   5.907  1.00  0.00    -0.277 N 
HETATM   26  H   UNL     1      44.806 -18.626   6.855  1.00  0.00     0.189 HD
HETATM   27  N   UNL     1      43.928 -17.380   5.512  1.00  0.00    -0.168 NA
ENDBRANCH   1  17
TORSDOF 5
ENDMDL
MODEL 10
REMARK VINA RESULT:      -7.6      2.218      6.733
REMARK  5 active torsions:
REMARK  status: ('A' for Active; 'I' for Inactive)
REMARK    1  A    between atoms: C_9  and  C_10 
REMARK       I    between atoms: C_10  and  N_11 
REMARK    2  A    between atoms: N_11  and  C_12 
REMARK    3  A    between atoms: C_12  and  C_13 
REMARK    4  A    between atoms: C_12  and  C_16 
REMARK    5  A    between atoms: C_19  and  O_20 
ROOT
HETATM    1  C   UNL     1      43.584 -16.817   4.011  1.00  0.00     0.273 C 
HETATM    2  N   UNL     1      42.836 -15.970   4.792  1.00  0.00    -0.346 N 
HETATM    3  O   UNL     1      43.926 -16.569   2.860  1.00  0.00    -0.266 OA
HETATM    4  H   UNL     1      42.686 -16.285   5.743  1.00  0.00     0.163 HD
ENDROOT
BRANCH   2   5
HETATM    5  C   UNL     1      42.427 -14.647   4.388  1.00  0.00     0.122 C 
BRANCH   5   6
HETATM    6  C   UNL     1      41.675 -13.925   5.487  1.00  0.00     0.013 A 
HETATM    7  C   UNL     1      42.169 -12.649   6.132  1.00  0.00     0.007 A 
HETATM    8  C   UNL     1      40.945 -12.621   5.256  1.00  0.00     0.007 A 
ENDBRANCH   5   6
BRANCH   5   9
HETATM    9  C   UNL     1      41.573 -14.675   3.129  1.00  0.00    -0.035 A 
HETATM   10  C   UNL     1      41.954 -13.904   2.020  1.00  0.00     0.012 A 
HETATM   11  C   UNL     1      41.177 -13.890   0.858  1.00  0.00     0.037 A 
HETATM   12  C   UNL     1      40.008 -14.646   0.772  1.00  0.00     0.068 A 
HETATM   13  C   UNL     1      39.608 -15.402   1.872  1.00  0.00     0.037 A 
HETATM   14  C   UNL     1      40.380 -15.411   3.041  1.00  0.00     0.012 A 
BRANCH  12  15
HETATM   15  O   UNL     1      39.347 -14.550  -0.421  1.00  0.00    -0.356 OA
HETATM   16  C   UNL     1      40.151 -14.401  -1.585  1.00  0.00     0.210 C 
ENDBRANCH  12  15
ENDBRANCH   5   9
ENDBRANCH   2   5
BRANCH   1  17
HETATM   17  C   UNL     1      43.949 -18.057   4.717  1.00  0.00     0.157 A 
HETATM   18  C   UNL     1      44.118 -19.359   4.158  1.00  0.00     0.029 A 
HETATM   19  C   UNL     1      44.016 -19.934   2.875  1.00  0.00     0.023 A 
HETATM   20  C   UNL     1      44.467 -20.171   5.229  1.00  0.00     0.063 A 
HETATM   21  C   UNL     1      44.272 -21.306   2.709  1.00  0.00    -0.061 A 
HETATM   22  C   UNL     1      44.167 -21.941   1.353  1.00  0.00     0.048 C 
HETATM   23  C   UNL     1      44.619 -22.088   3.818  1.00  0.00     0.009 A 
HETATM   24  C   UNL     1      44.724 -21.538   5.101  1.00  0.00     0.032 A 
HETATM   25  N   UNL     1      44.485 -19.345   6.318  1.00  0.00    -0.277 N 
HETATM   26  H   UNL     1      44.699 -19.599   7.275  1.00  0.00     0.189 HD
HETATM   27  N   UNL     1      44.183 -18.062   6.051  1.00  0.00    -0.168 NA
ENDBRANCH   1  17
TORSDOF 5
ENDMDL
