MODEL 1
REMARK VINA RESULT:      -9.7      0.000      0.000
REMARK  6 active torsions:
REMARK  status: ('A' for Active; 'I' for Inactive)
REMARK    1  A    between atoms: C_2  and  N_3 
REMARK    2  A    between atoms: N_6  and  C_8 
REMARK    3  A    between atoms: C_8  and  C_9 
REMARK       I    between atoms: C_9  and  N_10 
REMARK       I    between atoms: N_10  and  C_11 
REMARK       I    between atoms: C_11  and  N_12 
REMARK    4  A    between atoms: N_12  and  C_13 
REMARK    5  A    between atoms: C_13  and  C_14 
REMARK    6  A    between atoms: C_14  and  C_15 
ROOT
HETATM    1  C   UNL     1      39.716 -12.453   4.860  1.00  0.00     0.251 C 
HETATM    2  N   UNL     1      40.439 -13.334   4.102  1.00  0.00    -0.278 N 
HETATM    3  C   UNL     1      41.297 -14.284   4.597  1.00  0.00     0.322 C 
HETATM    4  N   UNL     1      42.071 -14.855   3.624  1.00  0.00    -0.343 N 
HETATM    5  O   UNL     1      41.323 -14.608   5.778  1.00  0.00    -0.247 OA
HETATM    6  O   UNL     1      39.239 -11.431   4.357  1.00  0.00    -0.271 OA
HETATM    7  H   UNL     1      40.538 -13.077   3.130  1.00  0.00     0.173 HD
HETATM    8  H   UNL     1      42.233 -14.317   2.782  1.00  0.00     0.164 HD
ENDROOT
BRANCH   1   9
HETATM    9  C   UNL     1      39.528 -12.720   6.362  1.00  0.00     0.337 C 
BRANCH   9  10
HETATM   10  N   UNL     1      39.888 -11.473   7.176  1.00  0.00    -0.060 N 
HETATM   11  C   UNL     1      39.286 -11.497   8.583  1.00  0.00     0.255 C 
HETATM   12  C   UNL     1      39.592 -10.171   9.304  1.00  0.00     0.150 C 
HETATM   13  N   UNL     1      41.041  -9.922   9.302  1.00  0.00    -0.378 N 
HETATM   14  C   UNL     1      41.697  -9.905   7.987  1.00  0.00     0.150 C 
HETATM   15  C   UNL     1      41.385 -11.212   7.220  1.00  0.00     0.255 C 
HETATM   16  H   UNL     1      39.432 -10.687   6.687  1.00  0.00     0.280 HD
BRANCH  13  17
HETATM   17  C   UNL     1      41.764  -9.775  10.472  1.00  0.00     0.030 A 
HETATM   18  C   UNL     1      43.011 -10.398  10.655  1.00  0.00     0.032 A 
HETATM   19  C   UNL     1      43.747 -10.240  11.835  1.00  0.00     0.044 A 
HETATM   20  C   UNL     1      43.240  -9.455  12.858  1.00  0.00     0.116 A 
HETATM   21  C   UNL     1      42.012  -8.831  12.721  1.00  0.00     0.044 A 
HETATM   22  F   UNL     1      43.942  -9.301  13.988  1.00  0.00    -0.206 F 
HETATM   23  C   UNL     1      41.284  -8.991  11.536  1.00  0.00     0.032 A 
ENDBRANCH  13  17
ENDBRANCH   9  10
ENDBRANCH   1   9
BRANCH   4  24
HETATM   24  C   UNL     1      43.158 -15.752   3.996  1.00  0.00     0.129 C 
BRANCH  24  25
HETATM   25  C   UNL     1      43.165 -17.070   3.217  1.00  0.00     0.060 C 
BRANCH  25  26
HETATM   26  C   UNL     1      43.767 -18.244   3.941  1.00  0.00    -0.029 A 
HETATM   27  C   UNL     1      43.993 -19.582   3.467  1.00  0.00     0.001 A 
HETATM   28  C   UNL     1      44.543 -20.312   4.525  1.00  0.00     0.043 A 
HETATM   29  C   UNL     1      43.770 -20.253   2.247  1.00  0.00     0.056 A 
HETATM   30  C   UNL     1      44.865 -21.673   4.431  1.00  0.00     0.033 A 
HETATM   31  N   UNL     1      44.699 -19.446   5.580  1.00  0.00    -0.365 N 
HETATM   32  C   UNL     1      44.610 -22.317   3.219  1.00  0.00     0.044 A 
HETATM   33  C   UNL     1      44.076 -21.611   2.151  1.00  0.00     0.117 A 
HETATM   34  F   UNL     1      43.833 -22.251   0.999  1.00  0.00    -0.206 F 
HETATM   35  H   UNL     1      45.111 -19.693   6.471  1.00  0.00     0.165 HD
HETATM   36  C   UNL     1      44.221 -18.209   5.247  1.00  0.00     0.096 A 
ENDBRANCH  25  26
ENDBRANCH  24  25
ENDBRANCH   4  24
TORSDOF 6
ENDMDL
MODEL 2
REMARK VINA RESULT:      -9.5      4.830      8.657
REMARK  6 active torsions:
REMARK  status: ('A' for Active; 'I' for Inactive)
REMARK    1  A    between atoms: C_2  and  N_3 
REMARK    2  A    between atoms: N_6  and  C_8 
REMARK    3  A    between atoms: C_8  and  C_9 
REMARK       I    between atoms: C_9  and  N_10 
REMARK       I    between atoms: N_10  and  C_11 
REMARK       I    between atoms: C_11  and  N_12 
REMARK    4  A    between atoms: N_12  and  C_13 
REMARK    5  A    between atoms: C_13  and  C_14 
REMARK    6  A    between atoms: C_14  and  C_15 
ROOT
HETATM    1  C   UNL     1      40.782 -13.384   5.419  1.00  0.00     0.251 C 
HETATM    2  N   UNL     1      41.778 -14.097   6.030  1.00  0.00    -0.278 N 
HETATM    3  C   UNL     1      41.852 -15.467   6.082  1.00  0.00     0.322 C 
HETATM    4  N   UNL     1      42.802 -15.912   6.959  1.00  0.00    -0.343 N 
HETATM    5  O   UNL     1      41.167 -16.198   5.378  1.00  0.00    -0.247 OA
HETATM    6  O   UNL     1      40.599 -12.194   5.694  1.00  0.00    -0.271 OA
HETATM    7  H   UNL     1      42.326 -13.576   6.699  1.00  0.00     0.173 HD
HETATM    8  H   UNL     1      43.064 -15.294   7.717  1.00  0.00     0.164 HD
ENDROOT
BRANCH   1   9
HETATM    9  C   UNL     1      39.859 -14.082   4.408  1.00  0.00     0.337 C 
BRANCH   9  10
HETATM   10  N   UNL     1      40.205 -13.649   2.980  1.00  0.00    -0.060 N 
HETATM   11  C   UNL     1      41.098 -14.662   2.259  1.00  0.00     0.255 C 
HETATM   12  C   UNL     1      41.497 -14.115   0.876  1.00  0.00     0.150 C 
HETATM   13  N   UNL     1      40.293 -13.761   0.110  1.00  0.00    -0.378 N 
HETATM   14  C   UNL     1      39.373 -12.808   0.746  1.00  0.00     0.150 C 
HETATM   15  C   UNL     1      38.974 -13.311   2.153  1.00  0.00     0.255 C 
HETATM   16  H   UNL     1      40.775 -12.794   3.084  1.00  0.00     0.280 HD
BRANCH  13  17
HETATM   17  C   UNL     1      40.003 -14.339  -1.113  1.00  0.00     0.030 A 
HETATM   18  C   UNL     1      38.803 -14.069  -1.794  1.00  0.00     0.032 A 
HETATM   19  C   UNL     1      38.516 -14.645  -3.037  1.00  0.00     0.044 A 
HETATM   20  C   UNL     1      39.429 -15.510  -3.617  1.00  0.00     0.116 A 
HETATM   21  C   UNL     1      40.619 -15.809  -2.976  1.00  0.00     0.044 A 
HETATM   22  F   UNL     1      39.157 -16.063  -4.806  1.00  0.00    -0.206 F 
HETATM   23  C   UNL     1      40.900 -15.225  -1.735  1.00  0.00     0.032 A 
ENDBRANCH  13  17
ENDBRANCH   9  10
ENDBRANCH   1   9
BRANCH   4  24
HETATM   24  C   UNL     1      42.893 -17.334   7.270  1.00  0.00     0.129 C 
BRANCH  24  25
HETATM   25  C   UNL     1      44.255 -17.952   6.943  1.00  0.00     0.060 C 
BRANCH  25  26
HETATM   26  C   UNL     1      44.262 -18.931   5.800  1.00  0.00    -0.029 A 
HETATM   27  C   UNL     1      44.117 -18.681   4.393  1.00  0.00     0.001 A 
HETATM   28  C   UNL     1      44.155 -19.919   3.743  1.00  0.00     0.043 A 
HETATM   29  C   UNL     1      43.940 -17.527   3.603  1.00  0.00     0.056 A 
HETATM   30  C   UNL     1      44.010 -20.062   2.356  1.00  0.00     0.033 A 
HETATM   31  N   UNL     1      44.370 -20.877   4.705  1.00  0.00    -0.365 N 
HETATM   32  C   UNL     1      43.813 -18.903   1.603  1.00  0.00     0.044 A 
HETATM   33  C   UNL     1      43.783 -17.663   2.223  1.00  0.00     0.117 A 
HETATM   34  F   UNL     1      43.584 -16.564   1.481  1.00  0.00    -0.206 F 
HETATM   35  H   UNL     1      44.479 -21.866   4.517  1.00  0.00     0.165 HD
HETATM   36  C   UNL     1      44.417 -20.298   5.942  1.00  0.00     0.096 A 
ENDBRANCH  25  26
ENDBRANCH  24  25
ENDBRANCH   4  24
TORSDOF 6
ENDMDL
MODEL 3
REMARK VINA RESULT:      -9.5      1.665     10.881
REMARK  6 active torsions:
REMARK  status: ('A' for Active; 'I' for Inactive)
REMARK    1  A    between atoms: C_2  and  N_3 
REMARK    2  A    between atoms: N_6  and  C_8 
REMARK    3  A    between atoms: C_8  and  C_9 
REMARK       I    between atoms: C_9  and  N_10 
REMARK       I    between atoms: N_10  and  C_11 
REMARK       I    between atoms: C_11  and  N_12 
REMARK    4  A    between atoms: N_12  and  C_13 
REMARK    5  A    between atoms: C_13  and  C_14 
REMARK    6  A    between atoms: C_14  and  C_15 
ROOT
HETATM    1  C   UNL     1      40.332 -15.209   5.392  1.00  0.00     0.251 C 
HETATM    2  N   UNL     1      40.379 -14.164   6.274  1.00  0.00    -0.278 N 
HETATM    3  C   UNL     1      40.702 -12.870   5.950  1.00  0.00     0.322 C 
HETATM    4  N   UNL     1      40.916 -12.087   7.051  1.00  0.00    -0.343 N 
HETATM    5  O   UNL     1      40.744 -12.463   4.795  1.00  0.00    -0.247 OA
HETATM    6  O   UNL     1      40.369 -16.376   5.795  1.00  0.00    -0.271 OA
HETATM    7  H   UNL     1      40.442 -14.430   7.246  1.00  0.00     0.173 HD
HETATM    8  H   UNL     1      41.194 -12.551   7.906  1.00  0.00     0.164 HD
ENDROOT
BRANCH   1   9
HETATM    9  C   UNL     1      40.272 -14.928   3.883  1.00  0.00     0.337 C 
BRANCH   9  10
HETATM   10  N   UNL     1      41.341 -15.739   3.144  1.00  0.00    -0.060 N 
HETATM   11  C   UNL     1      42.531 -16.094   4.037  1.00  0.00     0.255 C 
HETATM   12  C   UNL     1      43.613 -16.809   3.207  1.00  0.00     0.150 C 
HETATM   13  N   UNL     1      43.034 -17.977   2.528  1.00  0.00    -0.378 N 
HETATM   14  C   UNL     1      41.871 -17.720   1.666  1.00  0.00     0.150 C 
HETATM   15  C   UNL     1      40.774 -16.974   2.461  1.00  0.00     0.255 C 
HETATM   16  H   UNL     1      41.711 -15.105   2.418  1.00  0.00     0.280 HD
BRANCH  13  17
HETATM   17  C   UNL     1      43.510 -19.259   2.735  1.00  0.00     0.030 A 
HETATM   18  C   UNL     1      43.309 -20.285   1.795  1.00  0.00     0.032 A 
HETATM   19  C   UNL     1      43.801 -21.579   2.000  1.00  0.00     0.044 A 
HETATM   20  C   UNL     1      44.501 -21.869   3.159  1.00  0.00     0.116 A 
HETATM   21  C   UNL     1      44.715 -20.889   4.114  1.00  0.00     0.044 A 
HETATM   22  F   UNL     1      44.974 -23.105   3.358  1.00  0.00    -0.206 F 
HETATM   23  C   UNL     1      44.223 -19.596   3.899  1.00  0.00     0.032 A 
ENDBRANCH  13  17
ENDBRANCH   9  10
ENDBRANCH   1   9
BRANCH   4  24
HETATM   24  C   UNL     1      41.440 -10.736   6.889  1.00  0.00     0.129 C 
BRANCH  24  25
HETATM   25  C   UNL     1      40.832  -9.718   7.858  1.00  0.00     0.060 C 
BRANCH  25  26
HETATM   26  C   UNL     1      40.694 -10.185   9.281  1.00  0.00    -0.029 A 
HETATM   27  C   UNL     1      41.722 -10.475  10.243  1.00  0.00     0.001 A 
HETATM   28  C   UNL     1      41.089 -10.909  11.412  1.00  0.00     0.043 A 
HETATM   29  C   UNL     1      43.131 -10.430  10.234  1.00  0.00     0.056 A 
HETATM   30  C   UNL     1      41.788 -11.312  12.558  1.00  0.00     0.033 A 
HETATM   31  N   UNL     1      39.734 -10.833  11.194  1.00  0.00    -0.365 N 
HETATM   32  C   UNL     1      43.183 -11.278  12.511  1.00  0.00     0.044 A 
HETATM   33  C   UNL     1      43.834 -10.842  11.367  1.00  0.00     0.117 A 
HETATM   34  F   UNL     1      45.174 -10.825  11.341  1.00  0.00    -0.206 F 
HETATM   35  H   UNL     1      39.027 -11.052  11.884  1.00  0.00     0.165 HD
HETATM   36  C   UNL     1      39.487 -10.418   9.915  1.00  0.00     0.096 A 
ENDBRANCH  25  26
ENDBRANCH  24  25
ENDBRANCH   4  24
TORSDOF 6
ENDMDL
MODEL 4
REMARK VINA RESULT:      -9.4      1.896     10.335
REMARK  6 active torsions:
REMARK  status: ('A' for Active; 'I' for Inactive)
REMARK    1  A    between atoms: C_2  and  N_3 
REMARK    2  A    between atoms: N_6  and  C_8 
REMARK    3  A    between atoms: C_8  and  C_9 
REMARK       I    between atoms: C_9  and  N_10 
REMARK       I    between atoms: N_10  and  C_11 
REMARK       I    between atoms: C_11  and  N_12 
REMARK    4  A    between atoms: N_12  and  C_13 
REMARK    5  A    between atoms: C_13  and  C_14 
REMARK    6  A    between atoms: C_14  and  C_15 
ROOT
HETATM    1  C   UNL     1      40.540 -12.935   3.537  1.00  0.00     0.251 C 
HETATM    2  N   UNL     1      40.622 -12.125   4.636  1.00  0.00    -0.278 N 
HETATM    3  C   UNL     1      40.150 -12.439   5.886  1.00  0.00     0.322 C 
HETATM    4  N   UNL     1      40.136 -11.363   6.731  1.00  0.00    -0.343 N 
HETATM    5  O   UNL     1      39.824 -13.574   6.210  1.00  0.00    -0.247 OA
HETATM    6  O   UNL     1      40.673 -12.471   2.400  1.00  0.00    -0.271 OA
HETATM    7  H   UNL     1      40.796 -11.151   4.436  1.00  0.00     0.173 HD
HETATM    8  H   UNL     1      40.087 -10.442   6.313  1.00  0.00     0.164 HD
ENDROOT
BRANCH   1   9
HETATM    9  C   UNL     1      40.243 -14.432   3.717  1.00  0.00     0.337 C 
BRANCH   9  10
HETATM   10  N   UNL     1      41.545 -15.218   3.902  1.00  0.00    -0.060 N 
HETATM   11  C   UNL     1      41.371 -16.436   4.812  1.00  0.00     0.255 C 
HETATM   12  C   UNL     1      42.735 -17.113   5.045  1.00  0.00     0.150 C 
HETATM   13  N   UNL     1      43.357 -17.443   3.755  1.00  0.00    -0.378 N 
HETATM   14  C   UNL     1      43.539 -16.328   2.815  1.00  0.00     0.150 C 
HETATM   15  C   UNL     1      42.193 -15.603   2.581  1.00  0.00     0.255 C 
HETATM   16  H   UNL     1      42.181 -14.578   4.404  1.00  0.00     0.280 HD
BRANCH  13  17
HETATM   17  C   UNL     1      43.696 -18.739   3.412  1.00  0.00     0.030 A 
HETATM   18  C   UNL     1      43.247 -19.331   2.218  1.00  0.00     0.032 A 
HETATM   19  C   UNL     1      43.599 -20.639   1.866  1.00  0.00     0.044 A 
HETATM   20  C   UNL     1      44.407 -21.381   2.712  1.00  0.00     0.116 A 
HETATM   21  C   UNL     1      44.865 -20.838   3.901  1.00  0.00     0.044 A 
HETATM   22  F   UNL     1      44.747 -22.632   2.379  1.00  0.00    -0.206 F 
HETATM   23  C   UNL     1      44.511 -19.528   4.243  1.00  0.00     0.032 A 
ENDBRANCH  13  17
ENDBRANCH   9  10
ENDBRANCH   1   9
BRANCH   4  24
HETATM   24  C   UNL     1      39.500 -11.476   8.039  1.00  0.00     0.129 C 
BRANCH  24  25
HETATM   25  C   UNL     1      39.892 -10.363   9.014  1.00  0.00     0.060 C 
BRANCH  25  26
HETATM   26  C   UNL     1      40.740 -10.796  10.180  1.00  0.00    -0.029 A 
HETATM   27  C   UNL     1      42.164 -10.974  10.247  1.00  0.00     0.001 A 
HETATM   28  C   UNL     1      42.469 -11.422  11.536  1.00  0.00     0.043 A 
HETATM   29  C   UNL     1      43.228 -10.817   9.335  1.00  0.00     0.056 A 
HETATM   30  C   UNL     1      43.771 -11.732  11.953  1.00  0.00     0.033 A 
HETATM   31  N   UNL     1      41.291 -11.460  12.243  1.00  0.00    -0.365 N 
HETATM   32  C   UNL     1      44.800 -11.589  11.021  1.00  0.00     0.044 A 
HETATM   33  C   UNL     1      44.525 -11.136   9.739  1.00  0.00     0.117 A 
HETATM   34  F   UNL     1      45.528 -11.014   8.858  1.00  0.00    -0.206 F 
HETATM   35  H   UNL     1      41.213 -11.714  13.219  1.00  0.00     0.165 HD
HETATM   36  C   UNL     1      40.246 -11.105  11.434  1.00  0.00     0.096 A 
ENDBRANCH  25  26
ENDBRANCH  24  25
ENDBRANCH   4  24
TORSDOF 6
ENDMDL
MODEL 5
REMARK VINA RESULT:      -9.4      2.325      3.035
REMARK  6 active torsions:
REMARK  status: ('A' for Active; 'I' for Inactive)
REMARK    1  A    between atoms: C_2  and  N_3 
REMARK    2  A    between atoms: N_6  and  C_8 
REMARK    3  A    between atoms: C_8  and  C_9 
REMARK       I    between atoms: C_9  and  N_10 
REMARK       I    between atoms: N_10  and  C_11 
REMARK       I    between atoms: C_11  and  N_12 
REMARK    4  A    between atoms: N_12  and  C_13 
REMARK    5  A    between atoms: C_13  and  C_14 
REMARK    6  A    between atoms: C_14  and  C_15 
ROOT
HETATM    1  C   UNL     1      45.180 -13.569   6.565  1.00  0.00     0.251 C 
HETATM    2  N   UNL     1      44.577 -13.942   5.395  1.00  0.00    -0.278 N 
HETATM    3  C   UNL     1      43.471 -14.750   5.298  1.00  0.00     0.322 C 
HETATM    4  N   UNL     1      43.230 -15.163   4.016  1.00  0.00    -0.343 N 
HETATM    5  O   UNL     1      42.761 -15.025   6.256  1.00  0.00    -0.247 OA
HETATM    6  O   UNL     1      46.336 -13.134   6.569  1.00  0.00    -0.271 OA
HETATM    7  H   UNL     1      45.146 -13.830   4.568  1.00  0.00     0.173 HD
HETATM    8  H   UNL     1      44.015 -15.184   3.377  1.00  0.00     0.164 HD
ENDROOT
BRANCH   1   9
HETATM    9  C   UNL     1      44.423 -13.728   7.894  1.00  0.00     0.337 C 
BRANCH   9  10
HETATM   10  N   UNL     1      44.386 -12.397   8.651  1.00  0.00    -0.060 N 
HETATM   11  C   UNL     1      43.007 -11.735   8.609  1.00  0.00     0.255 C 
HETATM   12  C   UNL     1      43.069 -10.355   9.291  1.00  0.00     0.150 C 
HETATM   13  N   UNL     1      43.599 -10.493  10.655  1.00  0.00    -0.378 N 
HETATM   14  C   UNL     1      44.913 -11.140  10.781  1.00  0.00     0.150 C 
HETATM   15  C   UNL     1      44.898 -12.519  10.079  1.00  0.00     0.255 C 
HETATM   16  H   UNL     1      45.018 -11.768   8.130  1.00  0.00     0.280 HD
BRANCH  13  17
HETATM   17  C   UNL     1      42.880 -10.098  11.768  1.00  0.00     0.030 A 
HETATM   18  C   UNL     1      41.474 -10.045  11.761  1.00  0.00     0.032 A 
HETATM   19  C   UNL     1      40.747  -9.655  12.891  1.00  0.00     0.044 A 
HETATM   20  C   UNL     1      41.419  -9.306  14.051  1.00  0.00     0.116 A 
HETATM   21  C   UNL     1      42.802  -9.337  14.097  1.00  0.00     0.044 A 
HETATM   22  F   UNL     1      40.725  -8.933  15.134  1.00  0.00    -0.206 F 
HETATM   23  C   UNL     1      43.522  -9.731  12.963  1.00  0.00     0.032 A 
ENDBRANCH  13  17
ENDBRANCH   9  10
ENDBRANCH   1   9
BRANCH   4  24
HETATM   24  C   UNL     1      42.204 -16.167   3.759  1.00  0.00     0.129 C 
BRANCH  24  25
HETATM   25  C   UNL     1      42.695 -17.348   2.916  1.00  0.00     0.060 C 
BRANCH  25  26
HETATM   26  C   UNL     1      43.409 -18.431   3.678  1.00  0.00    -0.029 A 
HETATM   27  C   UNL     1      43.784 -19.748   3.241  1.00  0.00     0.001 A 
HETATM   28  C   UNL     1      44.394 -20.389   4.325  1.00  0.00     0.043 A 
HETATM   29  C   UNL     1      43.653 -20.470   2.038  1.00  0.00     0.056 A 
HETATM   30  C   UNL     1      44.861 -21.709   4.271  1.00  0.00     0.033 A 
HETATM   31  N   UNL     1      44.440 -19.485   5.359  1.00  0.00    -0.365 N 
HETATM   32  C   UNL     1      44.695 -22.406   3.073  1.00  0.00     0.044 A 
HETATM   33  C   UNL     1      44.104 -21.789   1.981  1.00  0.00     0.117 A 
HETATM   34  F   UNL     1      43.948 -22.480   0.843  1.00  0.00    -0.206 F 
HETATM   35  H   UNL     1      44.862 -19.664   6.261  1.00  0.00     0.165 HD
HETATM   36  C   UNL     1      43.836 -18.315   4.988  1.00  0.00     0.096 A 
ENDBRANCH  25  26
ENDBRANCH  24  25
ENDBRANCH   4  24
TORSDOF 6
ENDMDL
MODEL 6
REMARK VINA RESULT:      -9.2      5.938     10.226
REMARK  6 active torsions:
REMARK  status: ('A' for Active; 'I' for Inactive)
REMARK    1  A    between atoms: C_2  and  N_3 
REMARK    2  A    between atoms: N_6  and  C_8 
REMARK    3  A    between atoms: C_8  and  C_9 
REMARK       I    between atoms: C_9  and  N_10 
REMARK       I    between atoms: N_10  and  C_11 
REMARK       I    between atoms: C_11  and  N_12 
REMARK    4  A    between atoms: N_12  and  C_13 
REMARK    5  A    between atoms: C_13  and  C_14 
REMARK    6  A    between atoms: C_14  and  C_15 
ROOT
HETATM    1  C   UNL     1      40.643 -13.499   3.259  1.00  0.00     0.251 C 
HETATM    2  N   UNL     1      40.474 -12.775   2.110  1.00  0.00    -0.278 N 
HETATM    3  C   UNL     1      41.490 -12.261   1.344  1.00  0.00     0.322 C 
HETATM    4  N   UNL     1      41.045 -11.377   0.400  1.00  0.00    -0.343 N 
HETATM    5  O   UNL     1      42.660 -12.602   1.472  1.00  0.00    -0.247 OA
HETATM    6  O   UNL     1      39.713 -13.635   4.061  1.00  0.00    -0.271 OA
HETATM    7  H   UNL     1      39.553 -12.381   1.986  1.00  0.00     0.173 HD
HETATM    8  H   UNL     1      40.166 -10.907   0.579  1.00  0.00     0.164 HD
ENDROOT
BRANCH   1   9
HETATM    9  C   UNL     1      42.015 -14.116   3.574  1.00  0.00     0.337 C 
BRANCH   9  10
HETATM   10  N   UNL     1      42.234 -15.385   2.744  1.00  0.00    -0.060 N 
HETATM   11  C   UNL     1      43.709 -15.784   2.659  1.00  0.00     0.255 C 
HETATM   12  C   UNL     1      43.869 -16.996   1.724  1.00  0.00     0.150 C 
HETATM   13  N   UNL     1      43.001 -18.094   2.172  1.00  0.00    -0.378 N 
HETATM   14  C   UNL     1      41.570 -17.783   2.299  1.00  0.00     0.150 C 
HETATM   15  C   UNL     1      41.372 -16.548   3.209  1.00  0.00     0.255 C 
HETATM   16  H   UNL     1      41.953 -15.134   1.783  1.00  0.00     0.280 HD
BRANCH  13  17
HETATM   17  C   UNL     1      43.504 -19.335   2.519  1.00  0.00     0.030 A 
HETATM   18  C   UNL     1      44.202 -19.541   3.722  1.00  0.00     0.032 A 
HETATM   19  C   UNL     1      44.701 -20.799   4.078  1.00  0.00     0.044 A 
HETATM   20  C   UNL     1      44.512 -21.876   3.227  1.00  0.00     0.116 A 
HETATM   21  C   UNL     1      43.836 -21.714   2.029  1.00  0.00     0.044 A 
HETATM   22  F   UNL     1      44.987 -23.081   3.565  1.00  0.00    -0.206 F 
HETATM   23  C   UNL     1      43.337 -20.453   1.683  1.00  0.00     0.032 A 
ENDBRANCH  13  17
ENDBRANCH   9  10
ENDBRANCH   1   9
BRANCH   4  24
HETATM   24  C   UNL     1      42.004 -10.604  -0.380  1.00  0.00     0.129 C 
BRANCH  24  25
HETATM   25  C   UNL     1      41.806 -10.721  -1.894  1.00  0.00     0.060 C 
BRANCH  25  26
HETATM   26  C   UNL     1      41.758 -12.126  -2.432  1.00  0.00    -0.029 A 
HETATM   27  C   UNL     1      40.615 -12.917  -2.795  1.00  0.00     0.001 A 
HETATM   28  C   UNL     1      41.088 -14.168  -3.206  1.00  0.00     0.043 A 
HETATM   29  C   UNL     1      39.221 -12.705  -2.801  1.00  0.00     0.056 A 
HETATM   30  C   UNL     1      40.243 -15.213  -3.605  1.00  0.00     0.033 A 
HETATM   31  N   UNL     1      42.460 -14.123  -3.151  1.00  0.00    -0.365 N 
HETATM   32  C   UNL     1      38.867 -14.981  -3.578  1.00  0.00     0.044 A 
HETATM   33  C   UNL     1      38.374 -13.746  -3.184  1.00  0.00     0.117 A 
HETATM   34  F   UNL     1      37.049 -13.547  -3.158  1.00  0.00    -0.206 F 
HETATM   35  H   UNL     1      43.072 -14.879  -3.429  1.00  0.00     0.165 HD
HETATM   36  C   UNL     1      42.871 -12.910  -2.671  1.00  0.00     0.096 A 
ENDBRANCH  25  26
ENDBRANCH  24  25
ENDBRANCH   4  24
TORSDOF 6
ENDMDL
MODEL 7
REMARK VINA RESULT:      -9.2      4.336      8.113
REMARK  6 active torsions:
REMARK  status: ('A' for Active; 'I' for Inactive)
REMARK    1  A    between atoms: C_2  and  N_3 
REMARK    2  A    between atoms: N_6  and  C_8 
REMARK    3  A    between atoms: C_8  and  C_9 
REMARK       I    between atoms: C_9  and  N_10 
REMARK       I    between atoms: N_10  and  C_11 
REMARK       I    between atoms: C_11  and  N_12 
REMARK    4  A    between atoms: N_12  and  C_13 
REMARK    5  A    between atoms: C_13  and  C_14 
REMARK    6  A    between atoms: C_14  and  C_15 
ROOT
HETATM    1  C   UNL     1      40.001 -12.198   6.164  1.00  0.00     0.251 C 
HETATM    2  N   UNL     1      39.042 -12.141   5.189  1.00  0.00    -0.278 N 
HETATM    3  C   UNL     1      39.287 -11.984   3.848  1.00  0.00     0.322 C 
HETATM    4  N   UNL     1      38.154 -11.711   3.132  1.00  0.00    -0.343 N 
HETATM    5  O   UNL     1      40.399 -12.124   3.353  1.00  0.00    -0.247 OA
HETATM    6  O   UNL     1      39.708 -12.001   7.348  1.00  0.00    -0.271 OA
HETATM    7  H   UNL     1      38.111 -11.933   5.519  1.00  0.00     0.173 HD
HETATM    8  H   UNL     1      37.381 -11.286   3.628  1.00  0.00     0.164 HD
ENDROOT
BRANCH   1   9
HETATM    9  C   UNL     1      41.463 -12.471   5.777  1.00  0.00     0.337 C 
BRANCH   9  10
HETATM   10  N   UNL     1      41.874 -13.884   6.202  1.00  0.00    -0.060 N 
HETATM   11  C   UNL     1      41.020 -14.968   5.541  1.00  0.00     0.255 C 
HETATM   12  C   UNL     1      41.411 -16.351   6.094  1.00  0.00     0.150 C 
HETATM   13  N   UNL     1      42.854 -16.570   5.921  1.00  0.00    -0.378 N 
HETATM   14  C   UNL     1      43.743 -15.558   6.511  1.00  0.00     0.150 C 
HETATM   15  C   UNL     1      43.358 -14.149   6.000  1.00  0.00     0.255 C 
HETATM   16  H   UNL     1      41.666 -13.936   7.212  1.00  0.00     0.280 HD
BRANCH  13  17
HETATM   17  C   UNL     1      43.354 -17.632   5.190  1.00  0.00     0.030 A 
HETATM   18  C   UNL     1      43.910 -18.764   5.812  1.00  0.00     0.032 A 
HETATM   19  C   UNL     1      44.405 -19.843   5.071  1.00  0.00     0.044 A 
HETATM   20  C   UNL     1      44.357 -19.802   3.687  1.00  0.00     0.116 A 
HETATM   21  C   UNL     1      43.826 -18.703   3.035  1.00  0.00     0.044 A 
HETATM   22  F   UNL     1      44.830 -20.833   2.976  1.00  0.00    -0.206 F 
HETATM   23  C   UNL     1      43.329 -17.630   3.784  1.00  0.00     0.032 A 
ENDBRANCH  13  17
ENDBRANCH   9  10
ENDBRANCH   1   9
BRANCH   4  24
HETATM   24  C   UNL     1      38.257 -11.341   1.725  1.00  0.00     0.129 C 
BRANCH  24  25
HETATM   25  C   UNL     1      37.772 -12.430   0.763  1.00  0.00     0.060 C 
BRANCH  25  26
HETATM   26  C   UNL     1      38.858 -13.236   0.103  1.00  0.00    -0.029 A 
HETATM   27  C   UNL     1      39.526 -14.416   0.579  1.00  0.00     0.001 A 
HETATM   28  C   UNL     1      40.481 -14.769  -0.379  1.00  0.00     0.043 A 
HETATM   29  C   UNL     1      39.429 -15.212   1.739  1.00  0.00     0.056 A 
HETATM   30  C   UNL     1      41.348 -15.862  -0.231  1.00  0.00     0.033 A 
HETATM   31  N   UNL     1      40.362 -13.880  -1.420  1.00  0.00    -0.365 N 
HETATM   32  C   UNL     1      41.244 -16.617   0.938  1.00  0.00     0.044 A 
HETATM   33  C   UNL     1      40.297 -16.293   1.898  1.00  0.00     0.117 A 
HETATM   34  F   UNL     1      40.220 -17.027   3.017  1.00  0.00    -0.206 F 
HETATM   35  H   UNL     1      40.906 -13.917  -2.273  1.00  0.00     0.165 HD
HETATM   36  C   UNL     1      39.405 -12.947  -1.133  1.00  0.00     0.096 A 
ENDBRANCH  25  26
ENDBRANCH  24  25
ENDBRANCH   4  24
TORSDOF 6
ENDMDL
MODEL 8
REMARK VINA RESULT:      -9.2      1.919     10.742
REMARK  6 active torsions:
REMARK  status: ('A' for Active; 'I' for Inactive)
REMARK    1  A    between atoms: C_2  and  N_3 
REMARK    2  A    between atoms: N_6  and  C_8 
REMARK    3  A    between atoms: C_8  and  C_9 
REMARK       I    between atoms: C_9  and  N_10 
REMARK       I    between atoms: N_10  and  C_11 
REMARK       I    between atoms: C_11  and  N_12 
REMARK    4  A    between atoms: N_12  and  C_13 
REMARK    5  A    between atoms: C_13  and  C_14 
REMARK    6  A    between atoms: C_14  and  C_15 
ROOT
HETATM    1  C   UNL     1      41.274 -12.759   5.144  1.00  0.00     0.251 C 
HETATM    2  N   UNL     1      41.203 -12.296   6.430  1.00  0.00    -0.278 N 
HETATM    3  C   UNL     1      40.042 -12.011   7.105  1.00  0.00     0.322 C 
HETATM    4  N   UNL     1      40.262 -11.335   8.273  1.00  0.00    -0.343 N 
HETATM    5  O   UNL     1      38.939 -12.372   6.714  1.00  0.00    -0.247 OA
HETATM    6  O   UNL     1      42.324 -12.672   4.500  1.00  0.00    -0.271 OA
HETATM    7  H   UNL     1      42.059 -11.896   6.786  1.00  0.00     0.173 HD
HETATM    8  H   UNL     1      41.116 -10.796   8.346  1.00  0.00     0.164 HD
ENDROOT
BRANCH   1   9
HETATM    9  C   UNL     1      40.023 -13.358   4.482  1.00  0.00     0.337 C 
BRANCH   9  10
HETATM   10  N   UNL     1      40.133 -14.884   4.412  1.00  0.00    -0.060 N 
HETATM   11  C   UNL     1      40.899 -15.361   3.176  1.00  0.00     0.255 C 
HETATM   12  C   UNL     1      40.876 -16.900   3.109  1.00  0.00     0.150 C 
HETATM   13  N   UNL     1      41.398 -17.464   4.362  1.00  0.00    -0.378 N 
HETATM   14  C   UNL     1      40.727 -17.036   5.598  1.00  0.00     0.150 C 
HETATM   15  C   UNL     1      40.704 -15.491   5.684  1.00  0.00     0.255 C 
HETATM   16  H   UNL     1      39.165 -15.222   4.293  1.00  0.00     0.280 HD
BRANCH  13  17
HETATM   17  C   UNL     1      42.499 -18.300   4.390  1.00  0.00     0.030 A 
HETATM   18  C   UNL     1      43.097 -18.698   5.599  1.00  0.00     0.032 A 
HETATM   19  C   UNL     1      44.205 -19.553   5.627  1.00  0.00     0.044 A 
HETATM   20  C   UNL     1      44.737 -20.022   4.437  1.00  0.00     0.116 A 
HETATM   21  C   UNL     1      44.183 -19.648   3.224  1.00  0.00     0.044 A 
HETATM   22  F   UNL     1      45.796 -20.840   4.460  1.00  0.00    -0.206 F 
HETATM   23  C   UNL     1      43.073 -18.795   3.206  1.00  0.00     0.032 A 
ENDBRANCH  13  17
ENDBRANCH   9  10
ENDBRANCH   1   9
BRANCH   4  24
HETATM   24  C   UNL     1      39.133 -10.798   9.024  1.00  0.00     0.129 C 
BRANCH  24  25
HETATM   25  C   UNL     1      39.355  -9.372   9.536  1.00  0.00     0.060 C 
BRANCH  25  26
HETATM   26  C   UNL     1      39.925  -9.267  10.925  1.00  0.00    -0.029 A 
HETATM   27  C   UNL     1      41.272  -9.497  11.370  1.00  0.00     0.001 A 
HETATM   28  C   UNL     1      41.291  -9.306  12.756  1.00  0.00     0.043 A 
HETATM   29  C   UNL     1      42.477  -9.866  10.738  1.00  0.00     0.056 A 
HETATM   30  C   UNL     1      42.443  -9.479  13.537  1.00  0.00     0.033 A 
HETATM   31  N   UNL     1      40.027  -8.921  13.131  1.00  0.00    -0.365 N 
HETATM   32  C   UNL     1      43.615  -9.867  12.886  1.00  0.00     0.044 A 
HETATM   33  C   UNL     1      43.624 -10.052  11.512  1.00  0.00     0.117 A 
HETATM   34  F   UNL     1      44.759 -10.432  10.909  1.00  0.00    -0.206 F 
HETATM   35  H   UNL     1      39.756  -8.679  14.076  1.00  0.00     0.165 HD
HETATM   36  C   UNL     1      39.196  -8.913  12.045  1.00  0.00     0.096 A 
ENDBRANCH  25  26
ENDBRANCH  24  25
ENDBRANCH   4  24
TORSDOF 6
ENDMDL
MODEL 9
REMARK VINA RESULT:      -9.1      5.313      9.533
REMARK  6 active torsions:
REMARK  status: ('A' for Active; 'I' for Inactive)
REMARK    1  A    between atoms: C_2  and  N_3 
REMARK    2  A    between atoms: N_6  and  C_8 
REMARK    3  A    between atoms: C_8  and  C_9 
REMARK       I    between atoms: C_9  and  N_10 
REMARK       I    between atoms: N_10  and  C_11 
REMARK       I    between atoms: C_11  and  N_12 
REMARK    4  A    between atoms: N_12  and  C_13 
REMARK    5  A    between atoms: C_13  and  C_14 
REMARK    6  A    between atoms: C_14  and  C_15 
ROOT
HETATM    1  C   UNL     1      40.120 -13.256   4.734  1.00  0.00     0.251 C 
HETATM    2  N   UNL     1      39.555 -12.387   3.841  1.00  0.00    -0.278 N 
HETATM    3  C   UNL     1      39.137 -12.715   2.575  1.00  0.00     0.322 C 
HETATM    4  N   UNL     1      38.845 -11.617   1.814  1.00  0.00    -0.343 N 
HETATM    5  O   UNL     1      39.001 -13.872   2.198  1.00  0.00    -0.247 OA
HETATM    6  O   UNL     1      40.767 -12.837   5.699  1.00  0.00    -0.271 OA
HETATM    7  H   UNL     1      39.711 -11.410   4.041  1.00  0.00     0.173 HD
HETATM    8  H   UNL     1      39.294 -10.744   2.063  1.00  0.00     0.164 HD
ENDROOT
BRANCH   1   9
HETATM    9  C   UNL     1      39.981 -14.771   4.513  1.00  0.00     0.337 C 
BRANCH   9  10
HETATM   10  N   UNL     1      41.322 -15.375   4.088  1.00  0.00    -0.060 N 
HETATM   11  C   UNL     1      41.928 -16.277   5.165  1.00  0.00     0.255 C 
HETATM   12  C   UNL     1      43.321 -16.760   4.720  1.00  0.00     0.150 C 
HETATM   13  N   UNL     1      43.228 -17.415   3.407  1.00  0.00    -0.378 N 
HETATM   14  C   UNL     1      42.636 -16.619   2.322  1.00  0.00     0.150 C 
HETATM   15  C   UNL     1      41.246 -16.090   2.747  1.00  0.00     0.255 C 
HETATM   16  H   UNL     1      41.966 -14.574   3.995  1.00  0.00     0.280 HD
BRANCH  13  17
HETATM   17  C   UNL     1      43.614 -18.728   3.211  1.00  0.00     0.030 A 
HETATM   18  C   UNL     1      43.232 -19.451   2.067  1.00  0.00     0.032 A 
HETATM   19  C   UNL     1      43.633 -20.776   1.865  1.00  0.00     0.044 A 
HETATM   20  C   UNL     1      44.423 -21.404   2.813  1.00  0.00     0.116 A 
HETATM   21  C   UNL     1      44.815 -20.732   3.958  1.00  0.00     0.044 A 
HETATM   22  F   UNL     1      44.808 -22.672   2.622  1.00  0.00    -0.206 F 
HETATM   23  C   UNL     1      44.413 -19.405   4.150  1.00  0.00     0.032 A 
ENDBRANCH  13  17
ENDBRANCH   9  10
ENDBRANCH   1   9
BRANCH   4  24
HETATM   24  C   UNL     1      38.559 -11.775   0.393  1.00  0.00     0.129 C 
BRANCH  24  25
HETATM   25  C   UNL     1      39.790 -11.619  -0.505  1.00  0.00     0.060 C 
BRANCH  25  26
HETATM   26  C   UNL     1      40.399 -12.905  -0.993  1.00  0.00    -0.029 A 
HETATM   27  C   UNL     1      39.916 -13.812  -1.998  1.00  0.00     0.001 A 
HETATM   28  C   UNL     1      40.818 -14.880  -2.064  1.00  0.00     0.043 A 
HETATM   29  C   UNL     1      38.792 -13.844  -2.848  1.00  0.00     0.056 A 
HETATM   30  C   UNL     1      40.645 -15.976  -2.920  1.00  0.00     0.033 A 
HETATM   31  N   UNL     1      41.835 -14.609  -1.181  1.00  0.00    -0.365 N 
HETATM   32  C   UNL     1      39.511 -15.991  -3.734  1.00  0.00     0.044 A 
HETATM   33  C   UNL     1      38.608 -14.939  -3.694  1.00  0.00     0.117 A 
HETATM   34  F   UNL     1      37.522 -14.977  -4.478  1.00  0.00    -0.206 F 
HETATM   35  H   UNL     1      42.649 -15.194  -1.044  1.00  0.00     0.165 HD
HETATM   36  C   UNL     1      41.585 -13.438  -0.521  1.00  0.00     0.096 A 
ENDBRANCH  25  26
ENDBRANCH  24  25
ENDBRANCH   4  24
TORSDOF 6
ENDMDL
MODEL 10
REMARK VINA RESULT:      -9.0      6.789     10.626
REMARK  6 active torsions:
REMARK  status: ('A' for Active; 'I' for Inactive)
REMARK    1  A    between atoms: C_2  and  N_3 
REMARK    2  A    between atoms: N_6  and  C_8 
REMARK    3  A    between atoms: C_8  and  C_9 
REMARK       I    between atoms: C_9  and  N_10 
REMARK       I    between atoms: N_10  and  C_11 
REMARK       I    between atoms: C_11  and  N_12 
REMARK    4  A    between atoms: N_12  and  C_13 
REMARK    5  A    between atoms: C_13  and  C_14 
REMARK    6  A    between atoms: C_14  and  C_15 
ROOT
HETATM    1  C   UNL     1      40.353 -13.966   1.829  1.00  0.00     0.251 C 
HETATM    2  N   UNL     1      40.709 -13.021   0.906  1.00  0.00    -0.278 N 
HETATM    3  C   UNL     1      41.413 -13.268  -0.247  1.00  0.00     0.322 C 
HETATM    4  N   UNL     1      41.846 -12.122  -0.856  1.00  0.00    -0.343 N 
HETATM    5  O   UNL     1      41.585 -14.395  -0.694  1.00  0.00    -0.247 OA
HETATM    6  O   UNL     1      40.030 -13.638   2.975  1.00  0.00    -0.271 OA
HETATM    7  H   UNL     1      40.681 -12.068   1.239  1.00  0.00     0.173 HD
HETATM    8  H   UNL     1      41.964 -11.301  -0.276  1.00  0.00     0.164 HD
ENDROOT
BRANCH   1   9
HETATM    9  C   UNL     1      40.393 -15.454   1.447  1.00  0.00     0.337 C 
BRANCH   9  10
HETATM   10  N   UNL     1      41.721 -16.083   1.880  1.00  0.00    -0.060 N 
HETATM   11  C   UNL     1      41.630 -16.763   3.248  1.00  0.00     0.255 C 
HETATM   12  C   UNL     1      43.020 -17.274   3.670  1.00  0.00     0.150 C 
HETATM   13  N   UNL     1      43.570 -18.151   2.627  1.00  0.00    -0.378 N 
HETATM   14  C   UNL     1      43.670 -17.577   1.278  1.00  0.00     0.150 C 
HETATM   15  C   UNL     1      42.295 -17.024   0.832  1.00  0.00     0.255 C 
HETATM   16  H   UNL     1      42.371 -15.291   2.001  1.00  0.00     0.280 HD
BRANCH  13  17
HETATM   17  C   UNL     1      43.917 -19.466   2.879  1.00  0.00     0.030 A 
HETATM   18  C   UNL     1      44.505 -19.858   4.095  1.00  0.00     0.032 A 
HETATM   19  C   UNL     1      44.845 -21.191   4.353  1.00  0.00     0.044 A 
HETATM   20  C   UNL     1      44.604 -22.157   3.390  1.00  0.00     0.116 A 
HETATM   21  C   UNL     1      44.034 -21.812   2.176  1.00  0.00     0.044 A 
HETATM   22  F   UNL     1      44.928 -23.433   3.634  1.00  0.00    -0.206 F 
HETATM   23  C   UNL     1      43.694 -20.478   1.928  1.00  0.00     0.032 A 
ENDBRANCH  13  17
ENDBRANCH   9  10
ENDBRANCH   1   9
BRANCH   4  24
HETATM   24  C   UNL     1      42.758 -12.205  -1.991  1.00  0.00     0.129 C 
BRANCH  24  25
HETATM   25  C   UNL     1      42.091 -11.925  -3.340  1.00  0.00     0.060 C 
BRANCH  25  26
HETATM   26  C   UNL     1      40.591 -12.040  -3.355  1.00  0.00    -0.029 A 
HETATM   27  C   UNL     1      39.774 -13.214  -3.492  1.00  0.00     0.001 A 
HETATM   28  C   UNL     1      38.439 -12.797  -3.481  1.00  0.00     0.043 A 
HETATM   29  C   UNL     1      40.033 -14.591  -3.643  1.00  0.00     0.056 A 
HETATM   30  C   UNL     1      37.359 -13.679  -3.627  1.00  0.00     0.033 A 
HETATM   31  N   UNL     1      38.439 -11.436  -3.287  1.00  0.00    -0.365 N 
HETATM   32  C   UNL     1      37.648 -15.034  -3.798  1.00  0.00     0.044 A 
HETATM   33  C   UNL     1      38.963 -15.473  -3.802  1.00  0.00     0.117 A 
HETATM   34  F   UNL     1      39.218 -16.777  -3.975  1.00  0.00    -0.206 F 
HETATM   35  H   UNL     1      37.606 -10.868  -3.200  1.00  0.00     0.165 HD
HETATM   36  C   UNL     1      39.723 -10.970  -3.229  1.00  0.00     0.096 A 
ENDBRANCH  25  26
ENDBRANCH  24  25
ENDBRANCH   4  24
TORSDOF 6
ENDMDL
