MODEL 1
REMARK VINA RESULT:     -10.1      0.000      0.000
REMARK  7 active torsions:
REMARK  status: ('A' for Active; 'I' for Inactive)
REMARK    1  A    between atoms: C_2  and  C_3 
REMARK    2  A    between atoms: N_4  and  C_5 
REMARK    3  A    between atoms: C_13  and  C_14 
REMARK       I    between atoms: C_14  and  N_15 
REMARK    4  A    between atoms: N_15  and  N_16 
REMARK       I    between atoms: N_16  and  C_17 
REMARK    5  A    between atoms: C_17  and  C_18 
REMARK    6  A    between atoms: C_22  and  C_23 
REMARK    7  A    between atoms: C_26  and  O_27 
ROOT
HETATM    1  N   UNL     1      44.293 -14.198   7.875  1.00  0.00    -0.262 N 
HETATM    2  C   UNL     1      45.235 -13.194   7.881  1.00  0.00     0.288 C 
HETATM    3  O   UNL     1      46.207 -13.209   7.128  1.00  0.00    -0.264 OA
HETATM    4  H   UNL     1      43.431 -14.163   8.416  1.00  0.00     0.190 HD
ENDROOT
BRANCH   1   5
HETATM    5  N   UNL     1      44.401 -15.253   6.959  1.00  0.00    -0.263 N 
HETATM    6  C   UNL     1      43.338 -15.472   6.109  1.00  0.00     0.273 C 
HETATM    7  O   UNL     1      42.326 -14.772   6.180  1.00  0.00    -0.266 OA
HETATM    8  H   UNL     1      45.326 -15.643   6.821  1.00  0.00     0.190 HD
BRANCH   6   9
HETATM    9  C   UNL     1      43.466 -16.531   5.121  1.00  0.00     0.077 A 
HETATM   10  C   UNL     1      44.023 -17.816   5.169  1.00  0.00     0.053 A 
HETATM   11  N   UNL     1      43.741 -18.412   3.923  1.00  0.00    -0.237 N 
HETATM   12  N   UNL     1      43.081 -17.537   3.116  1.00  0.00    -0.178 NA
HETATM   13  C   UNL     1      42.911 -16.440   3.835  1.00  0.00     0.158 A 
BRANCH  10  14
HETATM   14  C   UNL     1      44.665 -18.509   6.331  1.00  0.00     0.056 C 
HETATM   15  C   UNL     1      43.644 -18.948   7.374  1.00  0.00     0.011 C 
ENDBRANCH  10  14
BRANCH  11  16
HETATM   16  C   UNL     1      43.985 -19.728   3.392  1.00  0.00     0.058 A 
HETATM   17  C   UNL     1      44.676 -20.735   4.069  1.00  0.00     0.031 A 
HETATM   18  C   UNL     1      44.852 -21.999   3.489  1.00  0.00     0.002 A 
HETATM   19  C   UNL     1      44.347 -22.276   2.223  1.00  0.00     0.000 A 
HETATM   20  C   UNL     1      43.670 -21.284   1.525  1.00  0.00     0.002 A 
HETATM   21  C   UNL     1      43.496 -20.022   2.100  1.00  0.00     0.031 A 
ENDBRANCH  11  16
ENDBRANCH   6   9
ENDBRANCH   1   5
BRANCH   2  22
HETATM   22  C   UNL     1      44.987 -12.138   8.824  1.00  0.00     0.121 A 
HETATM   23  N   UNL     1      45.908 -11.163   9.090  1.00  0.00    -0.272 N 
HETATM   24  H   UNL     1      46.833 -11.069   8.683  1.00  0.00     0.189 HD
HETATM   25  N   UNL     1      45.497 -10.248   9.981  1.00  0.00    -0.174 NA
HETATM   26  C   UNL     1      44.267 -10.648  10.339  1.00  0.00     0.089 A 
HETATM   27  C   UNL     1      43.911 -11.829   9.631  1.00  0.00     0.071 A 
BRANCH  26  28
HETATM   28  C   UNL     1      43.458  -9.910  11.314  1.00  0.00    -0.005 A 
HETATM   29  C   UNL     1      43.806  -9.904  12.670  1.00  0.00     0.016 A 
HETATM   30  C   UNL     1      43.054  -9.173  13.595  1.00  0.00     0.037 A 
HETATM   31  C   UNL     1      41.940  -8.437  13.187  1.00  0.00     0.068 A 
HETATM   32  C   UNL     1      41.574  -8.451  11.842  1.00  0.00     0.037 A 
HETATM   33  C   UNL     1      42.329  -9.182  10.913  1.00  0.00     0.016 A 
BRANCH  31  34
HETATM   34  O   UNL     1      41.298  -7.760  14.186  1.00  0.00    -0.356 OA
HETATM   35  C   UNL     1      41.512  -8.220  15.514  1.00  0.00     0.210 C 
ENDBRANCH  31  34
ENDBRANCH  26  28
ENDBRANCH   2  22
TORSDOF 7
ENDMDL
MODEL 2
REMARK VINA RESULT:      -8.8      1.726      2.144
REMARK  7 active torsions:
REMARK  status: ('A' for Active; 'I' for Inactive)
REMARK    1  A    between atoms: C_2  and  C_3 
REMARK    2  A    between atoms: N_4  and  C_5 
REMARK    3  A    between atoms: C_13  and  C_14 
REMARK       I    between atoms: C_14  and  N_15 
REMARK    4  A    between atoms: N_15  and  N_16 
REMARK       I    between atoms: N_16  and  C_17 
REMARK    5  A    between atoms: C_17  and  C_18 
REMARK    6  A    between atoms: C_22  and  C_23 
REMARK    7  A    between atoms: C_26  and  O_27 
ROOT
HETATM    1  N   UNL     1      42.934 -12.892   7.020  1.00  0.00    -0.262 N 
HETATM    2  C   UNL     1      42.078 -11.830   6.835  1.00  0.00     0.288 C 
HETATM    3  O   UNL     1      41.426 -11.691   5.802  1.00  0.00    -0.264 OA
HETATM    4  H   UNL     1      43.409 -13.084   7.899  1.00  0.00     0.190 HD
ENDROOT
BRANCH   1   5
HETATM    5  N   UNL     1      43.046 -13.880   6.032  1.00  0.00    -0.263 N 
HETATM    6  C   UNL     1      43.579 -15.096   6.403  1.00  0.00     0.273 C 
HETATM    7  O   UNL     1      43.961 -15.285   7.560  1.00  0.00    -0.266 OA
HETATM    8  H   UNL     1      42.530 -13.726   5.174  1.00  0.00     0.190 HD
BRANCH   6   9
HETATM    9  C   UNL     1      43.649 -16.143   5.396  1.00  0.00     0.077 A 
HETATM   10  C   UNL     1      44.139 -17.455   5.420  1.00  0.00     0.053 A 
HETATM   11  N   UNL     1      43.824 -18.014   4.164  1.00  0.00    -0.237 N 
HETATM   12  N   UNL     1      43.207 -17.091   3.375  1.00  0.00    -0.178 NA
HETATM   13  C   UNL     1      43.096 -16.000   4.114  1.00  0.00     0.158 A 
BRANCH  10  14
HETATM   14  C   UNL     1      44.747 -18.201   6.567  1.00  0.00     0.056 C 
HETATM   15  C   UNL     1      43.692 -18.857   7.450  1.00  0.00     0.011 C 
ENDBRANCH  10  14
BRANCH  11  16
HETATM   16  C   UNL     1      43.997 -19.331   3.609  1.00  0.00     0.058 A 
HETATM   17  C   UNL     1      44.696 -20.365   4.237  1.00  0.00     0.031 A 
HETATM   18  C   UNL     1      44.802 -21.627   3.638  1.00  0.00     0.002 A 
HETATM   19  C   UNL     1      44.217 -21.877   2.401  1.00  0.00     0.000 A 
HETATM   20  C   UNL     1      43.531 -20.859   1.751  1.00  0.00     0.002 A 
HETATM   21  C   UNL     1      43.427 -19.598   2.345  1.00  0.00     0.031 A 
ENDBRANCH  11  16
ENDBRANCH   6   9
ENDBRANCH   1   5
BRANCH   2  22
HETATM   22  C   UNL     1      42.004 -10.914   7.940  1.00  0.00     0.121 A 
HETATM   23  N   UNL     1      41.609  -9.614   7.788  1.00  0.00    -0.272 N 
HETATM   24  H   UNL     1      41.335  -9.155   6.925  1.00  0.00     0.189 HD
HETATM   25  N   UNL     1      41.581  -8.911   8.930  1.00  0.00    -0.174 NA
HETATM   26  C   UNL     1      42.001  -9.771   9.871  1.00  0.00     0.089 A 
HETATM   27  C   UNL     1      42.274 -11.040   9.288  1.00  0.00     0.071 A 
BRANCH  26  28
HETATM   28  C   UNL     1      42.120  -9.390  11.282  1.00  0.00    -0.005 A 
HETATM   29  C   UNL     1      41.112  -8.646  11.907  1.00  0.00     0.016 A 
HETATM   30  C   UNL     1      41.211  -8.311  13.261  1.00  0.00     0.037 A 
HETATM   31  C   UNL     1      42.316  -8.708  14.017  1.00  0.00     0.068 A 
HETATM   32  C   UNL     1      43.333  -9.434  13.399  1.00  0.00     0.037 A 
HETATM   33  C   UNL     1      43.235  -9.773  12.042  1.00  0.00     0.016 A 
BRANCH  31  34
HETATM   34  O   UNL     1      42.285  -8.326  15.328  1.00  0.00    -0.356 OA
HETATM   35  C   UNL     1      41.216  -8.829  16.120  1.00  0.00     0.210 C 
ENDBRANCH  31  34
ENDBRANCH  26  28
ENDBRANCH   2  22
TORSDOF 7
ENDMDL
MODEL 3
REMARK VINA RESULT:      -8.7      2.457     12.021
REMARK  7 active torsions:
REMARK  status: ('A' for Active; 'I' for Inactive)
REMARK    1  A    between atoms: C_2  and  C_3 
REMARK    2  A    between atoms: N_4  and  C_5 
REMARK    3  A    between atoms: C_13  and  C_14 
REMARK       I    between atoms: C_14  and  N_15 
REMARK    4  A    between atoms: N_15  and  N_16 
REMARK       I    between atoms: N_16  and  C_17 
REMARK    5  A    between atoms: C_17  and  C_18 
REMARK    6  A    between atoms: C_22  and  C_23 
REMARK    7  A    between atoms: C_26  and  O_27 
ROOT
HETATM    1  N   UNL     1      43.261 -12.695   7.288  1.00  0.00    -0.262 N 
HETATM    2  C   UNL     1      42.357 -12.794   6.254  1.00  0.00     0.288 C 
HETATM    3  O   UNL     1      41.302 -12.163   6.248  1.00  0.00    -0.264 OA
HETATM    4  H   UNL     1      44.182 -13.128   7.273  1.00  0.00     0.190 HD
ENDROOT
BRANCH   1   5
HETATM    5  N   UNL     1      43.012 -11.819   8.353  1.00  0.00    -0.263 N 
HETATM    6  C   UNL     1      43.619 -12.092   9.559  1.00  0.00     0.273 C 
HETATM    7  O   UNL     1      44.335 -13.088   9.689  1.00  0.00    -0.266 OA
HETATM    8  H   UNL     1      42.591 -10.926   8.120  1.00  0.00     0.190 HD
BRANCH   6   9
HETATM    9  C   UNL     1      43.407 -11.157  10.654  1.00  0.00     0.077 A 
HETATM   10  C   UNL     1      42.263 -10.761  11.358  1.00  0.00     0.053 A 
HETATM   11  N   UNL     1      42.713  -9.907  12.387  1.00  0.00    -0.237 N 
HETATM   12  N   UNL     1      44.061  -9.739  12.309  1.00  0.00    -0.178 NA
HETATM   13  C   UNL     1      44.461 -10.490  11.296  1.00  0.00     0.158 A 
BRANCH  10  14
HETATM   14  C   UNL     1      40.853 -11.233  11.185  1.00  0.00     0.056 C 
HETATM   15  C   UNL     1      40.073 -10.368  10.201  1.00  0.00     0.011 C 
ENDBRANCH  10  14
BRANCH  11  16
HETATM   16  C   UNL     1      42.037  -9.244  13.471  1.00  0.00     0.058 A 
HETATM   17  C   UNL     1      41.002  -8.320  13.307  1.00  0.00     0.031 A 
HETATM   18  C   UNL     1      40.381  -7.734  14.418  1.00  0.00     0.002 A 
HETATM   19  C   UNL     1      40.785  -8.055  15.710  1.00  0.00     0.000 A 
HETATM   20  C   UNL     1      41.823  -8.959  15.896  1.00  0.00     0.002 A 
HETATM   21  C   UNL     1      42.447  -9.543  14.789  1.00  0.00     0.031 A 
ENDBRANCH  11  16
ENDBRANCH   6   9
ENDBRANCH   1   5
BRANCH   2  22
HETATM   22  C   UNL     1      42.749 -13.680   5.192  1.00  0.00     0.121 A 
HETATM   23  N   UNL     1      43.296 -13.226   4.025  1.00  0.00    -0.272 N 
HETATM   24  H   UNL     1      43.482 -12.261   3.771  1.00  0.00     0.189 HD
HETATM   25  N   UNL     1      43.619 -14.197   3.156  1.00  0.00    -0.174 NA
HETATM   26  C   UNL     1      43.245 -15.335   3.761  1.00  0.00     0.089 A 
HETATM   27  C   UNL     1      42.697 -15.051   5.042  1.00  0.00     0.071 A 
BRANCH  26  28
HETATM   28  C   UNL     1      43.424 -16.648   3.134  1.00  0.00    -0.005 A 
HETATM   29  C   UNL     1      43.428 -17.814   3.909  1.00  0.00     0.016 A 
HETATM   30  C   UNL     1      43.566 -19.069   3.306  1.00  0.00     0.037 A 
HETATM   31  C   UNL     1      43.705 -19.185   1.922  1.00  0.00     0.068 A 
HETATM   32  C   UNL     1      43.720 -18.029   1.143  1.00  0.00     0.037 A 
HETATM   33  C   UNL     1      43.580 -16.770   1.746  1.00  0.00     0.016 A 
BRANCH  31  34
HETATM   34  O   UNL     1      43.820 -20.466   1.460  1.00  0.00    -0.356 OA
HETATM   35  C   UNL     1      44.294 -21.442   2.380  1.00  0.00     0.210 C 
ENDBRANCH  31  34
ENDBRANCH  26  28
ENDBRANCH   2  22
TORSDOF 7
ENDMDL
MODEL 4
REMARK VINA RESULT:      -8.5      2.969      3.615
REMARK  7 active torsions:
REMARK  status: ('A' for Active; 'I' for Inactive)
REMARK    1  A    between atoms: C_2  and  C_3 
REMARK    2  A    between atoms: N_4  and  C_5 
REMARK    3  A    between atoms: C_13  and  C_14 
REMARK       I    between atoms: C_14  and  N_15 
REMARK    4  A    between atoms: N_15  and  N_16 
REMARK       I    between atoms: N_16  and  C_17 
REMARK    5  A    between atoms: C_17  and  C_18 
REMARK    6  A    between atoms: C_22  and  C_23 
REMARK    7  A    between atoms: C_26  and  O_27 
ROOT
HETATM    1  N   UNL     1      41.144 -12.617   6.544  1.00  0.00    -0.262 N 
HETATM    2  C   UNL     1      39.826 -12.251   6.704  1.00  0.00     0.288 C 
HETATM    3  O   UNL     1      38.915 -12.823   6.110  1.00  0.00    -0.264 OA
HETATM    4  H   UNL     1      41.906 -12.227   7.094  1.00  0.00     0.190 HD
ENDROOT
BRANCH   1   5
HETATM    5  N   UNL     1      41.473 -13.701   5.720  1.00  0.00    -0.263 N 
HETATM    6  C   UNL     1      42.785 -14.124   5.715  1.00  0.00     0.273 C 
HETATM    7  O   UNL     1      43.632 -13.544   6.399  1.00  0.00    -0.266 OA
HETATM    8  H   UNL     1      40.701 -14.247   5.355  1.00  0.00     0.190 HD
BRANCH   6   9
HETATM    9  C   UNL     1      43.123 -15.282   4.903  1.00  0.00     0.077 A 
HETATM   10  C   UNL     1      43.573 -16.569   5.222  1.00  0.00     0.053 A 
HETATM   11  N   UNL     1      43.616 -17.282   4.005  1.00  0.00    -0.237 N 
HETATM   12  N   UNL     1      43.255 -16.476   2.970  1.00  0.00    -0.178 NA
HETATM   13  C   UNL     1      42.953 -15.307   3.510  1.00  0.00     0.158 A 
BRANCH  10  14
HETATM   14  C   UNL     1      43.827 -17.158   6.575  1.00  0.00     0.056 C 
HETATM   15  C   UNL     1      42.541 -17.347   7.371  1.00  0.00     0.011 C 
ENDBRANCH  10  14
BRANCH  11  16
HETATM   16  C   UNL     1      43.924 -18.651   3.686  1.00  0.00     0.058 A 
HETATM   17  C   UNL     1      44.588 -19.531   4.544  1.00  0.00     0.031 A 
HETATM   18  C   UNL     1      44.831 -20.858   4.164  1.00  0.00     0.002 A 
HETATM   19  C   UNL     1      44.421 -21.327   2.921  1.00  0.00     0.000 A 
HETATM   20  C   UNL     1      43.773 -20.466   2.045  1.00  0.00     0.002 A 
HETATM   21  C   UNL     1      43.532 -19.141   2.420  1.00  0.00     0.031 A 
ENDBRANCH  11  16
ENDBRANCH   6   9
ENDBRANCH   1   5
BRANCH   2  22
HETATM   22  C   UNL     1      39.608 -11.163   7.617  1.00  0.00     0.121 A 
HETATM   23  N   UNL     1      39.296  -9.902   7.192  1.00  0.00    -0.272 N 
HETATM   24  H   UNL     1      39.190  -9.588   6.232  1.00  0.00     0.189 HD
HETATM   25  N   UNL     1      39.108  -9.018   8.185  1.00  0.00    -0.174 NA
HETATM   26  C   UNL     1      39.330  -9.716   9.310  1.00  0.00     0.089 A 
HETATM   27  C   UNL     1      39.643 -11.067   8.994  1.00  0.00     0.071 A 
BRANCH  26  28
HETATM   28  C   UNL     1      39.228  -9.108  10.640  1.00  0.00    -0.005 A 
HETATM   29  C   UNL     1      38.025  -9.153  11.354  1.00  0.00     0.016 A 
HETATM   30  C   UNL     1      37.938  -8.601  12.637  1.00  0.00     0.037 A 
HETATM   31  C   UNL     1      39.045  -7.993  13.229  1.00  0.00     0.068 A 
HETATM   32  C   UNL     1      40.243  -7.927  12.519  1.00  0.00     0.037 A 
HETATM   33  C   UNL     1      40.333  -8.481  11.234  1.00  0.00     0.016 A 
BRANCH  31  34
HETATM   34  O   UNL     1      38.830  -7.504  14.487  1.00  0.00    -0.356 OA
HETATM   35  C   UNL     1      39.901  -7.623  15.416  1.00  0.00     0.210 C 
ENDBRANCH  31  34
ENDBRANCH  26  28
ENDBRANCH   2  22
TORSDOF 7
ENDMDL
MODEL 5
REMARK VINA RESULT:      -8.3      4.686     12.262
REMARK  7 active torsions:
REMARK  status: ('A' for Active; 'I' for Inactive)
REMARK    1  A    between atoms: C_2  and  C_3 
REMARK    2  A    between atoms: N_4  and  C_5 
REMARK    3  A    between atoms: C_13  and  C_14 
REMARK       I    between atoms: C_14  and  N_15 
REMARK    4  A    between atoms: N_15  and  N_16 
REMARK       I    between atoms: N_16  and  C_17 
REMARK    5  A    between atoms: C_17  and  C_18 
REMARK    6  A    between atoms: C_22  and  C_23 
REMARK    7  A    between atoms: C_26  and  O_27 
ROOT
HETATM    1  N   UNL     1      41.609 -12.086   5.552  1.00  0.00    -0.262 N 
HETATM    2  C   UNL     1      41.453 -13.329   4.979  1.00  0.00     0.288 C 
HETATM    3  O   UNL     1      41.229 -14.333   5.651  1.00  0.00    -0.264 OA
HETATM    4  H   UNL     1      41.698 -11.227   5.015  1.00  0.00     0.190 HD
ENDROOT
BRANCH   1   5
HETATM    5  N   UNL     1      41.465 -11.934   6.938  1.00  0.00    -0.263 N 
HETATM    6  C   UNL     1      41.699 -10.684   7.469  1.00  0.00     0.273 C 
HETATM    7  O   UNL     1      42.044  -9.749   6.743  1.00  0.00    -0.266 OA
HETATM    8  H   UNL     1      40.986 -12.679   7.431  1.00  0.00     0.190 HD
BRANCH   6   9
HETATM    9  C   UNL     1      41.500 -10.505   8.899  1.00  0.00     0.077 A 
HETATM   10  C   UNL     1      42.382 -10.481   9.987  1.00  0.00     0.053 A 
HETATM   11  N   UNL     1      41.603 -10.156  11.117  1.00  0.00    -0.237 N 
HETATM   12  N   UNL     1      40.293 -10.026  10.768  1.00  0.00    -0.178 NA
HETATM   13  C   UNL     1      40.246 -10.219   9.461  1.00  0.00     0.158 A 
BRANCH  10  14
HETATM   14  C   UNL     1      43.873 -10.619   9.979  1.00  0.00     0.056 C 
HETATM   15  C   UNL     1      44.325 -12.000  10.443  1.00  0.00     0.011 C 
ENDBRANCH  10  14
BRANCH  11  16
HETATM   16  C   UNL     1      41.936  -9.916  12.496  1.00  0.00     0.058 A 
HETATM   17  C   UNL     1      43.009  -9.131  12.923  1.00  0.00     0.031 A 
HETATM   18  C   UNL     1      43.252  -8.929  14.288  1.00  0.00     0.002 A 
HETATM   19  C   UNL     1      42.432  -9.510  15.250  1.00  0.00     0.000 A 
HETATM   20  C   UNL     1      41.369 -10.308  14.848  1.00  0.00     0.002 A 
HETATM   21  C   UNL     1      41.126 -10.514  13.487  1.00  0.00     0.031 A 
ENDBRANCH  11  16
ENDBRANCH   6   9
ENDBRANCH   1   5
BRANCH   2  22
HETATM   22  C   UNL     1      41.566 -13.351   3.546  1.00  0.00     0.121 A 
HETATM   23  N   UNL     1      42.460 -12.568   2.870  1.00  0.00    -0.272 N 
HETATM   24  H   UNL     1      43.118 -11.906   3.270  1.00  0.00     0.189 HD
HETATM   25  N   UNL     1      42.440 -12.735   1.539  1.00  0.00    -0.174 NA
HETATM   26  C   UNL     1      41.475 -13.644   1.323  1.00  0.00     0.089 A 
HETATM   27  C   UNL     1      40.906 -14.056   2.560  1.00  0.00     0.071 A 
BRANCH  26  28
HETATM   28  C   UNL     1      41.127 -14.109  -0.023  1.00  0.00    -0.005 A 
HETATM   29  C   UNL     1      40.614 -13.219  -0.974  1.00  0.00     0.016 A 
HETATM   30  C   UNL     1      40.314 -13.657  -2.269  1.00  0.00     0.037 A 
HETATM   31  C   UNL     1      40.515 -14.988  -2.637  1.00  0.00     0.068 A 
HETATM   32  C   UNL     1      41.009 -15.886  -1.692  1.00  0.00     0.037 A 
HETATM   33  C   UNL     1      41.313 -15.448  -0.394  1.00  0.00     0.016 A 
BRANCH  31  34
HETATM   34  O   UNL     1      40.191 -15.283  -3.932  1.00  0.00    -0.356 OA
HETATM   35  C   UNL     1      39.033 -16.081  -4.140  1.00  0.00     0.210 C 
ENDBRANCH  31  34
ENDBRANCH  26  28
ENDBRANCH   2  22
TORSDOF 7
ENDMDL
MODEL 6
REMARK VINA RESULT:      -8.2      7.997     12.388
REMARK  7 active torsions:
REMARK  status: ('A' for Active; 'I' for Inactive)
REMARK    1  A    between atoms: C_2  and  C_3 
REMARK    2  A    between atoms: N_4  and  C_5 
REMARK    3  A    between atoms: C_13  and  C_14 
REMARK       I    between atoms: C_14  and  N_15 
REMARK    4  A    between atoms: N_15  and  N_16 
REMARK       I    between atoms: N_16  and  C_17 
REMARK    5  A    between atoms: C_17  and  C_18 
REMARK    6  A    between atoms: C_22  and  C_23 
REMARK    7  A    between atoms: C_26  and  O_27 
ROOT
HETATM    1  N   UNL     1      39.472 -15.129   0.608  1.00  0.00    -0.262 N 
HETATM    2  C   UNL     1      39.571 -14.792   1.940  1.00  0.00     0.288 C 
HETATM    3  O   UNL     1      38.987 -13.819   2.411  1.00  0.00    -0.264 OA
HETATM    4  H   UNL     1      39.864 -15.981   0.213  1.00  0.00     0.190 HD
ENDROOT
BRANCH   1   5
HETATM    5  N   UNL     1      38.648 -14.379  -0.243  1.00  0.00    -0.263 N 
HETATM    6  C   UNL     1      39.219 -13.847  -1.378  1.00  0.00     0.273 C 
HETATM    7  O   UNL     1      40.418 -14.013  -1.612  1.00  0.00    -0.266 OA
HETATM    8  H   UNL     1      37.648 -14.460  -0.096  1.00  0.00     0.190 HD
BRANCH   6   9
HETATM    9  C   UNL     1      38.358 -13.113  -2.292  1.00  0.00     0.077 A 
HETATM   10  C   UNL     1      37.484 -13.519  -3.308  1.00  0.00     0.053 A 
HETATM   11  N   UNL     1      36.844 -12.348  -3.766  1.00  0.00    -0.237 N 
HETATM   12  N   UNL     1      37.320 -11.258  -3.104  1.00  0.00    -0.178 NA
HETATM   13  C   UNL     1      38.198 -11.720  -2.230  1.00  0.00     0.158 A 
BRANCH  10  14
HETATM   14  C   UNL     1      37.154 -14.910  -3.753  1.00  0.00     0.056 C 
HETATM   15  C   UNL     1      38.389 -15.670  -4.227  1.00  0.00     0.011 C 
ENDBRANCH  10  14
BRANCH  11  16
HETATM   16  C   UNL     1      35.804 -12.118  -4.734  1.00  0.00     0.058 A 
HETATM   17  C   UNL     1      34.448 -12.371  -4.510  1.00  0.00     0.031 A 
HETATM   18  C   UNL     1      33.494 -12.099  -5.500  1.00  0.00     0.002 A 
HETATM   19  C   UNL     1      33.877 -11.574  -6.730  1.00  0.00     0.000 A 
HETATM   20  C   UNL     1      35.221 -11.330  -6.980  1.00  0.00     0.002 A 
HETATM   21  C   UNL     1      36.175 -11.604  -5.996  1.00  0.00     0.031 A 
ENDBRANCH  11  16
ENDBRANCH   6   9
ENDBRANCH   1   5
BRANCH   2  22
HETATM   22  C   UNL     1      40.399 -15.668   2.724  1.00  0.00     0.121 A 
HETATM   23  N   UNL     1      40.384 -15.659   4.090  1.00  0.00    -0.272 N 
HETATM   24  H   UNL     1      39.822 -15.066   4.692  1.00  0.00     0.189 HD
HETATM   25  N   UNL     1      41.207 -16.557   4.654  1.00  0.00    -0.174 NA
HETATM   26  C   UNL     1      41.810 -17.165   3.620  1.00  0.00     0.089 A 
HETATM   27  C   UNL     1      41.326 -16.635   2.392  1.00  0.00     0.071 A 
BRANCH  26  28
HETATM   28  C   UNL     1      42.802 -18.227   3.809  1.00  0.00    -0.005 A 
HETATM   29  C   UNL     1      43.157 -18.651   5.095  1.00  0.00     0.016 A 
HETATM   30  C   UNL     1      44.080 -19.688   5.273  1.00  0.00     0.037 A 
HETATM   31  C   UNL     1      44.667 -20.318   4.174  1.00  0.00     0.068 A 
HETATM   32  C   UNL     1      44.333 -19.891   2.890  1.00  0.00     0.037 A 
HETATM   33  C   UNL     1      43.406 -18.854   2.709  1.00  0.00     0.016 A 
BRANCH  31  34
HETATM   34  O   UNL     1      45.542 -21.321   4.485  1.00  0.00    -0.356 OA
HETATM   35  C   UNL     1      45.055 -22.365   5.318  1.00  0.00     0.210 C 
ENDBRANCH  31  34
ENDBRANCH  26  28
ENDBRANCH   2  22
TORSDOF 7
ENDMDL
MODEL 7
REMARK VINA RESULT:      -8.2      7.413      9.587
REMARK  7 active torsions:
REMARK  status: ('A' for Active; 'I' for Inactive)
REMARK    1  A    between atoms: C_2  and  C_3 
REMARK    2  A    between atoms: N_4  and  C_5 
REMARK    3  A    between atoms: C_13  and  C_14 
REMARK       I    between atoms: C_14  and  N_15 
REMARK    4  A    between atoms: N_15  and  N_16 
REMARK       I    between atoms: N_16  and  C_17 
REMARK    5  A    between atoms: C_17  and  C_18 
REMARK    6  A    between atoms: C_22  and  C_23 
REMARK    7  A    between atoms: C_26  and  O_27 
ROOT
HETATM    1  N   UNL     1      38.912 -14.435   0.764  1.00  0.00    -0.262 N 
HETATM    2  C   UNL     1      38.687 -13.714  -0.387  1.00  0.00     0.288 C 
HETATM    3  O   UNL     1      39.340 -13.901  -1.412  1.00  0.00    -0.264 OA
HETATM    4  H   UNL     1      38.325 -14.369   1.592  1.00  0.00     0.190 HD
ENDROOT
BRANCH   1   5
HETATM    5  N   UNL     1      39.879 -15.450   0.775  1.00  0.00    -0.263 N 
HETATM    6  C   UNL     1      40.732 -15.506   1.855  1.00  0.00     0.273 C 
HETATM    7  O   UNL     1      40.652 -14.673   2.761  1.00  0.00    -0.266 OA
HETATM    8  H   UNL     1      39.752 -16.207   0.113  1.00  0.00     0.190 HD
BRANCH   6   9
HETATM    9  C   UNL     1      41.703 -16.588   1.899  1.00  0.00     0.077 A 
HETATM   10  C   UNL     1      41.997 -17.565   2.859  1.00  0.00     0.053 A 
HETATM   11  N   UNL     1      42.969 -18.406   2.278  1.00  0.00    -0.237 N 
HETATM   12  N   UNL     1      43.301 -17.959   1.035  1.00  0.00    -0.178 NA
HETATM   13  C   UNL     1      42.541 -16.899   0.817  1.00  0.00     0.158 A 
BRANCH  10  14
HETATM   14  C   UNL     1      41.339 -17.796   4.184  1.00  0.00     0.056 C 
HETATM   15  C   UNL     1      42.064 -17.082   5.319  1.00  0.00     0.011 C 
ENDBRANCH  10  14
BRANCH  11  16
HETATM   16  C   UNL     1      43.612 -19.612   2.728  1.00  0.00     0.058 A 
HETATM   17  C   UNL     1      44.311 -19.731   3.932  1.00  0.00     0.031 A 
HETATM   18  C   UNL     1      44.892 -20.950   4.307  1.00  0.00     0.002 A 
HETATM   19  C   UNL     1      44.789 -22.068   3.487  1.00  0.00     0.000 A 
HETATM   20  C   UNL     1      44.113 -21.969   2.278  1.00  0.00     0.002 A 
HETATM   21  C   UNL     1      43.535 -20.753   1.899  1.00  0.00     0.031 A 
ENDBRANCH  11  16
ENDBRANCH   6   9
ENDBRANCH   1   5
BRANCH   2  22
HETATM   22  C   UNL     1      37.633 -12.741  -0.294  1.00  0.00     0.121 A 
HETATM   23  N   UNL     1      37.161 -12.066  -1.385  1.00  0.00    -0.272 N 
HETATM   24  H   UNL     1      37.479 -12.157  -2.345  1.00  0.00     0.189 HD
HETATM   25  N   UNL     1      36.162 -11.212  -1.113  1.00  0.00    -0.174 NA
HETATM   26  C   UNL     1      35.984 -11.306   0.214  1.00  0.00     0.089 A 
HETATM   27  C   UNL     1      36.888 -12.258   0.763  1.00  0.00     0.071 A 
BRANCH  26  28
HETATM   28  C   UNL     1      34.972 -10.519   0.924  1.00  0.00    -0.005 A 
HETATM   29  C   UNL     1      35.348  -9.577   1.889  1.00  0.00     0.016 A 
HETATM   30  C   UNL     1      34.383  -8.803   2.542  1.00  0.00     0.037 A 
HETATM   31  C   UNL     1      33.027  -8.955   2.248  1.00  0.00     0.068 A 
HETATM   32  C   UNL     1      32.641  -9.903   1.302  1.00  0.00     0.037 A 
HETATM   33  C   UNL     1      33.607 -10.678   0.644  1.00  0.00     0.016 A 
BRANCH  31  34
HETATM   34  O   UNL     1      32.189  -8.132   2.948  1.00  0.00    -0.356 OA
HETATM   35  C   UNL     1      30.821  -8.514   3.017  1.00  0.00     0.210 C 
ENDBRANCH  31  34
ENDBRANCH  26  28
ENDBRANCH   2  22
TORSDOF 7
ENDMDL
MODEL 8
REMARK VINA RESULT:      -8.1      3.520     12.087
REMARK  7 active torsions:
REMARK  status: ('A' for Active; 'I' for Inactive)
REMARK    1  A    between atoms: C_2  and  C_3 
REMARK    2  A    between atoms: N_4  and  C_5 
REMARK    3  A    between atoms: C_13  and  C_14 
REMARK       I    between atoms: C_14  and  N_15 
REMARK    4  A    between atoms: N_15  and  N_16 
REMARK       I    between atoms: N_16  and  C_17 
REMARK    5  A    between atoms: C_17  and  C_18 
REMARK    6  A    between atoms: C_22  and  C_23 
REMARK    7  A    between atoms: C_26  and  O_27 
ROOT
HETATM    1  N   UNL     1      41.669 -12.244   6.744  1.00  0.00    -0.262 N 
HETATM    2  C   UNL     1      41.842 -11.831   5.441  1.00  0.00     0.288 C 
HETATM    3  O   UNL     1      41.681 -10.660   5.102  1.00  0.00    -0.264 OA
HETATM    4  H   UNL     1      41.889 -13.182   7.069  1.00  0.00     0.190 HD
ENDROOT
BRANCH   1   5
HETATM    5  N   UNL     1      41.343 -11.309   7.736  1.00  0.00    -0.263 N 
HETATM    6  C   UNL     1      40.043 -11.290   8.192  1.00  0.00     0.273 C 
HETATM    7  O   UNL     1      39.201 -12.057   7.718  1.00  0.00    -0.266 OA
HETATM    8  H   UNL     1      42.118 -10.864   8.214  1.00  0.00     0.190 HD
BRANCH   6   9
HETATM    9  C   UNL     1      39.711 -10.358   9.259  1.00  0.00     0.077 A 
HETATM   10  C   UNL     1      40.011 -10.333  10.627  1.00  0.00     0.053 A 
HETATM   11  N   UNL     1      39.503  -9.111  11.117  1.00  0.00    -0.237 N 
HETATM   12  N   UNL     1      38.879  -8.424  10.121  1.00  0.00    -0.178 NA
HETATM   13  C   UNL     1      39.020  -9.159   9.031  1.00  0.00     0.158 A 
BRANCH  10  14
HETATM   14  C   UNL     1      40.827 -11.306  11.420  1.00  0.00     0.056 C 
HETATM   15  C   UNL     1      40.099 -11.779  12.674  1.00  0.00     0.011 C 
ENDBRANCH  10  14
BRANCH  11  16
HETATM   16  C   UNL     1      39.557  -8.479  12.408  1.00  0.00     0.058 A 
HETATM   17  C   UNL     1      38.434  -8.109  13.152  1.00  0.00     0.031 A 
HETATM   18  C   UNL     1      38.572  -7.516  14.414  1.00  0.00     0.002 A 
HETATM   19  C   UNL     1      39.833  -7.276  14.952  1.00  0.00     0.000 A 
HETATM   20  C   UNL     1      40.963  -7.621  14.223  1.00  0.00     0.002 A 
HETATM   21  C   UNL     1      40.828  -8.210  12.962  1.00  0.00     0.031 A 
ENDBRANCH  11  16
ENDBRANCH   6   9
ENDBRANCH   1   5
BRANCH   2  22
HETATM   22  C   UNL     1      42.230 -12.868   4.525  1.00  0.00     0.121 A 
HETATM   23  N   UNL     1      42.489 -12.621   3.206  1.00  0.00    -0.272 N 
HETATM   24  H   UNL     1      42.438 -11.725   2.731  1.00  0.00     0.189 HD
HETATM   25  N   UNL     1      42.857 -13.704   2.505  1.00  0.00    -0.174 NA
HETATM   26  C   UNL     1      42.814 -14.713   3.390  1.00  0.00     0.089 A 
HETATM   27  C   UNL     1      42.428 -14.227   4.669  1.00  0.00     0.071 A 
BRANCH  26  28
HETATM   28  C   UNL     1      43.149 -16.092   3.019  1.00  0.00    -0.005 A 
HETATM   29  C   UNL     1      42.842 -17.155   3.876  1.00  0.00     0.016 A 
HETATM   30  C   UNL     1      43.131 -18.473   3.507  1.00  0.00     0.037 A 
HETATM   31  C   UNL     1      43.734 -18.755   2.280  1.00  0.00     0.068 A 
HETATM   32  C   UNL     1      44.060 -17.701   1.427  1.00  0.00     0.037 A 
HETATM   33  C   UNL     1      43.768 -16.380   1.795  1.00  0.00     0.016 A 
BRANCH  31  34
HETATM   34  O   UNL     1      43.953 -20.082   2.037  1.00  0.00    -0.356 OA
HETATM   35  C   UNL     1      44.757 -20.784   2.976  1.00  0.00     0.210 C 
ENDBRANCH  31  34
ENDBRANCH  26  28
ENDBRANCH   2  22
TORSDOF 7
ENDMDL
MODEL 9
REMARK VINA RESULT:      -7.9      8.307     12.752
REMARK  7 active torsions:
REMARK  status: ('A' for Active; 'I' for Inactive)
REMARK    1  A    between atoms: C_2  and  C_3 
REMARK    2  A    between atoms: N_4  and  C_5 
REMARK    3  A    between atoms: C_13  and  C_14 
REMARK       I    between atoms: C_14  and  N_15 
REMARK    4  A    between atoms: N_15  and  N_16 
REMARK       I    between atoms: N_16  and  C_17 
REMARK    5  A    between atoms: C_17  and  C_18 
REMARK    6  A    between atoms: C_22  and  C_23 
REMARK    7  A    between atoms: C_26  and  O_27 
ROOT
HETATM    1  N   UNL     1      39.916 -14.935  -0.244  1.00  0.00    -0.262 N 
HETATM    2  C   UNL     1      39.735 -15.135   1.107  1.00  0.00     0.288 C 
HETATM    3  O   UNL     1      38.683 -14.847   1.673  1.00  0.00    -0.264 OA
HETATM    4  H   UNL     1      40.737 -15.252  -0.753  1.00  0.00     0.190 HD
ENDROOT
BRANCH   1   5
HETATM    5  N   UNL     1      38.865 -14.432  -1.022  1.00  0.00    -0.263 N 
HETATM    6  C   UNL     1      38.936 -14.618  -2.386  1.00  0.00     0.273 C 
HETATM    7  O   UNL     1      39.906 -15.187  -2.891  1.00  0.00    -0.266 OA
HETATM    8  H   UNL     1      38.020 -14.166  -0.530  1.00  0.00     0.190 HD
BRANCH   6   9
HETATM    9  C   UNL     1      37.823 -14.146  -3.195  1.00  0.00     0.077 A 
HETATM   10  C   UNL     1      37.217 -12.891  -3.340  1.00  0.00     0.053 A 
HETATM   11  N   UNL     1      36.254 -13.036  -4.360  1.00  0.00    -0.237 N 
HETATM   12  N   UNL     1      36.224 -14.323  -4.804  1.00  0.00    -0.178 NA
HETATM   13  C   UNL     1      37.160 -14.963  -4.124  1.00  0.00     0.158 A 
BRANCH  10  14
HETATM   14  C   UNL     1      37.581 -11.599  -2.676  1.00  0.00     0.056 C 
HETATM   15  C   UNL     1      36.763 -11.351  -1.413  1.00  0.00     0.011 C 
ENDBRANCH  10  14
BRANCH  11  16
HETATM   16  C   UNL     1      35.367 -12.105  -5.006  1.00  0.00     0.058 A 
HETATM   17  C   UNL     1      34.003 -11.993  -4.728  1.00  0.00     0.031 A 
HETATM   18  C   UNL     1      33.212 -11.043  -5.388  1.00  0.00     0.002 A 
HETATM   19  C   UNL     1      33.767 -10.194  -6.339  1.00  0.00     0.000 A 
HETATM   20  C   UNL     1      35.118 -10.299  -6.644  1.00  0.00     0.002 A 
HETATM   21  C   UNL     1      35.909 -11.248  -5.989  1.00  0.00     0.031 A 
ENDBRANCH  11  16
ENDBRANCH   6   9
ENDBRANCH   1   5
BRANCH   2  22
HETATM   22  C   UNL     1      40.863 -15.708   1.789  1.00  0.00     0.121 A 
HETATM   23  N   UNL     1      41.902 -14.949   2.251  1.00  0.00    -0.272 N 
HETATM   24  H   UNL     1      42.007 -13.942   2.172  1.00  0.00     0.189 HD
HETATM   25  N   UNL     1      42.858 -15.651   2.880  1.00  0.00    -0.174 NA
HETATM   26  C   UNL     1      42.448 -16.927   2.807  1.00  0.00     0.089 A 
HETATM   27  C   UNL     1      41.198 -17.002   2.132  1.00  0.00     0.071 A 
BRANCH  26  28
HETATM   28  C   UNL     1      43.224 -18.031   3.382  1.00  0.00    -0.005 A 
HETATM   29  C   UNL     1      43.638 -19.102   2.582  1.00  0.00     0.016 A 
HETATM   30  C   UNL     1      44.407 -20.138   3.124  1.00  0.00     0.037 A 
HETATM   31  C   UNL     1      44.774 -20.126   4.471  1.00  0.00     0.068 A 
HETATM   32  C   UNL     1      44.351 -19.072   5.279  1.00  0.00     0.037 A 
HETATM   33  C   UNL     1      43.582 -18.032   4.737  1.00  0.00     0.016 A 
BRANCH  31  34
HETATM   34  O   UNL     1      45.533 -21.190   4.870  1.00  0.00    -0.356 OA
HETATM   35  C   UNL     1      44.891 -22.459   4.912  1.00  0.00     0.210 C 
ENDBRANCH  31  34
ENDBRANCH  26  28
ENDBRANCH   2  22
TORSDOF 7
ENDMDL
MODEL 10
REMARK VINA RESULT:      -7.6      4.815      5.939
REMARK  7 active torsions:
REMARK  status: ('A' for Active; 'I' for Inactive)
REMARK    1  A    between atoms: C_2  and  C_3 
REMARK    2  A    between atoms: N_4  and  C_5 
REMARK    3  A    between atoms: C_13  and  C_14 
REMARK       I    between atoms: C_14  and  N_15 
REMARK    4  A    between atoms: N_15  and  N_16 
REMARK       I    between atoms: N_16  and  C_17 
REMARK    5  A    between atoms: C_17  and  C_18 
REMARK    6  A    between atoms: C_22  and  C_23 
REMARK    7  A    between atoms: C_26  and  O_27 
ROOT
HETATM    1  N   UNL     1      40.932 -12.512   5.781  1.00  0.00    -0.262 N 
HETATM    2  C   UNL     1      41.305 -11.272   6.252  1.00  0.00     0.288 C 
HETATM    3  O   UNL     1      41.762 -10.404   5.511  1.00  0.00    -0.264 OA
HETATM    4  H   UNL     1      40.463 -13.211   6.352  1.00  0.00     0.190 HD
ENDROOT
BRANCH   1   5
HETATM    5  N   UNL     1      41.027 -12.796   4.412  1.00  0.00    -0.263 N 
HETATM    6  C   UNL     1      39.910 -12.574   3.636  1.00  0.00     0.273 C 
HETATM    7  O   UNL     1      38.865 -12.161   4.145  1.00  0.00    -0.266 OA
HETATM    8  H   UNL     1      41.959 -12.931   4.038  1.00  0.00     0.190 HD
BRANCH   6   9
HETATM    9  C   UNL     1      40.017 -12.817   2.206  1.00  0.00     0.077 A 
HETATM   10  C   UNL     1      39.735 -13.932   1.407  1.00  0.00     0.053 A 
HETATM   11  N   UNL     1      39.935 -13.519   0.073  1.00  0.00    -0.237 N 
HETATM   12  N   UNL     1      40.362 -12.227   0.035  1.00  0.00    -0.178 NA
HETATM   13  C   UNL     1      40.393 -11.819   1.293  1.00  0.00     0.158 A 
BRANCH  10  14
HETATM   14  C   UNL     1      39.190 -15.263   1.824  1.00  0.00     0.056 C 
HETATM   15  C   UNL     1      40.295 -16.286   2.067  1.00  0.00     0.011 C 
ENDBRANCH  10  14
BRANCH  11  16
HETATM   16  C   UNL     1      39.744 -14.177  -1.193  1.00  0.00     0.058 A 
HETATM   17  C   UNL     1      38.607 -14.033  -1.992  1.00  0.00     0.031 A 
HETATM   18  C   UNL     1      38.507 -14.694  -3.224  1.00  0.00     0.002 A 
HETATM   19  C   UNL     1      39.537 -15.512  -3.676  1.00  0.00     0.000 A 
HETATM   20  C   UNL     1      40.669 -15.683  -2.890  1.00  0.00     0.002 A 
HETATM   21  C   UNL     1      40.770 -15.028  -1.659  1.00  0.00     0.031 A 
ENDBRANCH  11  16
ENDBRANCH   6   9
ENDBRANCH   1   5
BRANCH   2  22
HETATM   22  C   UNL     1      41.109 -11.078   7.663  1.00  0.00     0.121 A 
HETATM   23  N   UNL     1      39.925 -11.364   8.283  1.00  0.00    -0.272 N 
HETATM   24  H   UNL     1      39.080 -11.725   7.852  1.00  0.00     0.189 HD
HETATM   25  N   UNL     1      39.930 -11.140   9.606  1.00  0.00    -0.174 NA
HETATM   26  C   UNL     1      41.157 -10.661   9.867  1.00  0.00     0.089 A 
HETATM   27  C   UNL     1      41.927 -10.611   8.671  1.00  0.00     0.071 A 
BRANCH  26  28
HETATM   28  C   UNL     1      41.577 -10.282  11.219  1.00  0.00    -0.005 A 
HETATM   29  C   UNL     1      42.932 -10.278  11.571  1.00  0.00     0.016 A 
HETATM   30  C   UNL     1      43.334  -9.884  12.851  1.00  0.00     0.037 A 
HETATM   31  C   UNL     1      42.395  -9.490  13.805  1.00  0.00     0.068 A 
HETATM   32  C   UNL     1      41.042  -9.507  13.471  1.00  0.00     0.037 A 
HETATM   33  C   UNL     1      40.637  -9.900  12.186  1.00  0.00     0.016 A 
BRANCH  31  34
HETATM   34  O   UNL     1      42.919  -9.120  15.012  1.00  0.00    -0.356 OA
HETATM   35  C   UNL     1      42.017  -9.045  16.109  1.00  0.00     0.210 C 
ENDBRANCH  31  34
ENDBRANCH  26  28
ENDBRANCH   2  22
TORSDOF 7
ENDMDL
