MODEL 1
REMARK VINA RESULT:      -8.8      0.000      0.000
REMARK  7 active torsions:
REMARK  status: ('A' for Active; 'I' for Inactive)
REMARK    1  A    between atoms: O_2  and  C_3 
REMARK    2  A    between atoms: C_4  and  O_5 
REMARK    3  A    between atoms: C_7  and  C_8 
REMARK    4  A    between atoms: N_9  and  N_10 
REMARK    5  A    between atoms: C_21  and  C_22 
REMARK       I    between atoms: C_22  and  N_23 
REMARK    6  A    between atoms: N_23  and  C_24 
REMARK    7  A    between atoms: C_31  and  N_32 
ROOT
HETATM    1  N   UNL     1      41.315 -15.941   1.991  1.00  0.00    -0.197 N 
HETATM    2  C   UNL     1      40.753 -14.953   2.787  1.00  0.00     0.183 A 
HETATM    3  C   UNL     1      40.170 -14.019   1.941  1.00  0.00     0.125 A 
HETATM    4  N   UNL     1      39.650 -12.854   2.410  1.00  0.00    -0.242 NA
HETATM    5  C   UNL     1      39.685 -12.728   3.745  1.00  0.00     0.086 A 
HETATM    6  C   UNL     1      40.255 -13.710   4.599  1.00  0.00     0.088 A 
HETATM    7  N   UNL     1      40.827 -14.837   4.136  1.00  0.00    -0.225 NA
HETATM    8  C   UNL     1      39.130 -11.585   4.306  1.00  0.00     0.034 A 
HETATM    9  C   UNL     1      39.105 -11.386   5.687  1.00  0.00     0.002 A 
HETATM   10  C   UNL     1      39.647 -12.350   6.525  1.00  0.00     0.002 A 
HETATM   11  C   UNL     1      40.219 -13.500   5.973  1.00  0.00     0.034 A 
HETATM   12  C   UNL     1      40.283 -14.481   0.610  1.00  0.00     0.110 C 
HETATM   13  C   UNL     1      40.837 -15.752   0.681  1.00  0.00     0.143 C 
ENDROOT
BRANCH   1  14
HETATM   14  N   UNL     1      42.479 -16.605   2.309  1.00  0.00    -0.176 NA
HETATM   15  C   UNL     1      42.316 -17.677   3.013  1.00  0.00     0.153 C 
BRANCH  15  16
HETATM   16  C   UNL     1      43.225 -18.830   2.854  1.00  0.00     0.019 A 
HETATM   17  C   UNL     1      44.060 -19.212   3.908  1.00  0.00     0.113 A 
HETATM   18  C   UNL     1      44.634 -20.492   3.905  1.00  0.00     0.102 A 
HETATM   19  C   UNL     1      44.470 -21.327   2.796  1.00  0.00     0.040 A 
HETATM   20  C   UNL     1      43.691 -20.918   1.716  1.00  0.00     0.004 A 
HETATM   21  C   UNL     1      43.056 -19.677   1.749  1.00  0.00     0.016 A 
BRANCH  17  22
HETATM   22  O   UNL     1      44.278 -18.351   4.955  1.00  0.00    -0.352 OA
HETATM   23  C   UNL     1      43.435 -18.727   6.049  1.00  0.00     0.210 C 
ENDBRANCH  17  22
BRANCH  18  24
HETATM   24  O   UNL     1      45.391 -21.003   4.927  1.00  0.00    -0.353 OA
HETATM   25  C   UNL     1      45.057 -22.354   5.248  1.00  0.00     0.210 C 
ENDBRANCH  18  24
ENDBRANCH  15  16
ENDBRANCH   1  14
BRANCH  13  26
HETATM   26  N   UNL     1      41.089 -16.601  -0.358  1.00  0.00    -0.383 N 
HETATM   27  H   UNL     1      40.663 -16.474  -1.270  1.00  0.00     0.157 HD
HETATM   28  H   UNL     1      42.054 -16.940  -0.447  1.00  0.00     0.157 HD
ENDBRANCH  13  26
BRANCH  12  29
HETATM   29  C   UNL     1      39.975 -13.788  -0.632  1.00  0.00     0.258 C 
HETATM   30  N   UNL     1      40.368 -12.466  -0.657  1.00  0.00    -0.352 N 
HETATM   31  H   UNL     1      40.793 -12.107   0.194  1.00  0.00     0.163 HD
HETATM   32  O   UNL     1      39.504 -14.363  -1.610  1.00  0.00    -0.267 OA
BRANCH  30  33
HETATM   33  C   UNL     1      40.696 -11.810  -1.915  1.00  0.00     0.084 C 
HETATM   34  C   UNL     1      40.505 -10.295  -1.807  1.00  0.00     0.025 C 
HETATM   35  C   UNL     1      41.568  -9.622  -0.941  1.00  0.00     0.002 C 
HETATM   36  C   UNL     1      42.980  -9.977  -1.397  1.00  0.00     0.000 C 
HETATM   37  C   UNL     1      43.188 -11.486  -1.468  1.00  0.00     0.002 C 
HETATM   38  C   UNL     1      42.132 -12.158  -2.347  1.00  0.00     0.025 C 
ENDBRANCH  30  33
ENDBRANCH  12  29
TORSDOF 7
ENDMDL
MODEL 2
REMARK VINA RESULT:      -8.7      1.625      1.900
REMARK  7 active torsions:
REMARK  status: ('A' for Active; 'I' for Inactive)
REMARK    1  A    between atoms: O_2  and  C_3 
REMARK    2  A    between atoms: C_4  and  O_5 
REMARK    3  A    between atoms: C_7  and  C_8 
REMARK    4  A    between atoms: N_9  and  N_10 
REMARK    5  A    between atoms: C_21  and  C_22 
REMARK       I    between atoms: C_22  and  N_23 
REMARK    6  A    between atoms: N_23  and  C_24 
REMARK    7  A    between atoms: C_31  and  N_32 
ROOT
HETATM    1  N   UNL     1      40.951 -15.539   3.238  1.00  0.00    -0.197 N 
HETATM    2  C   UNL     1      40.577 -14.359   3.865  1.00  0.00     0.183 A 
HETATM    3  C   UNL     1      39.711 -13.690   3.010  1.00  0.00     0.125 A 
HETATM    4  N   UNL     1      39.270 -12.433   3.277  1.00  0.00    -0.242 NA
HETATM    5  C   UNL     1      39.680 -11.938   4.454  1.00  0.00     0.086 A 
HETATM    6  C   UNL     1      40.540 -12.651   5.333  1.00  0.00     0.088 A 
HETATM    7  N   UNL     1      41.030 -13.871   5.047  1.00  0.00    -0.225 NA
HETATM    8  C   UNL     1      39.234 -10.676   4.822  1.00  0.00     0.034 A 
HETATM    9  C   UNL     1      39.596 -10.098   6.039  1.00  0.00     0.002 A 
HETATM   10  C   UNL     1      40.423 -10.796   6.907  1.00  0.00     0.002 A 
HETATM   11  C   UNL     1      40.889 -12.064   6.545  1.00  0.00     0.034 A 
HETATM   12  C   UNL     1      39.465 -14.508   1.884  1.00  0.00     0.110 C 
HETATM   13  C   UNL     1      40.102 -15.717   2.130  1.00  0.00     0.143 C 
ENDROOT
BRANCH   1  14
HETATM   14  N   UNL     1      42.200 -16.105   3.364  1.00  0.00    -0.176 NA
HETATM   15  C   UNL     1      42.226 -17.223   4.012  1.00  0.00     0.153 C 
BRANCH  15  16
HETATM   16  C   UNL     1      43.204 -18.275   3.667  1.00  0.00     0.019 A 
HETATM   17  C   UNL     1      43.823 -19.013   4.679  1.00  0.00     0.113 A 
HETATM   18  C   UNL     1      44.448 -20.229   4.363  1.00  0.00     0.102 A 
HETATM   19  C   UNL     1      44.556 -20.631   3.029  1.00  0.00     0.040 A 
HETATM   20  C   UNL     1      43.996 -19.859   2.013  1.00  0.00     0.004 A 
HETATM   21  C   UNL     1      43.307 -18.689   2.331  1.00  0.00     0.016 A 
BRANCH  17  22
HETATM   22  O   UNL     1      43.779 -18.566   5.976  1.00  0.00    -0.352 OA
HETATM   23  C   UNL     1      45.010 -17.901   6.280  1.00  0.00     0.210 C 
ENDBRANCH  17  22
BRANCH  18  24
HETATM   24  O   UNL     1      45.003 -21.075   5.287  1.00  0.00    -0.353 OA
HETATM   25  C   UNL     1      44.789 -22.454   4.981  1.00  0.00     0.210 C 
ENDBRANCH  18  24
ENDBRANCH  15  16
ENDBRANCH   1  14
BRANCH  13  26
HETATM   26  N   UNL     1      40.101 -16.827   1.335  1.00  0.00    -0.383 N 
HETATM   27  H   UNL     1      40.956 -17.205   0.941  1.00  0.00     0.157 HD
HETATM   28  H   UNL     1      39.455 -17.579   1.600  1.00  0.00     0.157 HD
ENDBRANCH  13  26
BRANCH  12  29
HETATM   29  C   UNL     1      38.764 -14.187   0.650  1.00  0.00     0.258 C 
HETATM   30  N   UNL     1      39.592 -13.926  -0.423  1.00  0.00    -0.352 N 
HETATM   31  H   UNL     1      40.591 -13.950  -0.235  1.00  0.00     0.163 HD
HETATM   32  O   UNL     1      37.541 -14.249   0.550  1.00  0.00    -0.267 OA
BRANCH  30  33
HETATM   33  C   UNL     1      39.144 -14.174  -1.786  1.00  0.00     0.084 C 
HETATM   34  C   UNL     1      38.818 -12.860  -2.500  1.00  0.00     0.025 C 
HETATM   35  C   UNL     1      40.062 -12.041  -2.837  1.00  0.00     0.002 C 
HETATM   36  C   UNL     1      41.088 -12.860  -3.614  1.00  0.00     0.000 C 
HETATM   37  C   UNL     1      41.447 -14.152  -2.888  1.00  0.00     0.002 C 
HETATM   38  C   UNL     1      40.202 -14.979  -2.563  1.00  0.00     0.025 C 
ENDBRANCH  30  33
ENDBRANCH  12  29
TORSDOF 7
ENDMDL
MODEL 3
REMARK VINA RESULT:      -8.5      2.136      7.596
REMARK  7 active torsions:
REMARK  status: ('A' for Active; 'I' for Inactive)
REMARK    1  A    between atoms: O_2  and  C_3 
REMARK    2  A    between atoms: C_4  and  O_5 
REMARK    3  A    between atoms: C_7  and  C_8 
REMARK    4  A    between atoms: N_9  and  N_10 
REMARK    5  A    between atoms: C_21  and  C_22 
REMARK       I    between atoms: C_22  and  N_23 
REMARK    6  A    between atoms: N_23  and  C_24 
REMARK    7  A    between atoms: C_31  and  N_32 
ROOT
HETATM    1  N   UNL     1      40.773 -16.385   1.811  1.00  0.00    -0.197 N 
HETATM    2  C   UNL     1      41.628 -17.342   2.338  1.00  0.00     0.183 A 
HETATM    3  C   UNL     1      41.826 -17.031   3.676  1.00  0.00     0.125 A 
HETATM    4  N   UNL     1      42.725 -17.704   4.443  1.00  0.00    -0.242 NA
HETATM    5  C   UNL     1      43.334 -18.722   3.820  1.00  0.00     0.086 A 
HETATM    6  C   UNL     1      43.095 -19.048   2.457  1.00  0.00     0.088 A 
HETATM    7  N   UNL     1      42.253 -18.347   1.675  1.00  0.00    -0.225 NA
HETATM    8  C   UNL     1      44.233 -19.489   4.549  1.00  0.00     0.034 A 
HETATM    9  C   UNL     1      44.893 -20.580   3.982  1.00  0.00     0.002 A 
HETATM   10  C   UNL     1      44.651 -20.910   2.657  1.00  0.00     0.002 A 
HETATM   11  C   UNL     1      43.757 -20.140   1.907  1.00  0.00     0.034 A 
HETATM   12  C   UNL     1      41.007 -15.929   4.011  1.00  0.00     0.110 C 
HETATM   13  C   UNL     1      40.235 -15.658   2.889  1.00  0.00     0.143 C 
ENDROOT
BRANCH   1  14
HETATM   14  N   UNL     1      40.858 -15.917   0.518  1.00  0.00    -0.176 NA
HETATM   15  C   UNL     1      40.463 -14.698   0.356  1.00  0.00     0.153 C 
BRANCH  15  16
HETATM   16  C   UNL     1      41.090 -13.828  -0.661  1.00  0.00     0.019 A 
HETATM   17  C   UNL     1      41.864 -12.734  -0.263  1.00  0.00     0.113 A 
HETATM   18  C   UNL     1      42.746 -12.143  -1.180  1.00  0.00     0.102 A 
HETATM   19  C   UNL     1      42.756 -12.568  -2.511  1.00  0.00     0.040 A 
HETATM   20  C   UNL     1      41.935 -13.616  -2.922  1.00  0.00     0.004 A 
HETATM   21  C   UNL     1      41.113 -14.257  -1.996  1.00  0.00     0.016 A 
BRANCH  17  22
HETATM   22  O   UNL     1      41.786 -12.274   1.028  1.00  0.00    -0.352 OA
HETATM   23  C   UNL     1      40.872 -11.173   1.074  1.00  0.00     0.210 C 
ENDBRANCH  17  22
BRANCH  18  24
HETATM   24  O   UNL     1      43.615 -11.128  -0.872  1.00  0.00    -0.353 OA
HETATM   25  C   UNL     1      43.398  -9.951  -1.653  1.00  0.00     0.210 C 
ENDBRANCH  18  24
ENDBRANCH  15  16
ENDBRANCH   1  14
BRANCH  13  26
HETATM   26  N   UNL     1      39.268 -14.702   2.764  1.00  0.00    -0.383 N 
HETATM   27  H   UNL     1      38.391 -14.887   2.289  1.00  0.00     0.157 HD
HETATM   28  H   UNL     1      39.127 -14.086   3.573  1.00  0.00     0.157 HD
ENDBRANCH  13  26
BRANCH  12  29
HETATM   29  C   UNL     1      40.982 -15.140   5.234  1.00  0.00     0.258 C 
HETATM   30  N   UNL     1      41.114 -13.781   5.036  1.00  0.00    -0.352 N 
HETATM   31  H   UNL     1      41.250 -13.478   4.075  1.00  0.00     0.163 HD
HETATM   32  O   UNL     1      40.754 -15.636   6.335  1.00  0.00    -0.267 OA
BRANCH  30  33
HETATM   33  C   UNL     1      40.540 -12.832   5.979  1.00  0.00     0.084 C 
HETATM   34  C   UNL     1      41.395 -11.565   6.067  1.00  0.00     0.025 C 
HETATM   35  C   UNL     1      41.299 -10.695   4.816  1.00  0.00     0.002 C 
HETATM   36  C   UNL     1      39.852 -10.370   4.459  1.00  0.00     0.000 C 
HETATM   37  C   UNL     1      39.005 -11.631   4.332  1.00  0.00     0.002 C 
HETATM   38  C   UNL     1      39.089 -12.496   5.590  1.00  0.00     0.025 C 
ENDBRANCH  30  33
ENDBRANCH  12  29
TORSDOF 7
ENDMDL
MODEL 4
REMARK VINA RESULT:      -8.4      1.638      2.111
REMARK  7 active torsions:
REMARK  status: ('A' for Active; 'I' for Inactive)
REMARK    1  A    between atoms: O_2  and  C_3 
REMARK    2  A    between atoms: C_4  and  O_5 
REMARK    3  A    between atoms: C_7  and  C_8 
REMARK    4  A    between atoms: N_9  and  N_10 
REMARK    5  A    between atoms: C_21  and  C_22 
REMARK       I    between atoms: C_22  and  N_23 
REMARK    6  A    between atoms: N_23  and  C_24 
REMARK    7  A    between atoms: C_31  and  N_32 
ROOT
HETATM    1  N   UNL     1      40.958 -15.511   2.341  1.00  0.00    -0.197 N 
HETATM    2  C   UNL     1      40.245 -14.322   2.401  1.00  0.00     0.183 A 
HETATM    3  C   UNL     1      40.042 -13.893   1.097  1.00  0.00     0.125 A 
HETATM    4  N   UNL     1      39.489 -12.682   0.819  1.00  0.00    -0.242 NA
HETATM    5  C   UNL     1      39.098 -11.989   1.898  1.00  0.00     0.086 A 
HETATM    6  C   UNL     1      39.283 -12.459   3.226  1.00  0.00     0.088 A 
HETATM    7  N   UNL     1      39.886 -13.629   3.510  1.00  0.00    -0.225 NA
HETATM    8  C   UNL     1      38.481 -10.762   1.695  1.00  0.00     0.034 A 
HETATM    9  C   UNL     1      38.024  -9.988   2.763  1.00  0.00     0.002 A 
HETATM   10  C   UNL     1      38.189 -10.451   4.061  1.00  0.00     0.002 A 
HETATM   11  C   UNL     1      38.819 -11.679   4.280  1.00  0.00     0.034 A 
HETATM   12  C   UNL     1      40.545 -14.875   0.213  1.00  0.00     0.110 C 
HETATM   13  C   UNL     1      40.947 -15.945   1.002  1.00  0.00     0.143 C 
ENDROOT
BRANCH   1  14
HETATM   14  N   UNL     1      41.901 -15.882   3.274  1.00  0.00    -0.176 NA
HETATM   15  C   UNL     1      41.657 -16.999   3.876  1.00  0.00     0.153 C 
BRANCH  15  16
HETATM   16  C   UNL     1      42.760 -17.879   4.313  1.00  0.00     0.019 A 
HETATM   17  C   UNL     1      42.901 -18.205   5.664  1.00  0.00     0.113 A 
HETATM   18  C   UNL     1      43.691 -19.306   6.030  1.00  0.00     0.102 A 
HETATM   19  C   UNL     1      44.426 -19.990   5.059  1.00  0.00     0.040 A 
HETATM   20  C   UNL     1      44.336 -19.621   3.718  1.00  0.00     0.004 A 
HETATM   21  C   UNL     1      43.493 -18.576   3.341  1.00  0.00     0.016 A 
BRANCH  17  22
HETATM   22  O   UNL     1      42.237 -17.475   6.617  1.00  0.00    -0.352 OA
HETATM   23  C   UNL     1      43.115 -16.466   7.127  1.00  0.00     0.210 C 
ENDBRANCH  17  22
BRANCH  18  24
HETATM   24  O   UNL     1      43.824 -19.769   7.313  1.00  0.00    -0.353 OA
HETATM   25  C   UNL     1      43.514 -21.158   7.441  1.00  0.00     0.210 C 
ENDBRANCH  18  24
ENDBRANCH  15  16
ENDBRANCH   1  14
BRANCH  13  26
HETATM   26  N   UNL     1      41.457 -17.137   0.577  1.00  0.00    -0.383 N 
HETATM   27  H   UNL     1      41.259 -17.506  -0.347  1.00  0.00     0.157 HD
HETATM   28  H   UNL     1      42.421 -17.349   0.859  1.00  0.00     0.157 HD
ENDBRANCH  13  26
BRANCH  12  29
HETATM   29  C   UNL     1      40.711 -14.813  -1.231  1.00  0.00     0.258 C 
HETATM   30  N   UNL     1      40.702 -13.534  -1.750  1.00  0.00    -0.352 N 
HETATM   31  H   UNL     1      40.546 -12.780  -1.085  1.00  0.00     0.163 HD
HETATM   32  O   UNL     1      40.948 -15.808  -1.912  1.00  0.00    -0.267 OA
BRANCH  30  33
HETATM   33  C   UNL     1      41.415 -13.224  -2.981  1.00  0.00     0.084 C 
HETATM   34  C   UNL     1      40.691 -12.132  -3.771  1.00  0.00     0.025 C 
HETATM   35  C   UNL     1      40.800 -10.754  -3.118  1.00  0.00     0.002 C 
HETATM   36  C   UNL     1      42.250 -10.374  -2.835  1.00  0.00     0.000 C 
HETATM   37  C   UNL     1      42.965 -11.441  -2.014  1.00  0.00     0.002 C 
HETATM   38  C   UNL     1      42.868 -12.817  -2.675  1.00  0.00     0.025 C 
ENDBRANCH  30  33
ENDBRANCH  12  29
TORSDOF 7
ENDMDL
MODEL 5
REMARK VINA RESULT:      -8.3      2.531      5.655
REMARK  7 active torsions:
REMARK  status: ('A' for Active; 'I' for Inactive)
REMARK    1  A    between atoms: O_2  and  C_3 
REMARK    2  A    between atoms: C_4  and  O_5 
REMARK    3  A    between atoms: C_7  and  C_8 
REMARK    4  A    between atoms: N_9  and  N_10 
REMARK    5  A    between atoms: C_21  and  C_22 
REMARK       I    between atoms: C_22  and  N_23 
REMARK    6  A    between atoms: N_23  and  C_24 
REMARK    7  A    between atoms: C_31  and  N_32 
ROOT
HETATM    1  N   UNL     1      42.908 -14.702   4.303  1.00  0.00    -0.197 N 
HETATM    2  C   UNL     1      42.087 -14.431   3.217  1.00  0.00     0.183 A 
HETATM    3  C   UNL     1      40.970 -13.762   3.698  1.00  0.00     0.125 A 
HETATM    4  N   UNL     1      39.908 -13.474   2.900  1.00  0.00    -0.242 NA
HETATM    5  C   UNL     1      40.068 -13.824   1.616  1.00  0.00     0.086 A 
HETATM    6  C   UNL     1      41.233 -14.479   1.133  1.00  0.00     0.088 A 
HETATM    7  N   UNL     1      42.262 -14.822   1.931  1.00  0.00    -0.225 NA
HETATM    8  C   UNL     1      39.046 -13.521   0.726  1.00  0.00     0.034 A 
HETATM    9  C   UNL     1      39.143 -13.830  -0.632  1.00  0.00     0.002 A 
HETATM   10  C   UNL     1      40.285 -14.457  -1.109  1.00  0.00     0.002 A 
HETATM   11  C   UNL     1      41.317 -14.777  -0.223  1.00  0.00     0.034 A 
HETATM   12  C   UNL     1      41.145 -13.524   5.081  1.00  0.00     0.110 C 
HETATM   13  C   UNL     1      42.426 -13.958   5.395  1.00  0.00     0.143 C 
ENDROOT
BRANCH   1  14
HETATM   14  N   UNL     1      43.676 -15.840   4.411  1.00  0.00    -0.176 NA
HETATM   15  C   UNL     1      43.015 -16.949   4.341  1.00  0.00     0.153 C 
BRANCH  15  16
HETATM   16  C   UNL     1      43.622 -18.155   3.742  1.00  0.00     0.019 A 
HETATM   17  C   UNL     1      44.346 -19.044   4.541  1.00  0.00     0.113 A 
HETATM   18  C   UNL     1      44.598 -20.342   4.074  1.00  0.00     0.102 A 
HETATM   19  C   UNL     1      44.235 -20.699   2.773  1.00  0.00     0.040 A 
HETATM   20  C   UNL     1      43.572 -19.788   1.953  1.00  0.00     0.004 A 
HETATM   21  C   UNL     1      43.251 -18.522   2.440  1.00  0.00     0.016 A 
BRANCH  17  22
HETATM   22  O   UNL     1      44.768 -18.655   5.788  1.00  0.00    -0.352 OA
HETATM   23  C   UNL     1      43.867 -19.182   6.768  1.00  0.00     0.210 C 
ENDBRANCH  17  22
BRANCH  18  24
HETATM   24  O   UNL     1      45.216 -21.321   4.809  1.00  0.00    -0.353 OA
HETATM   25  C   UNL     1      44.748 -22.634   4.496  1.00  0.00     0.210 C 
ENDBRANCH  18  24
ENDBRANCH  15  16
ENDBRANCH   1  14
BRANCH  13  26
HETATM   26  N   UNL     1      43.046 -13.886   6.609  1.00  0.00    -0.383 N 
HETATM   27  H   UNL     1      43.875 -13.319   6.754  1.00  0.00     0.157 HD
HETATM   28  H   UNL     1      42.436 -13.864   7.434  1.00  0.00     0.157 HD
ENDBRANCH  13  26
BRANCH  12  29
HETATM   29  C   UNL     1      40.192 -13.007   6.052  1.00  0.00     0.258 C 
HETATM   30  N   UNL     1      40.644 -11.918   6.768  1.00  0.00    -0.352 N 
HETATM   31  H   UNL     1      41.595 -11.615   6.573  1.00  0.00     0.163 HD
HETATM   32  O   UNL     1      39.045 -13.439   6.146  1.00  0.00    -0.267 OA
BRANCH  30  33
HETATM   33  C   UNL     1      39.709 -10.938   7.303  1.00  0.00     0.084 C 
HETATM   34  C   UNL     1      39.553 -11.103   8.816  1.00  0.00     0.025 C 
HETATM   35  C   UNL     1      40.789 -10.654   9.595  1.00  0.00     0.002 C 
HETATM   36  C   UNL     1      41.208  -9.234   9.226  1.00  0.00     0.000 C 
HETATM   37  C   UNL     1      41.403  -9.075   7.722  1.00  0.00     0.002 C 
HETATM   38  C   UNL     1      40.161  -9.511   6.944  1.00  0.00     0.025 C 
ENDBRANCH  30  33
ENDBRANCH  12  29
TORSDOF 7
ENDMDL
MODEL 6
REMARK VINA RESULT:      -8.2      2.936      5.154
REMARK  7 active torsions:
REMARK  status: ('A' for Active; 'I' for Inactive)
REMARK    1  A    between atoms: O_2  and  C_3 
REMARK    2  A    between atoms: C_4  and  O_5 
REMARK    3  A    between atoms: C_7  and  C_8 
REMARK    4  A    between atoms: N_9  and  N_10 
REMARK    5  A    between atoms: C_21  and  C_22 
REMARK       I    between atoms: C_22  and  N_23 
REMARK    6  A    between atoms: N_23  and  C_24 
REMARK    7  A    between atoms: C_31  and  N_32 
ROOT
HETATM    1  N   UNL     1      41.922 -13.105   1.481  1.00  0.00    -0.197 N 
HETATM    2  C   UNL     1      41.219 -13.491   0.348  1.00  0.00     0.183 A 
HETATM    3  C   UNL     1      39.955 -12.922   0.429  1.00  0.00     0.125 A 
HETATM    4  N   UNL     1      38.976 -13.221  -0.465  1.00  0.00    -0.242 NA
HETATM    5  C   UNL     1      39.360 -14.041  -1.454  1.00  0.00     0.086 A 
HETATM    6  C   UNL     1      40.668 -14.588  -1.541  1.00  0.00     0.088 A 
HETATM    7  N   UNL     1      41.624 -14.345  -0.624  1.00  0.00    -0.225 NA
HETATM    8  C   UNL     1      38.429 -14.357  -2.436  1.00  0.00     0.034 A 
HETATM    9  C   UNL     1      38.754 -15.185  -3.511  1.00  0.00     0.002 A 
HETATM   10  C   UNL     1      40.034 -15.709  -3.607  1.00  0.00     0.002 A 
HETATM   11  C   UNL     1      40.978 -15.408  -2.620  1.00  0.00     0.034 A 
HETATM   12  C   UNL     1      39.905 -12.092   1.572  1.00  0.00     0.110 C 
HETATM   13  C   UNL     1      41.186 -12.083   2.108  1.00  0.00     0.143 C 
ENDROOT
BRANCH   1  14
HETATM   14  N   UNL     1      42.841 -13.909   2.118  1.00  0.00    -0.176 NA
HETATM   15  C   UNL     1      42.335 -14.914   2.752  1.00  0.00     0.153 C 
BRANCH  15  16
HETATM   16  C   UNL     1      43.073 -16.189   2.862  1.00  0.00     0.019 A 
HETATM   17  C   UNL     1      43.028 -16.922   4.051  1.00  0.00     0.113 A 
HETATM   18  C   UNL     1      43.403 -18.274   4.042  1.00  0.00     0.102 A 
HETATM   19  C   UNL     1      43.932 -18.844   2.882  1.00  0.00     0.040 A 
HETATM   20  C   UNL     1      44.039 -18.092   1.714  1.00  0.00     0.004 A 
HETATM   21  C   UNL     1      43.596 -16.770   1.698  1.00  0.00     0.016 A 
BRANCH  17  22
HETATM   22  O   UNL     1      42.581 -16.329   5.205  1.00  0.00    -0.352 OA
HETATM   23  C   UNL     1      43.709 -15.881   5.965  1.00  0.00     0.210 C 
ENDBRANCH  17  22
BRANCH  18  24
HETATM   24  O   UNL     1      43.311 -19.109   5.126  1.00  0.00    -0.353 OA
HETATM   25  C   UNL     1      44.504 -19.861   5.356  1.00  0.00     0.210 C 
ENDBRANCH  18  24
ENDBRANCH  15  16
ENDBRANCH   1  14
BRANCH  13  26
HETATM   26  N   UNL     1      41.621 -11.380   3.195  1.00  0.00    -0.383 N 
HETATM   27  H   UNL     1      41.796 -11.828   4.088  1.00  0.00     0.157 HD
HETATM   28  H   UNL     1      42.306 -10.637   3.015  1.00  0.00     0.157 HD
ENDBRANCH  13  26
BRANCH  12  29
HETATM   29  C   UNL     1      38.762 -11.418   2.168  1.00  0.00     0.258 C 
HETATM   30  N   UNL     1      38.010 -10.678   1.278  1.00  0.00    -0.352 N 
HETATM   31  H   UNL     1      38.348 -10.651   0.319  1.00  0.00     0.163 HD
HETATM   32  O   UNL     1      38.435 -11.583   3.341  1.00  0.00    -0.267 OA
BRANCH  30  33
HETATM   33  C   UNL     1      36.591 -10.448   1.511  1.00  0.00     0.084 C 
HETATM   34  C   UNL     1      36.235  -8.976   1.297  1.00  0.00     0.025 C 
HETATM   35  C   UNL     1      36.271  -8.562  -0.174  1.00  0.00     0.002 C 
HETATM   36  C   UNL     1      35.414  -9.479  -1.042  1.00  0.00     0.000 C 
HETATM   37  C   UNL     1      35.793 -10.945  -0.862  1.00  0.00     0.002 C 
HETATM   38  C   UNL     1      35.742 -11.362   0.608  1.00  0.00     0.025 C 
ENDBRANCH  30  33
ENDBRANCH  12  29
TORSDOF 7
ENDMDL
MODEL 7
REMARK VINA RESULT:      -8.2      1.804      2.632
REMARK  7 active torsions:
REMARK  status: ('A' for Active; 'I' for Inactive)
REMARK    1  A    between atoms: O_2  and  C_3 
REMARK    2  A    between atoms: C_4  and  O_5 
REMARK    3  A    between atoms: C_7  and  C_8 
REMARK    4  A    between atoms: N_9  and  N_10 
REMARK    5  A    between atoms: C_21  and  C_22 
REMARK       I    between atoms: C_22  and  N_23 
REMARK    6  A    between atoms: N_23  and  C_24 
REMARK    7  A    between atoms: C_31  and  N_32 
ROOT
HETATM    1  N   UNL     1      40.922 -15.347   0.253  1.00  0.00    -0.197 N 
HETATM    2  C   UNL     1      40.560 -14.273   1.054  1.00  0.00     0.183 A 
HETATM    3  C   UNL     1      40.809 -13.114   0.333  1.00  0.00     0.125 A 
HETATM    4  N   UNL     1      40.685 -11.881   0.893  1.00  0.00    -0.242 NA
HETATM    5  C   UNL     1      40.237 -11.888   2.156  1.00  0.00     0.086 A 
HETATM    6  C   UNL     1      39.954 -13.085   2.869  1.00  0.00     0.088 A 
HETATM    7  N   UNL     1      40.134 -14.310   2.341  1.00  0.00    -0.225 NA
HETATM    8  C   UNL     1      40.038 -10.665   2.784  1.00  0.00     0.034 A 
HETATM    9  C   UNL     1      39.553 -10.583   4.090  1.00  0.00     0.002 A 
HETATM   10  C   UNL     1      39.262 -11.749   4.783  1.00  0.00     0.002 A 
HETATM   11  C   UNL     1      39.468 -12.987   4.168  1.00  0.00     0.034 A 
HETATM   12  C   UNL     1      41.236 -13.471  -0.966  1.00  0.00     0.110 C 
HETATM   13  C   UNL     1      41.130 -14.853  -1.049  1.00  0.00     0.143 C 
ENDROOT
BRANCH   1  14
HETATM   14  N   UNL     1      41.470 -16.512   0.743  1.00  0.00    -0.176 NA
HETATM   15  C   UNL     1      42.734 -16.450   1.002  1.00  0.00     0.153 C 
BRANCH  15  16
HETATM   16  C   UNL     1      43.318 -17.231   2.111  1.00  0.00     0.019 A 
HETATM   17  C   UNL     1      43.112 -16.829   3.434  1.00  0.00     0.113 A 
HETATM   18  C   UNL     1      43.335 -17.742   4.475  1.00  0.00     0.102 A 
HETATM   19  C   UNL     1      43.876 -19.000   4.196  1.00  0.00     0.040 A 
HETATM   20  C   UNL     1      44.144 -19.375   2.881  1.00  0.00     0.004 A 
HETATM   21  C   UNL     1      43.852 -18.499   1.837  1.00  0.00     0.016 A 
BRANCH  17  22
HETATM   22  O   UNL     1      42.655 -15.563   3.700  1.00  0.00    -0.352 OA
HETATM   23  C   UNL     1      43.767 -14.661   3.712  1.00  0.00     0.210 C 
ENDBRANCH  17  22
BRANCH  18  24
HETATM   24  O   UNL     1      43.077 -17.485   5.797  1.00  0.00    -0.353 OA
HETATM   25  C   UNL     1      44.245 -17.112   6.531  1.00  0.00     0.210 C 
ENDBRANCH  18  24
ENDBRANCH  15  16
ENDBRANCH   1  14
BRANCH  13  26
HETATM   26  N   UNL     1      41.393 -15.638  -2.134  1.00  0.00    -0.383 N 
HETATM   27  H   UNL     1      42.285 -15.604  -2.616  1.00  0.00     0.157 HD
HETATM   28  H   UNL     1      41.027 -16.596  -2.106  1.00  0.00     0.157 HD
ENDBRANCH  13  26
BRANCH  12  29
HETATM   29  C   UNL     1      41.767 -12.625  -2.025  1.00  0.00     0.258 C 
HETATM   30  N   UNL     1      41.992 -11.317  -1.647  1.00  0.00    -0.352 N 
HETATM   31  H   UNL     1      41.735 -11.074  -0.694  1.00  0.00     0.163 HD
HETATM   32  O   UNL     1      42.087 -13.066  -3.126  1.00  0.00    -0.267 OA
BRANCH  30  33
HETATM   33  C   UNL     1      43.016 -10.517  -2.305  1.00  0.00     0.084 C 
HETATM   34  C   UNL     1      42.387  -9.522  -3.282  1.00  0.00     0.025 C 
HETATM   35  C   UNL     1      41.654  -8.380  -2.580  1.00  0.00     0.002 C 
HETATM   36  C   UNL     1      42.545  -7.677  -1.560  1.00  0.00     0.000 C 
HETATM   37  C   UNL     1      43.143  -8.660  -0.559  1.00  0.00     0.002 C 
HETATM   38  C   UNL     1      43.889  -9.795  -1.262  1.00  0.00     0.025 C 
ENDBRANCH  30  33
ENDBRANCH  12  29
TORSDOF 7
ENDMDL
MODEL 8
REMARK VINA RESULT:      -8.0      4.597      8.472
REMARK  7 active torsions:
REMARK  status: ('A' for Active; 'I' for Inactive)
REMARK    1  A    between atoms: O_2  and  C_3 
REMARK    2  A    between atoms: C_4  and  O_5 
REMARK    3  A    between atoms: C_7  and  C_8 
REMARK    4  A    between atoms: N_9  and  N_10 
REMARK    5  A    between atoms: C_21  and  C_22 
REMARK       I    between atoms: C_22  and  N_23 
REMARK    6  A    between atoms: N_23  and  C_24 
REMARK    7  A    between atoms: C_31  and  N_32 
ROOT
HETATM    1  N   UNL     1      41.595 -11.846   6.435  1.00  0.00    -0.197 N 
HETATM    2  C   UNL     1      40.687 -11.592   5.417  1.00  0.00     0.183 A 
HETATM    3  C   UNL     1      41.088 -12.326   4.309  1.00  0.00     0.125 A 
HETATM    4  N   UNL     1      40.480 -12.190   3.101  1.00  0.00    -0.242 NA
HETATM    5  C   UNL     1      39.432 -11.355   3.098  1.00  0.00     0.086 A 
HETATM    6  C   UNL     1      39.013 -10.637   4.251  1.00  0.00     0.088 A 
HETATM    7  N   UNL     1      39.649 -10.720   5.434  1.00  0.00    -0.225 NA
HETATM    8  C   UNL     1      38.727 -11.197   1.912  1.00  0.00     0.034 A 
HETATM    9  C   UNL     1      37.610 -10.364   1.829  1.00  0.00     0.002 A 
HETATM   10  C   UNL     1      37.190  -9.673   2.956  1.00  0.00     0.002 A 
HETATM   11  C   UNL     1      37.896  -9.814   4.154  1.00  0.00     0.034 A 
HETATM   12  C   UNL     1      42.199 -13.122   4.671  1.00  0.00     0.110 C 
HETATM   13  C   UNL     1      42.385 -12.940   6.035  1.00  0.00     0.143 C 
ENDROOT
BRANCH   1  14
HETATM   14  N   UNL     1      41.978 -10.906   7.366  1.00  0.00    -0.176 NA
HETATM   15  C   UNL     1      41.362 -10.984   8.499  1.00  0.00     0.153 C 
BRANCH  15  16
HETATM   16  C   UNL     1      42.046 -10.622   9.758  1.00  0.00     0.019 A 
HETATM   17  C   UNL     1      41.347 -10.654  10.967  1.00  0.00     0.113 A 
HETATM   18  C   UNL     1      42.060 -10.678  12.175  1.00  0.00     0.102 A 
HETATM   19  C   UNL     1      43.450 -10.545  12.168  1.00  0.00     0.040 A 
HETATM   20  C   UNL     1      44.142 -10.445  10.962  1.00  0.00     0.004 A 
HETATM   21  C   UNL     1      43.443 -10.498   9.756  1.00  0.00     0.016 A 
BRANCH  17  22
HETATM   22  O   UNL     1      39.976 -10.704  10.964  1.00  0.00    -0.352 OA
HETATM   23  C   UNL     1      39.462  -9.374  11.095  1.00  0.00     0.210 C 
ENDBRANCH  17  22
BRANCH  18  24
HETATM   24  O   UNL     1      41.481 -10.802  13.412  1.00  0.00    -0.353 OA
HETATM   25  C   UNL     1      42.281 -10.255  14.461  1.00  0.00     0.210 C 
ENDBRANCH  18  24
ENDBRANCH  15  16
ENDBRANCH   1  14
BRANCH  13  26
HETATM   26  N   UNL     1      43.316 -13.545   6.829  1.00  0.00    -0.383 N 
HETATM   27  H   UNL     1      44.150 -13.060   7.141  1.00  0.00     0.157 HD
HETATM   28  H   UNL     1      42.958 -14.169   7.560  1.00  0.00     0.157 HD
ENDBRANCH  13  26
BRANCH  12  29
HETATM   29  C   UNL     1      43.066 -13.928   3.825  1.00  0.00     0.258 C 
HETATM   30  N   UNL     1      42.429 -14.976   3.193  1.00  0.00    -0.352 N 
HETATM   31  H   UNL     1      41.443 -15.098   3.409  1.00  0.00     0.163 HD
HETATM   32  O   UNL     1      44.239 -13.632   3.610  1.00  0.00    -0.267 OA
BRANCH  30  33
HETATM   33  C   UNL     1      42.921 -15.491   1.923  1.00  0.00     0.084 C 
HETATM   34  C   UNL     1      43.859 -16.680   2.143  1.00  0.00     0.025 C 
HETATM   35  C   UNL     1      43.126 -17.939   2.605  1.00  0.00     0.002 C 
HETATM   36  C   UNL     1      41.974 -18.299   1.672  1.00  0.00     0.000 C 
HETATM   37  C   UNL     1      41.015 -17.129   1.481  1.00  0.00     0.002 C 
HETATM   38  C   UNL     1      41.746 -15.873   1.005  1.00  0.00     0.025 C 
ENDBRANCH  30  33
ENDBRANCH  12  29
TORSDOF 7
ENDMDL
MODEL 9
REMARK VINA RESULT:      -8.0      2.187      4.645
REMARK  7 active torsions:
REMARK  status: ('A' for Active; 'I' for Inactive)
REMARK    1  A    between atoms: O_2  and  C_3 
REMARK    2  A    between atoms: C_4  and  O_5 
REMARK    3  A    between atoms: C_7  and  C_8 
REMARK    4  A    between atoms: N_9  and  N_10 
REMARK    5  A    between atoms: C_21  and  C_22 
REMARK       I    between atoms: C_22  and  N_23 
REMARK    6  A    between atoms: N_23  and  C_24 
REMARK    7  A    between atoms: C_31  and  N_32 
ROOT
HETATM    1  N   UNL     1      42.000 -16.515   1.997  1.00  0.00    -0.197 N 
HETATM    2  C   UNL     1      41.466 -15.830   0.914  1.00  0.00     0.183 A 
HETATM    3  C   UNL     1      40.718 -14.775   1.417  1.00  0.00     0.125 A 
HETATM    4  N   UNL     1      39.954 -13.990   0.612  1.00  0.00    -0.242 NA
HETATM    5  C   UNL     1      40.046 -14.279  -0.694  1.00  0.00     0.086 A 
HETATM    6  C   UNL     1      40.844 -15.342  -1.195  1.00  0.00     0.088 A 
HETATM    7  N   UNL     1      41.555 -16.162  -0.398  1.00  0.00    -0.225 NA
HETATM    8  C   UNL     1      39.332 -13.492  -1.587  1.00  0.00     0.034 A 
HETATM    9  C   UNL     1      39.391 -13.710  -2.964  1.00  0.00     0.002 A 
HETATM   10  C   UNL     1      40.180 -14.738  -3.458  1.00  0.00     0.002 A 
HETATM   11  C   UNL     1      40.896 -15.546  -2.570  1.00  0.00     0.034 A 
HETATM   12  C   UNL     1      40.870 -14.742   2.822  1.00  0.00     0.110 C 
HETATM   13  C   UNL     1      41.805 -15.717   3.140  1.00  0.00     0.143 C 
ENDROOT
BRANCH   1  14
HETATM   14  N   UNL     1      42.185 -17.879   2.019  1.00  0.00    -0.176 NA
HETATM   15  C   UNL     1      43.372 -18.271   1.693  1.00  0.00     0.153 C 
BRANCH  15  16
HETATM   16  C   UNL     1      43.964 -19.481   2.300  1.00  0.00     0.019 A 
HETATM   17  C   UNL     1      44.112 -19.565   3.687  1.00  0.00     0.113 A 
HETATM   18  C   UNL     1      44.316 -20.817   4.285  1.00  0.00     0.102 A 
HETATM   19  C   UNL     1      44.492 -21.950   3.487  1.00  0.00     0.040 A 
HETATM   20  C   UNL     1      44.409 -21.854   2.099  1.00  0.00     0.004 A 
HETATM   21  C   UNL     1      44.131 -20.623   1.505  1.00  0.00     0.016 A 
BRANCH  17  22
HETATM   22  O   UNL     1      44.017 -18.431   4.455  1.00  0.00    -0.352 OA
HETATM   23  C   UNL     1      45.076 -18.433   5.419  1.00  0.00     0.210 C 
ENDBRANCH  17  22
BRANCH  18  24
HETATM   24  O   UNL     1      44.383 -21.026   5.638  1.00  0.00    -0.353 OA
HETATM   25  C   UNL     1      44.677 -22.382   5.980  1.00  0.00     0.210 C 
ENDBRANCH  18  24
ENDBRANCH  15  16
ENDBRANCH   1  14
BRANCH  13  26
HETATM   26  N   UNL     1      42.297 -16.016   4.378  1.00  0.00    -0.383 N 
HETATM   27  H   UNL     1      43.120 -16.597   4.501  1.00  0.00     0.157 HD
HETATM   28  H   UNL     1      42.271 -15.263   5.074  1.00  0.00     0.157 HD
ENDBRANCH  13  26
BRANCH  12  29
HETATM   29  C   UNL     1      40.163 -13.932   3.804  1.00  0.00     0.258 C 
HETATM   30  N   UNL     1      40.021 -12.606   3.450  1.00  0.00    -0.352 N 
HETATM   31  H   UNL     1      40.449 -12.327   2.571  1.00  0.00     0.163 HD
HETATM   32  O   UNL     1      39.645 -14.414   4.808  1.00  0.00    -0.267 OA
BRANCH  30  33
HETATM   33  C   UNL     1      38.901 -11.818   3.947  1.00  0.00     0.084 C 
HETATM   34  C   UNL     1      39.363 -10.834   5.024  1.00  0.00     0.025 C 
HETATM   35  C   UNL     1      40.192  -9.681   4.462  1.00  0.00     0.002 C 
HETATM   36  C   UNL     1      39.471  -8.967   3.322  1.00  0.00     0.000 C 
HETATM   37  C   UNL     1      39.044  -9.938   2.227  1.00  0.00     0.002 C 
HETATM   38  C   UNL     1      38.202 -11.084   2.788  1.00  0.00     0.025 C 
ENDBRANCH  30  33
ENDBRANCH  12  29
TORSDOF 7
ENDMDL
MODEL 10
REMARK VINA RESULT:      -7.9      2.726      6.014
REMARK  7 active torsions:
REMARK  status: ('A' for Active; 'I' for Inactive)
REMARK    1  A    between atoms: O_2  and  C_3 
REMARK    2  A    between atoms: C_4  and  O_5 
REMARK    3  A    between atoms: C_7  and  C_8 
REMARK    4  A    between atoms: N_9  and  N_10 
REMARK    5  A    between atoms: C_21  and  C_22 
REMARK       I    between atoms: C_22  and  N_23 
REMARK    6  A    between atoms: N_23  and  C_24 
REMARK    7  A    between atoms: C_31  and  N_32 
ROOT
HETATM    1  N   UNL     1      41.997 -14.484   4.066  1.00  0.00    -0.197 N 
HETATM    2  C   UNL     1      41.833 -13.369   3.256  1.00  0.00     0.183 A 
HETATM    3  C   UNL     1      40.994 -12.489   3.926  1.00  0.00     0.125 A 
HETATM    4  N   UNL     1      40.529 -11.355   3.338  1.00  0.00    -0.242 NA
HETATM    5  C   UNL     1      41.004 -11.134   2.105  1.00  0.00     0.086 A 
HETATM    6  C   UNL     1      41.890 -12.030   1.446  1.00  0.00     0.088 A 
HETATM    7  N   UNL     1      42.305 -13.184   1.998  1.00  0.00    -0.225 NA
HETATM    8  C   UNL     1      40.613  -9.971   1.454  1.00  0.00     0.034 A 
HETATM    9  C   UNL     1      41.079  -9.654   0.178  1.00  0.00     0.002 A 
HETATM   10  C   UNL     1      41.955 -10.519  -0.463  1.00  0.00     0.002 A 
HETATM   11  C   UNL     1      42.349 -11.699   0.176  1.00  0.00     0.034 A 
HETATM   12  C   UNL     1      40.716 -13.016   5.208  1.00  0.00     0.110 C 
HETATM   13  C   UNL     1      41.487 -14.164   5.337  1.00  0.00     0.143 C 
ENDROOT
BRANCH   1  14
HETATM   14  N   UNL     1      42.133 -15.766   3.579  1.00  0.00    -0.176 NA
HETATM   15  C   UNL     1      43.330 -16.246   3.643  1.00  0.00     0.153 C 
BRANCH  15  16
HETATM   16  C   UNL     1      43.555 -17.690   3.862  1.00  0.00     0.019 A 
HETATM   17  C   UNL     1      43.363 -18.594   2.814  1.00  0.00     0.113 A 
HETATM   18  C   UNL     1      43.919 -19.879   2.900  1.00  0.00     0.102 A 
HETATM   19  C   UNL     1      44.551 -20.288   4.077  1.00  0.00     0.040 A 
HETATM   20  C   UNL     1      44.682 -19.406   5.148  1.00  0.00     0.004 A 
HETATM   21  C   UNL     1      44.199 -18.104   5.037  1.00  0.00     0.016 A 
BRANCH  17  22
HETATM   22  O   UNL     1      42.671 -18.206   1.694  1.00  0.00    -0.352 OA
HETATM   23  C   UNL     1      43.592 -17.658   0.744  1.00  0.00     0.210 C 
ENDBRANCH  17  22
BRANCH  18  24
HETATM   24  O   UNL     1      43.872 -20.811   1.895  1.00  0.00    -0.353 OA
HETATM   25  C   UNL     1      44.449 -22.063   2.268  1.00  0.00     0.210 C 
ENDBRANCH  18  24
ENDBRANCH  15  16
ENDBRANCH   1  14
BRANCH  13  26
HETATM   26  N   UNL     1      41.575 -14.980   6.428  1.00  0.00    -0.383 N 
HETATM   27  H   UNL     1      41.878 -14.635   7.332  1.00  0.00     0.157 HD
HETATM   28  H   UNL     1      40.836 -15.685   6.532  1.00  0.00     0.157 HD
ENDBRANCH  13  26
BRANCH  12  29
HETATM   29  C   UNL     1      39.766 -12.549   6.207  1.00  0.00     0.258 C 
HETATM   30  N   UNL     1      40.339 -11.859   7.256  1.00  0.00    -0.352 N 
HETATM   31  H   UNL     1      41.353 -11.781   7.242  1.00  0.00     0.163 HD
HETATM   32  O   UNL     1      38.551 -12.666   6.069  1.00  0.00    -0.267 OA
BRANCH  30  33
HETATM   33  C   UNL     1      39.584 -10.849   7.984  1.00  0.00     0.084 C 
HETATM   34  C   UNL     1      39.722 -11.048   9.494  1.00  0.00     0.025 C 
HETATM   35  C   UNL     1      41.110 -10.684  10.018  1.00  0.00     0.002 C 
HETATM   36  C   UNL     1      41.524  -9.277   9.598  1.00  0.00     0.000 C 
HETATM   37  C   UNL     1      41.426  -9.085   8.089  1.00  0.00     0.002 C 
HETATM   38  C   UNL     1      40.032  -9.436   7.567  1.00  0.00     0.025 C 
ENDBRANCH  30  33
ENDBRANCH  12  29
TORSDOF 7
ENDMDL
