MODEL 1
REMARK VINA RESULT:      -8.4      0.000      0.000
REMARK  7 active torsions:
REMARK  status: ('A' for Active; 'I' for Inactive)
REMARK    1  A    between atoms: C_2  and  C_3 
REMARK    2  A    between atoms: C_4  and  N_5 
REMARK       I    between atoms: N_5  and  C_6 
REMARK    3  A    between atoms: C_6  and  C_7 
REMARK    4  A    between atoms: C_7  and  N_8 
REMARK    5  A    between atoms: N_12  and  C_13 
REMARK    6  A    between atoms: C_14  and  O_15 
REMARK    7  A    between atoms: C_24  and  C_25 
ROOT
HETATM    1  N   UNL     1      43.908 -18.525   4.811  1.00  0.00    -0.325 N 
HETATM    2  C   UNL     1      42.734 -18.086   5.396  1.00  0.00     0.248 C 
HETATM    3  O   UNL     1      41.593 -18.444   5.110  1.00  0.00    -0.271 OA
HETATM    4  H   UNL     1      44.669 -17.857   4.772  1.00  0.00     0.169 HD
ENDROOT
BRANCH   2   5
HETATM    5  C   UNL     1      42.951 -17.039   6.492  1.00  0.00     0.337 C 
BRANCH   5   6
HETATM    6  N   UNL     1      42.391 -15.677   6.105  1.00  0.00    -0.060 N 
HETATM    7  H   UNL     1      42.785 -15.007   6.784  1.00  0.00     0.280 HD
HETATM    8  C   UNL     1      42.880 -15.194   4.734  1.00  0.00     0.255 C 
HETATM    9  C   UNL     1      42.340 -13.778   4.450  1.00  0.00     0.150 C 
HETATM   10  N   UNL     1      40.876 -13.733   4.580  1.00  0.00    -0.375 N 
HETATM   11  C   UNL     1      40.343 -14.214   5.869  1.00  0.00     0.150 C 
HETATM   12  C   UNL     1      40.873 -15.626   6.189  1.00  0.00     0.255 C 
BRANCH  10  13
HETATM   13  C   UNL     1      40.039 -13.804   3.459  1.00  0.00     0.064 A 
HETATM   14  C   UNL     1      39.377 -12.655   2.942  1.00  0.00     0.094 A 
HETATM   15  C   UNL     1      38.522 -12.759   1.834  1.00  0.00     0.039 A 
HETATM   16  C   UNL     1      38.337 -13.982   1.194  1.00  0.00     0.003 A 
HETATM   17  C   UNL     1      39.005 -15.106   1.653  1.00  0.00     0.002 A 
HETATM   18  C   UNL     1      39.845 -15.015   2.767  1.00  0.00     0.032 A 
BRANCH  14  19
HETATM   19  O   UNL     1      39.638 -11.456   3.569  1.00  0.00    -0.354 OA
HETATM   20  C   UNL     1      38.583 -10.879   4.332  1.00  0.00     0.210 C 
ENDBRANCH  14  19
ENDBRANCH  10  13
ENDBRANCH   5   6
ENDBRANCH   2   5
BRANCH   1  21
HETATM   21  C   UNL     1      43.915 -19.499   3.783  1.00  0.00     0.048 A 
HETATM   22  C   UNL     1      44.253 -20.840   4.116  1.00  0.00    -0.027 A 
HETATM   23  C   UNL     1      44.215 -21.809   3.097  1.00  0.00     0.010 A 
HETATM   24  C   UNL     1      43.830 -21.482   1.803  1.00  0.00     0.001 A 
HETATM   25  C   UNL     1      43.480 -20.174   1.493  1.00  0.00     0.010 A 
HETATM   26  C   UNL     1      43.512 -19.156   2.466  1.00  0.00    -0.027 A 
BRANCH  22  27
HETATM   27  C   UNL     1      44.790 -21.247   5.489  1.00  0.00     0.013 C 
HETATM   28  C   UNL     1      45.464 -22.622   5.399  1.00  0.00     0.015 C 
HETATM   29  C   UNL     1      43.733 -21.236   6.600  1.00  0.00     0.015 C 
ENDBRANCH  22  27
BRANCH  26  30
HETATM   30  C   UNL     1      43.010 -17.770   2.068  1.00  0.00     0.013 C 
HETATM   31  C   UNL     1      44.052 -16.981   1.266  1.00  0.00     0.015 C 
HETATM   32  C   UNL     1      41.687 -17.862   1.298  1.00  0.00     0.015 C 
ENDBRANCH  26  30
ENDBRANCH   1  21
TORSDOF 7
ENDMDL
MODEL 2
REMARK VINA RESULT:      -8.4      0.067      3.044
REMARK  7 active torsions:
REMARK  status: ('A' for Active; 'I' for Inactive)
REMARK    1  A    between atoms: C_2  and  C_3 
REMARK    2  A    between atoms: C_4  and  N_5 
REMARK       I    between atoms: N_5  and  C_6 
REMARK    3  A    between atoms: C_6  and  C_7 
REMARK    4  A    between atoms: C_7  and  N_8 
REMARK    5  A    between atoms: N_12  and  C_13 
REMARK    6  A    between atoms: C_14  and  O_15 
REMARK    7  A    between atoms: C_24  and  C_25 
ROOT
HETATM    1  N   UNL     1      43.928 -18.497   4.795  1.00  0.00    -0.325 N 
HETATM    2  C   UNL     1      42.782 -18.027   5.411  1.00  0.00     0.248 C 
HETATM    3  O   UNL     1      41.626 -18.381   5.180  1.00  0.00    -0.271 OA
HETATM    4  H   UNL     1      44.693 -17.839   4.706  1.00  0.00     0.169 HD
ENDROOT
BRANCH   2   5
HETATM    5  C   UNL     1      43.051 -16.949   6.464  1.00  0.00     0.337 C 
BRANCH   5   6
HETATM    6  N   UNL     1      42.449 -15.605   6.078  1.00  0.00    -0.060 N 
HETATM    7  H   UNL     1      42.828 -14.922   6.754  1.00  0.00     0.280 HD
HETATM    8  C   UNL     1      42.916 -15.110   4.704  1.00  0.00     0.255 C 
HETATM    9  C   UNL     1      42.334 -13.711   4.420  1.00  0.00     0.150 C 
HETATM   10  N   UNL     1      40.870 -13.708   4.559  1.00  0.00    -0.375 N 
HETATM   11  C   UNL     1      40.360 -14.201   5.852  1.00  0.00     0.150 C 
HETATM   12  C   UNL     1      40.932 -15.597   6.172  1.00  0.00     0.255 C 
BRANCH  10  13
HETATM   13  C   UNL     1      40.029 -13.805   3.443  1.00  0.00     0.064 A 
HETATM   14  C   UNL     1      39.369 -12.667   2.899  1.00  0.00     0.094 A 
HETATM   15  C   UNL     1      38.509 -12.798   1.797  1.00  0.00     0.039 A 
HETATM   16  C   UNL     1      38.318 -14.035   1.189  1.00  0.00     0.003 A 
HETATM   17  C   UNL     1      38.985 -15.150   1.675  1.00  0.00     0.002 A 
HETATM   18  C   UNL     1      39.829 -15.033   2.783  1.00  0.00     0.032 A 
BRANCH  14  19
HETATM   19  O   UNL     1      39.635 -11.453   3.494  1.00  0.00    -0.354 OA
HETATM   20  C   UNL     1      38.628 -10.909   4.341  1.00  0.00     0.210 C 
ENDBRANCH  14  19
ENDBRANCH  10  13
ENDBRANCH   5   6
ENDBRANCH   2   5
BRANCH   1  21
HETATM   21  C   UNL     1      43.885 -19.503   3.799  1.00  0.00     0.048 A 
HETATM   22  C   UNL     1      43.519 -19.135   2.475  1.00  0.00    -0.027 A 
HETATM   23  C   UNL     1      43.521 -20.132   1.482  1.00  0.00     0.010 A 
HETATM   24  C   UNL     1      43.899 -21.438   1.770  1.00  0.00     0.001 A 
HETATM   25  C   UNL     1      44.276 -21.781   3.062  1.00  0.00     0.010 A 
HETATM   26  C   UNL     1      44.280 -20.831   4.102  1.00  0.00    -0.027 A 
BRANCH  22  27
HETATM   27  C   UNL     1      42.989 -17.747   2.111  1.00  0.00     0.013 C 
HETATM   28  C   UNL     1      41.665 -17.878   1.349  1.00  0.00     0.015 C 
HETATM   29  C   UNL     1      43.984 -16.887   1.322  1.00  0.00     0.015 C 
ENDBRANCH  22  27
BRANCH  26  30
HETATM   30  C   UNL     1      44.811 -21.266   5.466  1.00  0.00     0.013 C 
HETATM   31  C   UNL     1      43.727 -21.236   6.550  1.00  0.00     0.015 C 
HETATM   32  C   UNL     1      45.463 -22.652   5.389  1.00  0.00     0.015 C 
ENDBRANCH  26  30
ENDBRANCH   1  21
TORSDOF 7
ENDMDL
MODEL 3
REMARK VINA RESULT:      -8.2      3.453      4.974
REMARK  7 active torsions:
REMARK  status: ('A' for Active; 'I' for Inactive)
REMARK    1  A    between atoms: C_2  and  C_3 
REMARK    2  A    between atoms: C_4  and  N_5 
REMARK       I    between atoms: N_5  and  C_6 
REMARK    3  A    between atoms: C_6  and  C_7 
REMARK    4  A    between atoms: C_7  and  N_8 
REMARK    5  A    between atoms: N_12  and  C_13 
REMARK    6  A    between atoms: C_14  and  O_15 
REMARK    7  A    between atoms: C_24  and  C_25 
ROOT
HETATM    1  N   UNL     1      42.194 -16.718   4.336  1.00  0.00    -0.325 N 
HETATM    2  C   UNL     1      42.463 -15.459   3.829  1.00  0.00     0.248 C 
HETATM    3  O   UNL     1      43.573 -14.983   3.595  1.00  0.00    -0.271 OA
HETATM    4  H   UNL     1      41.365 -16.804   4.911  1.00  0.00     0.169 HD
ENDROOT
BRANCH   2   5
HETATM    5  C   UNL     1      41.206 -14.623   3.570  1.00  0.00     0.337 C 
BRANCH   5   6
HETATM    6  N   UNL     1      40.654 -14.835   2.166  1.00  0.00    -0.060 N 
HETATM    7  H   UNL     1      39.927 -15.561   2.256  1.00  0.00     0.280 HD
HETATM    8  C   UNL     1      39.926 -13.603   1.616  1.00  0.00     0.255 C 
HETATM    9  C   UNL     1      39.324 -13.919   0.232  1.00  0.00     0.150 C 
HETATM   10  N   UNL     1      40.351 -14.430  -0.687  1.00  0.00    -0.375 N 
HETATM   11  C   UNL     1      41.107 -15.600  -0.200  1.00  0.00     0.150 C 
HETATM   12  C   UNL     1      41.714 -15.320   1.190  1.00  0.00     0.255 C 
BRANCH  10  13
HETATM   13  C   UNL     1      40.969 -13.599  -1.630  1.00  0.00     0.064 A 
HETATM   14  C   UNL     1      40.487 -13.489  -2.965  1.00  0.00     0.094 A 
HETATM   15  C   UNL     1      41.142 -12.669  -3.898  1.00  0.00     0.039 A 
HETATM   16  C   UNL     1      42.251 -11.916  -3.523  1.00  0.00     0.003 A 
HETATM   17  C   UNL     1      42.712 -11.973  -2.217  1.00  0.00     0.002 A 
HETATM   18  C   UNL     1      42.077 -12.801  -1.286  1.00  0.00     0.032 A 
BRANCH  14  19
HETATM   19  O   UNL     1      39.351 -14.205  -3.274  1.00  0.00    -0.354 OA
HETATM   20  C   UNL     1      39.529 -15.455  -3.933  1.00  0.00     0.210 C 
ENDBRANCH  14  19
ENDBRANCH  10  13
ENDBRANCH   5   6
ENDBRANCH   2   5
BRANCH   1  21
HETATM   21  C   UNL     1      43.226 -17.642   4.633  1.00  0.00     0.048 A 
HETATM   22  C   UNL     1      43.744 -17.683   5.957  1.00  0.00    -0.027 A 
HETATM   23  C   UNL     1      44.737 -18.634   6.255  1.00  0.00     0.010 A 
HETATM   24  C   UNL     1      45.187 -19.533   5.296  1.00  0.00     0.001 A 
HETATM   25  C   UNL     1      44.658 -19.498   4.011  1.00  0.00     0.010 A 
HETATM   26  C   UNL     1      43.672 -18.561   3.649  1.00  0.00    -0.027 A 
BRANCH  22  27
HETATM   27  C   UNL     1      43.376 -16.656   7.029  1.00  0.00     0.013 C 
HETATM   28  C   UNL     1      44.313 -15.446   6.935  1.00  0.00     0.015 C 
HETATM   29  C   UNL     1      43.363 -17.220   8.455  1.00  0.00     0.015 C 
ENDBRANCH  22  27
BRANCH  26  30
HETATM   30  C   UNL     1      43.069 -18.662   2.250  1.00  0.00     0.013 C 
HETATM   31  C   UNL     1      43.862 -17.857   1.214  1.00  0.00     0.015 C 
HETATM   32  C   UNL     1      42.933 -20.125   1.811  1.00  0.00     0.015 C 
ENDBRANCH  26  30
ENDBRANCH   1  21
TORSDOF 7
ENDMDL
MODEL 4
REMARK VINA RESULT:      -8.1      3.371      5.262
REMARK  7 active torsions:
REMARK  status: ('A' for Active; 'I' for Inactive)
REMARK    1  A    between atoms: C_2  and  C_3 
REMARK    2  A    between atoms: C_4  and  N_5 
REMARK       I    between atoms: N_5  and  C_6 
REMARK    3  A    between atoms: C_6  and  C_7 
REMARK    4  A    between atoms: C_7  and  N_8 
REMARK    5  A    between atoms: N_12  and  C_13 
REMARK    6  A    between atoms: C_14  and  O_15 
REMARK    7  A    between atoms: C_24  and  C_25 
ROOT
HETATM    1  N   UNL     1      42.870 -16.342   4.144  1.00  0.00    -0.325 N 
HETATM    2  C   UNL     1      41.504 -16.125   4.146  1.00  0.00     0.248 C 
HETATM    3  O   UNL     1      40.637 -16.904   4.540  1.00  0.00    -0.271 OA
HETATM    4  H   UNL     1      43.396 -15.894   3.402  1.00  0.00     0.169 HD
ENDROOT
BRANCH   2   5
HETATM    5  C   UNL     1      41.100 -14.764   3.572  1.00  0.00     0.337 C 
BRANCH   5   6
HETATM    6  N   UNL     1      40.548 -14.877   2.158  1.00  0.00    -0.060 N 
HETATM    7  H   UNL     1      39.776 -15.560   2.210  1.00  0.00     0.280 HD
HETATM    8  C   UNL     1      39.901 -13.579   1.660  1.00  0.00     0.255 C 
HETATM    9  C   UNL     1      39.293 -13.794   0.260  1.00  0.00     0.150 C 
HETATM   10  N   UNL     1      40.295 -14.326  -0.676  1.00  0.00    -0.375 N 
HETATM   11  C   UNL     1      40.973 -15.561  -0.238  1.00  0.00     0.150 C 
HETATM   12  C   UNL     1      41.584 -15.382   1.166  1.00  0.00     0.255 C 
BRANCH  10  13
HETATM   13  C   UNL     1      40.971 -13.492  -1.576  1.00  0.00     0.064 A 
HETATM   14  C   UNL     1      40.544 -13.342  -2.926  1.00  0.00     0.094 A 
HETATM   15  C   UNL     1      41.257 -12.521  -3.815  1.00  0.00     0.039 A 
HETATM   16  C   UNL     1      42.369 -11.806  -3.382  1.00  0.00     0.003 A 
HETATM   17  C   UNL     1      42.777 -11.903  -2.061  1.00  0.00     0.002 A 
HETATM   18  C   UNL     1      42.085 -12.732  -1.173  1.00  0.00     0.032 A 
BRANCH  14  19
HETATM   19  O   UNL     1      39.402 -14.020  -3.294  1.00  0.00    -0.354 OA
HETATM   20  C   UNL     1      39.570 -15.317  -3.857  1.00  0.00     0.210 C 
ENDBRANCH  14  19
ENDBRANCH  10  13
ENDBRANCH   5   6
ENDBRANCH   2   5
BRANCH   1  21
HETATM   21  C   UNL     1      43.440 -17.539   4.642  1.00  0.00     0.048 A 
HETATM   22  C   UNL     1      43.789 -18.563   3.719  1.00  0.00    -0.027 A 
HETATM   23  C   UNL     1      44.394 -19.731   4.218  1.00  0.00     0.010 A 
HETATM   24  C   UNL     1      44.675 -19.878   5.571  1.00  0.00     0.001 A 
HETATM   25  C   UNL     1      44.350 -18.862   6.461  1.00  0.00     0.010 A 
HETATM   26  C   UNL     1      43.730 -17.675   6.024  1.00  0.00    -0.027 A 
BRANCH  22  27
HETATM   27  C   UNL     1      43.410 -18.516   2.238  1.00  0.00     0.013 C 
HETATM   28  C   UNL     1      43.310 -19.940   1.679  1.00  0.00     0.015 C 
HETATM   29  C   UNL     1      44.354 -17.664   1.381  1.00  0.00     0.015 C 
ENDBRANCH  22  27
BRANCH  26  30
HETATM   30  C   UNL     1      43.506 -16.566   7.050  1.00  0.00     0.013 C 
HETATM   31  C   UNL     1      43.449 -17.103   8.485  1.00  0.00     0.015 C 
HETATM   32  C   UNL     1      44.571 -15.471   6.921  1.00  0.00     0.015 C 
ENDBRANCH  26  30
ENDBRANCH   1  21
TORSDOF 7
ENDMDL
MODEL 5
REMARK VINA RESULT:      -8.1      3.014      4.466
REMARK  7 active torsions:
REMARK  status: ('A' for Active; 'I' for Inactive)
REMARK    1  A    between atoms: C_2  and  C_3 
REMARK    2  A    between atoms: C_4  and  N_5 
REMARK       I    between atoms: N_5  and  C_6 
REMARK    3  A    between atoms: C_6  and  C_7 
REMARK    4  A    between atoms: C_7  and  N_8 
REMARK    5  A    between atoms: N_12  and  C_13 
REMARK    6  A    between atoms: C_14  and  O_15 
REMARK    7  A    between atoms: C_24  and  C_25 
ROOT
HETATM    1  N   UNL     1      42.647 -16.826   4.062  1.00  0.00    -0.325 N 
HETATM    2  C   UNL     1      41.293 -16.725   4.327  1.00  0.00     0.248 C 
HETATM    3  O   UNL     1      40.610 -17.518   4.973  1.00  0.00    -0.271 OA
HETATM    4  H   UNL     1      42.964 -16.433   3.184  1.00  0.00     0.169 HD
ENDROOT
BRANCH   2   5
HETATM    5  C   UNL     1      40.641 -15.485   3.711  1.00  0.00     0.337 C 
BRANCH   5   6
HETATM    6  N   UNL     1      41.216 -15.153   2.340  1.00  0.00    -0.060 N 
HETATM    7  H   UNL     1      42.225 -15.359   2.401  1.00  0.00     0.280 HD
HETATM    8  C   UNL     1      40.685 -16.067   1.229  1.00  0.00     0.255 C 
HETATM    9  C   UNL     1      41.373 -15.727  -0.108  1.00  0.00     0.150 C 
HETATM   10  N   UNL     1      41.230 -14.299  -0.429  1.00  0.00    -0.375 N 
HETATM   11  C   UNL     1      41.698 -13.369   0.616  1.00  0.00     0.150 C 
HETATM   12  C   UNL     1      41.036 -13.689   1.972  1.00  0.00     0.255 C 
BRANCH  10  13
HETATM   13  C   UNL     1      40.249 -13.843  -1.319  1.00  0.00     0.064 A 
HETATM   14  C   UNL     1      40.570 -13.425  -2.641  1.00  0.00     0.094 A 
HETATM   15  C   UNL     1      39.571 -12.947  -3.503  1.00  0.00     0.039 A 
HETATM   16  C   UNL     1      38.241 -12.911  -3.095  1.00  0.00     0.003 A 
HETATM   17  C   UNL     1      37.898 -13.354  -1.827  1.00  0.00     0.002 A 
HETATM   18  C   UNL     1      38.889 -13.816  -0.956  1.00  0.00     0.032 A 
BRANCH  14  19
HETATM   19  O   UNL     1      41.890 -13.536  -3.022  1.00  0.00    -0.354 OA
HETATM   20  C   UNL     1      42.664 -12.341  -3.038  1.00  0.00     0.210 C 
ENDBRANCH  14  19
ENDBRANCH  10  13
ENDBRANCH   5   6
ENDBRANCH   2   5
BRANCH   1  21
HETATM   21  C   UNL     1      43.429 -17.901   4.553  1.00  0.00     0.048 A 
HETATM   22  C   UNL     1      43.800 -17.902   5.925  1.00  0.00    -0.027 A 
HETATM   23  C   UNL     1      44.539 -18.995   6.415  1.00  0.00     0.010 A 
HETATM   24  C   UNL     1      44.878 -20.064   5.594  1.00  0.00     0.001 A 
HETATM   25  C   UNL     1      44.490 -20.063   4.259  1.00  0.00     0.010 A 
HETATM   26  C   UNL     1      43.761 -18.991   3.708  1.00  0.00    -0.027 A 
BRANCH  22  27
HETATM   27  C   UNL     1      43.558 -16.713   6.856  1.00  0.00     0.013 C 
HETATM   28  C   UNL     1      44.690 -15.690   6.701  1.00  0.00     0.015 C 
HETATM   29  C   UNL     1      43.378 -17.100   8.329  1.00  0.00     0.015 C 
ENDBRANCH  22  27
BRANCH  26  30
HETATM   30  C   UNL     1      43.284 -19.120   2.263  1.00  0.00     0.013 C 
HETATM   31  C   UNL     1      43.940 -18.087   1.339  1.00  0.00     0.015 C 
HETATM   32  C   UNL     1      43.505 -20.541   1.733  1.00  0.00     0.015 C 
ENDBRANCH  26  30
ENDBRANCH   1  21
TORSDOF 7
ENDMDL
MODEL 6
REMARK VINA RESULT:      -8.0      4.509      9.595
REMARK  7 active torsions:
REMARK  status: ('A' for Active; 'I' for Inactive)
REMARK    1  A    between atoms: C_2  and  C_3 
REMARK    2  A    between atoms: C_4  and  N_5 
REMARK       I    between atoms: N_5  and  C_6 
REMARK    3  A    between atoms: C_6  and  C_7 
REMARK    4  A    between atoms: C_7  and  N_8 
REMARK    5  A    between atoms: N_12  and  C_13 
REMARK    6  A    between atoms: C_14  and  O_15 
REMARK    7  A    between atoms: C_24  and  C_25 
ROOT
HETATM    1  N   UNL     1      41.554 -11.287   8.553  1.00  0.00    -0.325 N 
HETATM    2  C   UNL     1      41.688 -10.801   7.265  1.00  0.00     0.248 C 
HETATM    3  O   UNL     1      42.135  -9.703   6.937  1.00  0.00    -0.271 OA
HETATM    4  H   UNL     1      40.782 -11.921   8.717  1.00  0.00     0.169 HD
ENDROOT
BRANCH   2   5
HETATM    5  C   UNL     1      41.197 -11.774   6.190  1.00  0.00     0.337 C 
BRANCH   5   6
HETATM    6  N   UNL     1      41.676 -13.198   6.441  1.00  0.00    -0.060 N 
HETATM    7  H   UNL     1      41.575 -13.354   7.457  1.00  0.00     0.280 HD
HETATM    8  C   UNL     1      40.783 -14.256   5.783  1.00  0.00     0.255 C 
HETATM    9  C   UNL     1      41.280 -15.669   6.150  1.00  0.00     0.150 C 
HETATM   10  N   UNL     1      42.702 -15.835   5.813  1.00  0.00    -0.375 N 
HETATM   11  C   UNL     1      43.608 -14.827   6.396  1.00  0.00     0.150 C 
HETATM   12  C   UNL     1      43.133 -13.400   6.056  1.00  0.00     0.255 C 
BRANCH  10  13
HETATM   13  C   UNL     1      43.105 -16.474   4.634  1.00  0.00     0.064 A 
HETATM   14  C   UNL     1      43.442 -17.857   4.607  1.00  0.00     0.094 A 
HETATM   15  C   UNL     1      43.871 -18.465   3.416  1.00  0.00     0.039 A 
HETATM   16  C   UNL     1      43.934 -17.738   2.231  1.00  0.00     0.003 A 
HETATM   17  C   UNL     1      43.568 -16.401   2.225  1.00  0.00     0.002 A 
HETATM   18  C   UNL     1      43.158 -15.782   3.409  1.00  0.00     0.032 A 
BRANCH  14  19
HETATM   19  O   UNL     1      43.306 -18.551   5.789  1.00  0.00    -0.354 OA
HETATM   20  C   UNL     1      44.496 -18.827   6.522  1.00  0.00     0.210 C 
ENDBRANCH  14  19
ENDBRANCH  10  13
ENDBRANCH   5   6
ENDBRANCH   2   5
BRANCH   1  21
HETATM   21  C   UNL     1      41.960 -10.536   9.683  1.00  0.00     0.048 A 
HETATM   22  C   UNL     1      41.083  -9.538  10.190  1.00  0.00    -0.027 A 
HETATM   23  C   UNL     1      41.475  -8.826  11.339  1.00  0.00     0.010 A 
HETATM   24  C   UNL     1      42.672  -9.105  11.987  1.00  0.00     0.001 A 
HETATM   25  C   UNL     1      43.512 -10.097  11.496  1.00  0.00     0.010 A 
HETATM   26  C   UNL     1      43.181 -10.834  10.343  1.00  0.00    -0.027 A 
BRANCH  22  27
HETATM   27  C   UNL     1      39.807  -9.105   9.467  1.00  0.00     0.013 C 
HETATM   28  C   UNL     1      39.907  -7.627   9.070  1.00  0.00     0.015 C 
HETATM   29  C   UNL     1      38.522  -9.364  10.262  1.00  0.00     0.015 C 
ENDBRANCH  22  27
BRANCH  26  30
HETATM   30  C   UNL     1      44.107 -11.977   9.934  1.00  0.00     0.013 C 
HETATM   31  C   UNL     1      45.278 -11.499   9.069  1.00  0.00     0.015 C 
HETATM   32  C   UNL     1      44.616 -12.741  11.163  1.00  0.00     0.015 C 
ENDBRANCH  26  30
ENDBRANCH   1  21
TORSDOF 7
ENDMDL
MODEL 7
REMARK VINA RESULT:      -7.9      2.317      3.983
REMARK  7 active torsions:
REMARK  status: ('A' for Active; 'I' for Inactive)
REMARK    1  A    between atoms: C_2  and  C_3 
REMARK    2  A    between atoms: C_4  and  N_5 
REMARK       I    between atoms: N_5  and  C_6 
REMARK    3  A    between atoms: C_6  and  C_7 
REMARK    4  A    between atoms: C_7  and  N_8 
REMARK    5  A    between atoms: N_12  and  C_13 
REMARK    6  A    between atoms: C_14  and  O_15 
REMARK    7  A    between atoms: C_24  and  C_25 
ROOT
HETATM    1  N   UNL     1      42.909 -17.297   5.265  1.00  0.00    -0.325 N 
HETATM    2  C   UNL     1      41.543 -17.081   5.276  1.00  0.00     0.248 C 
HETATM    3  O   UNL     1      40.675 -17.845   4.855  1.00  0.00    -0.271 OA
HETATM    4  H   UNL     1      43.494 -16.476   5.171  1.00  0.00     0.169 HD
ENDROOT
BRANCH   2   5
HETATM    5  C   UNL     1      41.143 -15.728   5.870  1.00  0.00     0.337 C 
BRANCH   5   6
HETATM    6  N   UNL     1      41.432 -14.574   4.920  1.00  0.00    -0.060 N 
HETATM    7  H   UNL     1      41.659 -13.765   5.520  1.00  0.00     0.280 HD
HETATM    8  C   UNL     1      42.684 -14.801   4.064  1.00  0.00     0.255 C 
HETATM    9  C   UNL     1      42.960 -13.560   3.191  1.00  0.00     0.150 C 
HETATM   10  N   UNL     1      41.779 -13.202   2.391  1.00  0.00    -0.375 N 
HETATM   11  C   UNL     1      40.536 -12.999   3.158  1.00  0.00     0.150 C 
HETATM   12  C   UNL     1      40.236 -14.220   4.051  1.00  0.00     0.255 C 
BRANCH  10  13
HETATM   13  C   UNL     1      41.664 -13.581   1.047  1.00  0.00     0.064 A 
HETATM   14  C   UNL     1      42.096 -12.733  -0.012  1.00  0.00     0.094 A 
HETATM   15  C   UNL     1      41.943 -13.126  -1.351  1.00  0.00     0.039 A 
HETATM   16  C   UNL     1      41.405 -14.370  -1.668  1.00  0.00     0.003 A 
HETATM   17  C   UNL     1      41.017 -15.230  -0.652  1.00  0.00     0.002 A 
HETATM   18  C   UNL     1      41.149 -14.840   0.684  1.00  0.00     0.032 A 
BRANCH  14  19
HETATM   19  O   UNL     1      42.679 -11.538   0.350  1.00  0.00    -0.354 OA
HETATM   20  C   UNL     1      42.381 -10.400  -0.452  1.00  0.00     0.210 C 
ENDBRANCH  14  19
ENDBRANCH  10  13
ENDBRANCH   5   6
ENDBRANCH   2   5
BRANCH   1  21
HETATM   21  C   UNL     1      43.474 -18.494   4.761  1.00  0.00     0.048 A 
HETATM   22  C   UNL     1      43.723 -18.596   3.365  1.00  0.00    -0.027 A 
HETATM   23  C   UNL     1      44.325 -19.771   2.879  1.00  0.00     0.010 A 
HETATM   24  C   UNL     1      44.698 -20.799   3.736  1.00  0.00     0.001 A 
HETATM   25  C   UNL     1      44.470 -20.680   5.102  1.00  0.00     0.010 A 
HETATM   26  C   UNL     1      43.859 -19.534   5.646  1.00  0.00    -0.027 A 
BRANCH  22  27
HETATM   27  C   UNL     1      43.241 -17.555   2.354  1.00  0.00     0.013 C 
HETATM   28  C   UNL     1      41.992 -18.070   1.629  1.00  0.00     0.015 C 
HETATM   29  C   UNL     1      44.311 -17.124   1.344  1.00  0.00     0.015 C 
ENDBRANCH  22  27
BRANCH  26  30
HETATM   30  C   UNL     1      43.744 -19.438   7.166  1.00  0.00     0.013 C 
HETATM   31  C   UNL     1      43.689 -20.817   7.834  1.00  0.00     0.015 C 
HETATM   32  C   UNL     1      44.883 -18.596   7.754  1.00  0.00     0.015 C 
ENDBRANCH  26  30
ENDBRANCH   1  21
TORSDOF 7
ENDMDL
MODEL 8
REMARK VINA RESULT:      -7.8      2.651      4.965
REMARK  7 active torsions:
REMARK  status: ('A' for Active; 'I' for Inactive)
REMARK    1  A    between atoms: C_2  and  C_3 
REMARK    2  A    between atoms: C_4  and  N_5 
REMARK       I    between atoms: N_5  and  C_6 
REMARK    3  A    between atoms: C_6  and  C_7 
REMARK    4  A    between atoms: C_7  and  N_8 
REMARK    5  A    between atoms: N_12  and  C_13 
REMARK    6  A    between atoms: C_14  and  O_15 
REMARK    7  A    between atoms: C_24  and  C_25 
ROOT
HETATM    1  N   UNL     1      42.587 -15.373   4.251  1.00  0.00    -0.325 N 
HETATM    2  C   UNL     1      41.293 -14.999   4.569  1.00  0.00     0.248 C 
HETATM    3  O   UNL     1      40.409 -15.725   5.021  1.00  0.00    -0.271 OA
HETATM    4  H   UNL     1      43.025 -14.874   3.487  1.00  0.00     0.169 HD
ENDROOT
BRANCH   2   5
HETATM    5  C   UNL     1      40.997 -13.524   4.288  1.00  0.00     0.337 C 
BRANCH   5   6
HETATM    6  N   UNL     1      40.055 -13.341   3.106  1.00  0.00    -0.060 N 
HETATM    7  H   UNL     1      39.265 -12.778   3.459  1.00  0.00     0.280 HD
HETATM    8  C   UNL     1      40.666 -12.507   1.974  1.00  0.00     0.255 C 
HETATM    9  C   UNL     1      39.628 -12.295   0.854  1.00  0.00     0.150 C 
HETATM   10  N   UNL     1      39.084 -13.578   0.385  1.00  0.00    -0.375 N 
HETATM   11  C   UNL     1      38.507 -14.439   1.435  1.00  0.00     0.150 C 
HETATM   12  C   UNL     1      39.518 -14.663   2.578  1.00  0.00     0.255 C 
BRANCH  10  13
HETATM   13  C   UNL     1      39.565 -14.197  -0.776  1.00  0.00     0.064 A 
HETATM   14  C   UNL     1      38.898 -14.068  -2.027  1.00  0.00     0.094 A 
HETATM   15  C   UNL     1      39.387 -14.721  -3.170  1.00  0.00     0.039 A 
HETATM   16  C   UNL     1      40.556 -15.473  -3.110  1.00  0.00     0.003 A 
HETATM   17  C   UNL     1      41.247 -15.577  -1.912  1.00  0.00     0.002 A 
HETATM   18  C   UNL     1      40.758 -14.945  -0.765  1.00  0.00     0.032 A 
BRANCH  14  19
HETATM   19  O   UNL     1      37.779 -13.264  -2.052  1.00  0.00    -0.354 OA
HETATM   20  C   UNL     1      37.882 -12.028  -2.752  1.00  0.00     0.210 C 
ENDBRANCH  14  19
ENDBRANCH  10  13
ENDBRANCH   5   6
ENDBRANCH   2   5
BRANCH   1  21
HETATM   21  C   UNL     1      43.054 -16.696   4.448  1.00  0.00     0.048 A 
HETATM   22  C   UNL     1      43.220 -17.536   3.312  1.00  0.00    -0.027 A 
HETATM   23  C   UNL     1      43.726 -18.833   3.511  1.00  0.00     0.010 A 
HETATM   24  C   UNL     1      44.086 -19.282   4.776  1.00  0.00     0.001 A 
HETATM   25  C   UNL     1      43.941 -18.445   5.876  1.00  0.00     0.010 A 
HETATM   26  C   UNL     1      43.427 -17.141   5.743  1.00  0.00    -0.027 A 
BRANCH  22  27
HETATM   27  C   UNL     1      42.743 -17.148   1.912  1.00  0.00     0.013 C 
HETATM   28  C   UNL     1      41.341 -17.716   1.662  1.00  0.00     0.015 C 
HETATM   29  C   UNL     1      43.702 -17.565   0.790  1.00  0.00     0.015 C 
ENDBRANCH  22  27
BRANCH  26  30
HETATM   30  C   UNL     1      43.401 -16.251   6.984  1.00  0.00     0.013 C 
HETATM   31  C   UNL     1      43.405 -17.064   8.283  1.00  0.00     0.015 C 
HETATM   32  C   UNL     1      44.560 -15.248   6.968  1.00  0.00     0.015 C 
ENDBRANCH  26  30
ENDBRANCH   1  21
TORSDOF 7
ENDMDL
MODEL 9
REMARK VINA RESULT:      -7.8      4.554      9.411
REMARK  7 active torsions:
REMARK  status: ('A' for Active; 'I' for Inactive)
REMARK    1  A    between atoms: C_2  and  C_3 
REMARK    2  A    between atoms: C_4  and  N_5 
REMARK       I    between atoms: N_5  and  C_6 
REMARK    3  A    between atoms: C_6  and  C_7 
REMARK    4  A    between atoms: C_7  and  N_8 
REMARK    5  A    between atoms: N_12  and  C_13 
REMARK    6  A    between atoms: C_14  and  O_15 
REMARK    7  A    between atoms: C_24  and  C_25 
ROOT
HETATM    1  N   UNL     1      41.644 -11.101   8.450  1.00  0.00    -0.325 N 
HETATM    2  C   UNL     1      41.740 -10.532   7.192  1.00  0.00     0.248 C 
HETATM    3  O   UNL     1      42.046  -9.369   6.934  1.00  0.00    -0.271 OA
HETATM    4  H   UNL     1      40.958 -11.838   8.559  1.00  0.00     0.169 HD
ENDROOT
BRANCH   2   5
HETATM    5  C   UNL     1      41.401 -11.500   6.056  1.00  0.00     0.337 C 
BRANCH   5   6
HETATM    6  N   UNL     1      41.767 -12.938   6.397  1.00  0.00    -0.060 N 
HETATM    7  H   UNL     1      41.598 -13.039   7.410  1.00  0.00     0.280 HD
HETATM    8  C   UNL     1      40.843 -13.966   5.733  1.00  0.00     0.255 C 
HETATM    9  C   UNL     1      41.221 -15.389   6.190  1.00  0.00     0.150 C 
HETATM   10  N   UNL     1      42.645 -15.663   5.946  1.00  0.00    -0.375 N 
HETATM   11  C   UNL     1      43.583 -14.690   6.538  1.00  0.00     0.150 C 
HETATM   12  C   UNL     1      43.226 -13.252   6.108  1.00  0.00     0.255 C 
BRANCH  10  13
HETATM   13  C   UNL     1      43.070 -16.382   4.822  1.00  0.00     0.064 A 
HETATM   14  C   UNL     1      43.438 -17.755   4.904  1.00  0.00     0.094 A 
HETATM   15  C   UNL     1      43.888 -18.444   3.766  1.00  0.00     0.039 A 
HETATM   16  C   UNL     1      43.943 -17.810   2.529  1.00  0.00     0.003 A 
HETATM   17  C   UNL     1      43.548 -16.485   2.417  1.00  0.00     0.002 A 
HETATM   18  C   UNL     1      43.116 -15.786   3.547  1.00  0.00     0.032 A 
BRANCH  14  19
HETATM   19  O   UNL     1      43.309 -18.358   6.136  1.00  0.00    -0.354 OA
HETATM   20  C   UNL     1      43.871 -19.658   6.285  1.00  0.00     0.210 C 
ENDBRANCH  14  19
ENDBRANCH  10  13
ENDBRANCH   5   6
ENDBRANCH   2   5
BRANCH   1  21
HETATM   21  C   UNL     1      41.926 -10.367   9.628  1.00  0.00     0.048 A 
HETATM   22  C   UNL     1      43.189 -10.544  10.256  1.00  0.00    -0.027 A 
HETATM   23  C   UNL     1      43.478  -9.780  11.401  1.00  0.00     0.010 A 
HETATM   24  C   UNL     1      42.571  -8.851  11.897  1.00  0.00     0.001 A 
HETATM   25  C   UNL     1      41.348  -8.670  11.263  1.00  0.00     0.010 A 
HETATM   26  C   UNL     1      40.996  -9.415  10.121  1.00  0.00    -0.027 A 
BRANCH  22  27
HETATM   27  C   UNL     1      44.187 -11.623   9.831  1.00  0.00     0.013 C 
HETATM   28  C   UNL     1      44.335 -12.665  10.946  1.00  0.00     0.015 C 
HETATM   29  C   UNL     1      45.558 -11.076   9.418  1.00  0.00     0.015 C 
ENDBRANCH  22  27
BRANCH  26  30
HETATM   30  C   UNL     1      39.680  -9.078   9.424  1.00  0.00     0.013 C 
HETATM   31  C   UNL     1      38.629 -10.180   9.598  1.00  0.00     0.015 C 
HETATM   32  C   UNL     1      39.133  -7.727   9.901  1.00  0.00     0.015 C 
ENDBRANCH  26  30
ENDBRANCH   1  21
TORSDOF 7
ENDMDL
MODEL 10
REMARK VINA RESULT:      -7.7      1.532      2.029
REMARK  7 active torsions:
REMARK  status: ('A' for Active; 'I' for Inactive)
REMARK    1  A    between atoms: C_2  and  C_3 
REMARK    2  A    between atoms: C_4  and  N_5 
REMARK       I    between atoms: N_5  and  C_6 
REMARK    3  A    between atoms: C_6  and  C_7 
REMARK    4  A    between atoms: C_7  and  N_8 
REMARK    5  A    between atoms: N_12  and  C_13 
REMARK    6  A    between atoms: C_14  and  O_15 
REMARK    7  A    between atoms: C_24  and  C_25 
ROOT
HETATM    1  N   UNL     1      42.242 -17.726   5.104  1.00  0.00    -0.325 N 
HETATM    2  C   UNL     1      42.613 -16.489   5.599  1.00  0.00     0.248 C 
HETATM    3  O   UNL     1      43.754 -16.031   5.650  1.00  0.00    -0.271 OA
HETATM    4  H   UNL     1      41.437 -18.161   5.537  1.00  0.00     0.169 HD
ENDROOT
BRANCH   2   5
HETATM    5  C   UNL     1      41.438 -15.668   6.136  1.00  0.00     0.337 C 
BRANCH   5   6
HETATM    6  N   UNL     1      41.221 -14.388   5.341  1.00  0.00    -0.060 N 
HETATM    7  H   UNL     1      41.898 -13.705   5.715  1.00  0.00     0.280 HD
HETATM    8  C   UNL     1      41.577 -14.535   3.857  1.00  0.00     0.255 C 
HETATM    9  C   UNL     1      41.413 -13.181   3.137  1.00  0.00     0.150 C 
HETATM   10  N   UNL     1      40.065 -12.631   3.346  1.00  0.00    -0.375 N 
HETATM   11  C   UNL     1      39.654 -12.492   4.756  1.00  0.00     0.150 C 
HETATM   12  C   UNL     1      39.817 -13.828   5.509  1.00  0.00     0.255 C 
BRANCH  10  13
HETATM   13  C   UNL     1      39.059 -12.771   2.382  1.00  0.00     0.064 A 
HETATM   14  C   UNL     1      38.357 -11.648   1.860  1.00  0.00     0.094 A 
HETATM   15  C   UNL     1      37.334 -11.820   0.914  1.00  0.00     0.039 A 
HETATM   16  C   UNL     1      37.014 -13.088   0.438  1.00  0.00     0.003 A 
HETATM   17  C   UNL     1      37.714 -14.192   0.900  1.00  0.00     0.002 A 
HETATM   18  C   UNL     1      38.723 -14.033   1.855  1.00  0.00     0.032 A 
BRANCH  14  19
HETATM   19  O   UNL     1      38.748 -10.407   2.314  1.00  0.00    -0.354 OA
HETATM   20  C   UNL     1      38.735  -9.337   1.375  1.00  0.00     0.210 C 
ENDBRANCH  14  19
ENDBRANCH  10  13
ENDBRANCH   5   6
ENDBRANCH   2   5
BRANCH   1  21
HETATM   21  C   UNL     1      43.186 -18.629   4.556  1.00  0.00     0.048 A 
HETATM   22  C   UNL     1      43.745 -19.627   5.400  1.00  0.00    -0.027 A 
HETATM   23  C   UNL     1      44.649 -20.546   4.838  1.00  0.00     0.010 A 
HETATM   24  C   UNL     1      44.972 -20.508   3.487  1.00  0.00     0.001 A 
HETATM   25  C   UNL     1      44.403 -19.542   2.665  1.00  0.00     0.010 A 
HETATM   26  C   UNL     1      43.502 -18.585   3.173  1.00  0.00    -0.027 A 
BRANCH  22  27
HETATM   27  C   UNL     1      43.521 -19.660   6.913  1.00  0.00     0.013 C 
HETATM   28  C   UNL     1      44.574 -18.796   7.616  1.00  0.00     0.015 C 
HETATM   29  C   UNL     1      43.497 -21.074   7.508  1.00  0.00     0.015 C 
ENDBRANCH  22  27
BRANCH  26  30
HETATM   30  C   UNL     1      42.842 -17.629   2.183  1.00  0.00     0.013 C 
HETATM   31  C   UNL     1      43.770 -17.262   1.019  1.00  0.00     0.015 C 
HETATM   32  C   UNL     1      41.518 -18.200   1.662  1.00  0.00     0.015 C 
ENDBRANCH  26  30
ENDBRANCH   1  21
TORSDOF 7
ENDMDL
