MODEL 1
REMARK VINA RESULT:      -8.8      0.000      0.000
REMARK  5 active torsions:
REMARK  status: ('A' for Active; 'I' for Inactive)
REMARK    1  A    between atoms: C_6  and  C_7 
REMARK    2  A    between atoms: C_7  and  N_8 
REMARK       I    between atoms: N_8  and  C_9 
REMARK       I    between atoms: C_9  and  N_10 
REMARK    3  A    between atoms: N_10  and  C_11 
REMARK    4  A    between atoms: C_13  and  C_14 
REMARK       I    between atoms: C_14  and  N_15 
REMARK    5  A    between atoms: N_15  and  C_16 
ROOT
HETATM    1  C   UNL     1      43.345 -18.223   3.783  1.00  0.00     0.036 A 
HETATM    2  C   UNL     1      43.388 -19.274   2.865  1.00  0.00     0.052 A 
HETATM    3  C   UNL     1      44.223 -20.377   3.090  1.00  0.00     0.046 A 
HETATM    4  C   UNL     1      44.266 -21.452   2.143  1.00  0.00     0.099 C 
HETATM    5  N   UNL     1      44.316 -22.332   1.387  1.00  0.00    -0.191 NA
HETATM    6  C   UNL     1      45.018 -20.432   4.240  1.00  0.00     0.023 A 
HETATM    7  C   UNL     1      44.976 -19.390   5.162  1.00  0.00     0.004 A 
HETATM    8  C   UNL     1      44.144 -18.291   4.933  1.00  0.00     0.029 A 
ENDROOT
BRANCH   1   9
HETATM    9  N   UNL     1      42.537 -17.075   3.635  1.00  0.00    -0.323 N 
HETATM   10  C   UNL     1      41.365 -16.777   4.308  1.00  0.00     0.256 C 
HETATM   11  O   UNL     1      40.792 -17.489   5.124  1.00  0.00    -0.267 OA
HETATM   12  H   UNL     1      42.837 -16.424   2.920  1.00  0.00     0.169 HD
BRANCH  10  13
HETATM   13  C   UNL     1      40.735 -15.473   3.943  1.00  0.00     0.034 A 
HETATM   14  C   UNL     1      40.388 -15.166   2.619  1.00  0.00     0.046 A 
HETATM   15  C   UNL     1      39.747 -13.962   2.319  1.00  0.00     0.037 A 
HETATM   16  C   UNL     1      39.511 -13.040   3.344  1.00  0.00     0.029 A 
HETATM   17  C   UNL     1      39.890 -13.322   4.658  1.00  0.00     0.003 A 
HETATM   18  C   UNL     1      40.498 -14.540   4.958  1.00  0.00     0.017 A 
BRANCH  15  19
HETATM   19  N   UNL     1      39.318 -13.611   1.022  1.00  0.00    -0.309 N 
HETATM   20  C   UNL     1      38.115 -13.896   0.439  1.00  0.00     0.321 C 
HETATM   21  N   UNL     1      37.966 -13.491  -0.854  1.00  0.00    -0.337 N 
HETATM   22  O   UNL     1      37.167 -14.472   0.969  1.00  0.00    -0.247 OA
HETATM   23  H   UNL     1      37.068 -13.756  -1.238  1.00  0.00     0.164 HD
HETATM   24  H   UNL     1      39.877 -12.902   0.556  1.00  0.00     0.170 HD
BRANCH  21  25
HETATM   25  C   UNL     1      38.975 -12.999  -1.770  1.00  0.00     0.186 C 
BRANCH  25  26
HETATM   26  C   UNL     1      39.600 -14.140  -2.488  1.00  0.00     0.083 A 
HETATM   27  C   UNL     1      39.056 -15.012  -3.409  1.00  0.00     0.076 A 
HETATM   28  C   UNL     1      37.728 -15.178  -4.023  1.00  0.00     0.079 C 
HETATM   29  O   UNL     1      40.042 -15.873  -3.802  1.00  0.00    -0.307 OA
HETATM   30  C   UNL     1      41.136 -15.467  -3.103  1.00  0.00     0.258 A 
HETATM   31  N   UNL     1      40.940 -14.438  -2.307  1.00  0.00    -0.237 NA
ENDBRANCH  25  26
ENDBRANCH  21  25
ENDBRANCH  15  19
ENDBRANCH  10  13
ENDBRANCH   1   9
TORSDOF 5
ENDMDL
MODEL 2
REMARK VINA RESULT:      -8.7      6.549     10.246
REMARK  5 active torsions:
REMARK  status: ('A' for Active; 'I' for Inactive)
REMARK    1  A    between atoms: C_6  and  C_7 
REMARK    2  A    between atoms: C_7  and  N_8 
REMARK       I    between atoms: N_8  and  C_9 
REMARK       I    between atoms: C_9  and  N_10 
REMARK    3  A    between atoms: N_10  and  C_11 
REMARK    4  A    between atoms: C_13  and  C_14 
REMARK       I    between atoms: C_14  and  N_15 
REMARK    5  A    between atoms: N_15  and  C_16 
ROOT
HETATM    1  C   UNL     1      42.389 -11.177  11.505  1.00  0.00     0.036 A 
HETATM    2  C   UNL     1      41.089 -10.698  11.324  1.00  0.00     0.052 A 
HETATM    3  C   UNL     1      40.375 -10.160  12.403  1.00  0.00     0.046 A 
HETATM    4  C   UNL     1      39.041  -9.673  12.211  1.00  0.00     0.099 C 
HETATM    5  N   UNL     1      37.959  -9.274  12.078  1.00  0.00    -0.191 NA
HETATM    6  C   UNL     1      40.963 -10.096  13.671  1.00  0.00     0.023 A 
HETATM    7  C   UNL     1      42.260 -10.568  13.858  1.00  0.00     0.004 A 
HETATM    8  C   UNL     1      42.967 -11.105  12.780  1.00  0.00     0.029 A 
ENDROOT
BRANCH   1   9
HETATM    9  N   UNL     1      43.177 -11.736  10.477  1.00  0.00    -0.323 N 
HETATM   10  C   UNL     1      44.309 -11.194   9.893  1.00  0.00     0.256 C 
HETATM   11  O   UNL     1      44.801 -10.098  10.137  1.00  0.00    -0.267 OA
HETATM   12  H   UNL     1      42.840 -12.614  10.101  1.00  0.00     0.169 HD
BRANCH  10  13
HETATM   13  C   UNL     1      44.939 -12.031   8.829  1.00  0.00     0.034 A 
HETATM   14  C   UNL     1      44.235 -13.058   8.184  1.00  0.00     0.046 A 
HETATM   15  C   UNL     1      44.834 -13.784   7.152  1.00  0.00     0.037 A 
HETATM   16  C   UNL     1      46.165 -13.516   6.811  1.00  0.00     0.029 A 
HETATM   17  C   UNL     1      46.884 -12.521   7.477  1.00  0.00     0.003 A 
HETATM   18  C   UNL     1      46.271 -11.776   8.482  1.00  0.00     0.017 A 
BRANCH  15  19
HETATM   19  N   UNL     1      44.170 -14.791   6.422  1.00  0.00    -0.309 N 
HETATM   20  C   UNL     1      43.736 -16.003   6.883  1.00  0.00     0.321 C 
HETATM   21  N   UNL     1      43.168 -16.827   5.957  1.00  0.00    -0.337 N 
HETATM   22  O   UNL     1      43.806 -16.409   8.041  1.00  0.00    -0.247 OA
HETATM   23  H   UNL     1      42.895 -17.717   6.353  1.00  0.00     0.164 HD
HETATM   24  H   UNL     1      43.796 -14.503   5.523  1.00  0.00     0.170 HD
BRANCH  21  25
HETATM   25  C   UNL     1      43.158 -16.695   4.515  1.00  0.00     0.186 C 
BRANCH  25  26
HETATM   26  C   UNL     1      43.658 -17.949   3.893  1.00  0.00     0.083 A 
HETATM   27  C   UNL     1      44.016 -18.206   2.585  1.00  0.00     0.076 A 
HETATM   28  C   UNL     1      44.045 -17.417   1.342  1.00  0.00     0.079 C 
HETATM   29  O   UNL     1      44.441 -19.504   2.516  1.00  0.00    -0.307 OA
HETATM   30  C   UNL     1      44.328 -19.959   3.792  1.00  0.00     0.258 A 
HETATM   31  N   UNL     1      43.873 -19.081   4.660  1.00  0.00    -0.237 NA
ENDBRANCH  25  26
ENDBRANCH  21  25
ENDBRANCH  15  19
ENDBRANCH  10  13
ENDBRANCH   1   9
TORSDOF 5
ENDMDL
MODEL 3
REMARK VINA RESULT:      -8.6      4.720      8.208
REMARK  5 active torsions:
REMARK  status: ('A' for Active; 'I' for Inactive)
REMARK    1  A    between atoms: C_6  and  C_7 
REMARK    2  A    between atoms: C_7  and  N_8 
REMARK       I    between atoms: N_8  and  C_9 
REMARK       I    between atoms: C_9  and  N_10 
REMARK    3  A    between atoms: N_10  and  C_11 
REMARK    4  A    between atoms: C_13  and  C_14 
REMARK       I    between atoms: C_14  and  N_15 
REMARK    5  A    between atoms: N_15  and  C_16 
ROOT
HETATM    1  C   UNL     1      43.843 -18.476   4.391  1.00  0.00     0.036 A 
HETATM    2  C   UNL     1      43.827 -19.287   3.254  1.00  0.00     0.052 A 
HETATM    3  C   UNL     1      44.239 -20.624   3.331  1.00  0.00     0.046 A 
HETATM    4  C   UNL     1      44.224 -21.450   2.160  1.00  0.00     0.099 C 
HETATM    5  N   UNL     1      44.220 -22.136   1.223  1.00  0.00    -0.191 NA
HETATM    6  C   UNL     1      44.668 -21.156   4.552  1.00  0.00     0.023 A 
HETATM    7  C   UNL     1      44.682 -20.355   5.691  1.00  0.00     0.004 A 
HETATM    8  C   UNL     1      44.272 -19.022   5.609  1.00  0.00     0.029 A 
ENDROOT
BRANCH   1   9
HETATM    9  N   UNL     1      43.448 -17.122   4.403  1.00  0.00    -0.323 N 
HETATM   10  C   UNL     1      42.160 -16.618   4.332  1.00  0.00     0.256 C 
HETATM   11  O   UNL     1      41.131 -17.268   4.195  1.00  0.00    -0.267 OA
HETATM   12  H   UNL     1      44.206 -16.450   4.421  1.00  0.00     0.169 HD
BRANCH  10  13
HETATM   13  C   UNL     1      42.056 -15.129   4.379  1.00  0.00     0.034 A 
HETATM   14  C   UNL     1      41.766 -14.447   5.569  1.00  0.00     0.046 A 
HETATM   15  C   UNL     1      41.733 -13.050   5.592  1.00  0.00     0.037 A 
HETATM   16  C   UNL     1      41.933 -12.343   4.401  1.00  0.00     0.029 A 
HETATM   17  C   UNL     1      42.183 -13.018   3.204  1.00  0.00     0.003 A 
HETATM   18  C   UNL     1      42.249 -14.410   3.194  1.00  0.00     0.017 A 
BRANCH  15  19
HETATM   19  N   UNL     1      41.504 -12.296   6.761  1.00  0.00    -0.309 N 
HETATM   20  C   UNL     1      40.315 -11.781   7.197  1.00  0.00     0.321 C 
HETATM   21  N   UNL     1      40.368 -11.036   8.337  1.00  0.00    -0.337 N 
HETATM   22  O   UNL     1      39.217 -11.930   6.664  1.00  0.00    -0.247 OA
HETATM   23  H   UNL     1      39.464 -10.659   8.591  1.00  0.00     0.164 HD
HETATM   24  H   UNL     1      42.253 -12.316   7.446  1.00  0.00     0.170 HD
BRANCH  21  25
HETATM   25  C   UNL     1      41.533 -10.528   9.032  1.00  0.00     0.186 C 
BRANCH  25  26
HETATM   26  C   UNL     1      41.444 -10.868  10.476  1.00  0.00     0.083 A 
HETATM   27  C   UNL     1      42.440 -10.960  11.427  1.00  0.00     0.076 A 
HETATM   28  C   UNL     1      43.902 -10.782  11.420  1.00  0.00     0.079 C 
HETATM   29  O   UNL     1      41.851 -11.276  12.620  1.00  0.00    -0.307 OA
HETATM   30  C   UNL     1      40.525 -11.347  12.327  1.00  0.00     0.258 A 
HETATM   31  N   UNL     1      40.217 -11.110  11.070  1.00  0.00    -0.237 NA
ENDBRANCH  25  26
ENDBRANCH  21  25
ENDBRANCH  15  19
ENDBRANCH  10  13
ENDBRANCH   1   9
TORSDOF 5
ENDMDL
MODEL 4
REMARK VINA RESULT:      -8.3      4.933      7.197
REMARK  5 active torsions:
REMARK  status: ('A' for Active; 'I' for Inactive)
REMARK    1  A    between atoms: C_6  and  C_7 
REMARK    2  A    between atoms: C_7  and  N_8 
REMARK       I    between atoms: N_8  and  C_9 
REMARK       I    between atoms: C_9  and  N_10 
REMARK    3  A    between atoms: N_10  and  C_11 
REMARK    4  A    between atoms: C_13  and  C_14 
REMARK       I    between atoms: C_14  and  N_15 
REMARK    5  A    between atoms: N_15  and  C_16 
ROOT
HETATM    1  C   UNL     1      44.951 -12.912   8.553  1.00  0.00     0.036 A 
HETATM    2  C   UNL     1      44.166 -12.550   9.650  1.00  0.00     0.052 A 
HETATM    3  C   UNL     1      44.538 -11.469  10.461  1.00  0.00     0.046 A 
HETATM    4  C   UNL     1      43.731 -11.104  11.587  1.00  0.00     0.099 C 
HETATM    5  N   UNL     1      43.091 -10.792  12.505  1.00  0.00    -0.191 NA
HETATM    6  C   UNL     1      45.699 -10.744  10.174  1.00  0.00     0.023 A 
HETATM    7  C   UNL     1      46.484 -11.097   9.078  1.00  0.00     0.004 A 
HETATM    8  C   UNL     1      46.111 -12.175   8.274  1.00  0.00     0.029 A 
ENDROOT
BRANCH   1   9
HETATM    9  N   UNL     1      44.653 -13.985   7.687  1.00  0.00    -0.323 N 
HETATM   10  C   UNL     1      43.753 -13.995   6.635  1.00  0.00     0.256 C 
HETATM   11  O   UNL     1      43.014 -13.077   6.300  1.00  0.00    -0.267 OA
HETATM   12  H   UNL     1      45.126 -14.856   7.897  1.00  0.00     0.169 HD
BRANCH  10  13
HETATM   13  C   UNL     1      43.662 -15.284   5.887  1.00  0.00     0.034 A 
HETATM   14  C   UNL     1      43.127 -15.351   4.592  1.00  0.00     0.046 A 
HETATM   15  C   UNL     1      43.110 -16.561   3.896  1.00  0.00     0.037 A 
HETATM   16  C   UNL     1      43.578 -17.719   4.529  1.00  0.00     0.029 A 
HETATM   17  C   UNL     1      44.076 -17.667   5.832  1.00  0.00     0.003 A 
HETATM   18  C   UNL     1      44.123 -16.450   6.509  1.00  0.00     0.017 A 
BRANCH  15  19
HETATM   19  N   UNL     1      42.639 -16.693   2.574  1.00  0.00    -0.309 N 
HETATM   20  C   UNL     1      43.383 -16.876   1.441  1.00  0.00     0.321 C 
HETATM   21  N   UNL     1      42.689 -16.917   0.269  1.00  0.00    -0.337 N 
HETATM   22  O   UNL     1      44.604 -17.009   1.386  1.00  0.00    -0.247 OA
HETATM   23  H   UNL     1      43.296 -17.025  -0.533  1.00  0.00     0.164 HD
HETATM   24  H   UNL     1      41.645 -16.876   2.481  1.00  0.00     0.170 HD
BRANCH  21  25
HETATM   25  C   UNL     1      41.302 -16.575   0.027  1.00  0.00     0.186 C 
BRANCH  25  26
HETATM   26  C   UNL     1      41.216 -15.213  -0.562  1.00  0.00     0.083 A 
HETATM   27  C   UNL     1      40.969 -14.826  -1.863  1.00  0.00     0.076 A 
HETATM   28  C   UNL     1      40.713 -15.536  -3.127  1.00  0.00     0.079 C 
HETATM   29  O   UNL     1      40.963 -13.459  -1.898  1.00  0.00    -0.307 OA
HETATM   30  C   UNL     1      41.197 -13.093  -0.609  1.00  0.00     0.258 A 
HETATM   31  N   UNL     1      41.351 -14.090   0.235  1.00  0.00    -0.237 NA
ENDBRANCH  25  26
ENDBRANCH  21  25
ENDBRANCH  15  19
ENDBRANCH  10  13
ENDBRANCH   1   9
TORSDOF 5
ENDMDL
MODEL 5
REMARK VINA RESULT:      -8.1      5.293      8.633
REMARK  5 active torsions:
REMARK  status: ('A' for Active; 'I' for Inactive)
REMARK    1  A    between atoms: C_6  and  C_7 
REMARK    2  A    between atoms: C_7  and  N_8 
REMARK       I    between atoms: N_8  and  C_9 
REMARK       I    between atoms: C_9  and  N_10 
REMARK    3  A    between atoms: N_10  and  C_11 
REMARK    4  A    between atoms: C_13  and  C_14 
REMARK       I    between atoms: C_14  and  N_15 
REMARK    5  A    between atoms: N_15  and  C_16 
ROOT
HETATM    1  C   UNL     1      42.983 -16.355   3.154  1.00  0.00     0.036 A 
HETATM    2  C   UNL     1      43.435 -17.382   3.986  1.00  0.00     0.052 A 
HETATM    3  C   UNL     1      43.986 -18.548   3.439  1.00  0.00     0.046 A 
HETATM    4  C   UNL     1      44.444 -19.599   4.298  1.00  0.00     0.099 C 
HETATM    5  N   UNL     1      44.821 -20.463   4.976  1.00  0.00    -0.191 NA
HETATM    6  C   UNL     1      44.091 -18.689   2.051  1.00  0.00     0.023 A 
HETATM    7  C   UNL     1      43.647 -17.667   1.215  1.00  0.00     0.004 A 
HETATM    8  C   UNL     1      43.096 -16.508   1.765  1.00  0.00     0.029 A 
ENDROOT
BRANCH   1   9
HETATM    9  N   UNL     1      42.414 -15.151   3.619  1.00  0.00    -0.323 N 
HETATM   10  C   UNL     1      43.019 -13.909   3.705  1.00  0.00     0.256 C 
HETATM   11  O   UNL     1      44.186 -13.647   3.434  1.00  0.00    -0.267 OA
HETATM   12  H   UNL     1      41.466 -15.227   3.969  1.00  0.00     0.169 HD
BRANCH  10  13
HETATM   13  C   UNL     1      42.153 -12.813   4.231  1.00  0.00     0.034 A 
HETATM   14  C   UNL     1      42.192 -12.423   5.577  1.00  0.00     0.046 A 
HETATM   15  C   UNL     1      41.412 -11.355   6.026  1.00  0.00     0.037 A 
HETATM   16  C   UNL     1      40.545 -10.719   5.130  1.00  0.00     0.029 A 
HETATM   17  C   UNL     1      40.472 -11.128   3.797  1.00  0.00     0.003 A 
HETATM   18  C   UNL     1      41.279 -12.172   3.347  1.00  0.00     0.017 A 
BRANCH  15  19
HETATM   19  N   UNL     1      41.441 -10.872   7.350  1.00  0.00    -0.309 N 
HETATM   20  C   UNL     1      40.482 -11.027   8.313  1.00  0.00     0.321 C 
HETATM   21  N   UNL     1      40.725 -10.412   9.505  1.00  0.00    -0.337 N 
HETATM   22  O   UNL     1      39.437 -11.665   8.203  1.00  0.00    -0.247 OA
HETATM   23  H   UNL     1      39.968 -10.539  10.163  1.00  0.00     0.164 HD
HETATM   24  H   UNL     1      42.349 -10.559   7.680  1.00  0.00     0.170 HD
BRANCH  21  25
HETATM   25  C   UNL     1      41.747  -9.437   9.827  1.00  0.00     0.186 C 
BRANCH  25  26
HETATM   26  C   UNL     1      43.010 -10.133  10.184  1.00  0.00     0.083 A 
HETATM   27  C   UNL     1      43.544 -10.417  11.425  1.00  0.00     0.076 A 
HETATM   28  C   UNL     1      43.129 -10.167  12.816  1.00  0.00     0.079 C 
HETATM   29  O   UNL     1      44.713 -11.098  11.231  1.00  0.00    -0.307 OA
HETATM   30  C   UNL     1      44.818 -11.199   9.879  1.00  0.00     0.258 A 
HETATM   31  N   UNL     1      43.835 -10.650   9.200  1.00  0.00    -0.237 NA
ENDBRANCH  25  26
ENDBRANCH  21  25
ENDBRANCH  15  19
ENDBRANCH  10  13
ENDBRANCH   1   9
TORSDOF 5
ENDMDL
MODEL 6
REMARK VINA RESULT:      -8.1      5.664      9.400
REMARK  5 active torsions:
REMARK  status: ('A' for Active; 'I' for Inactive)
REMARK    1  A    between atoms: C_6  and  C_7 
REMARK    2  A    between atoms: C_7  and  N_8 
REMARK       I    between atoms: N_8  and  C_9 
REMARK       I    between atoms: C_9  and  N_10 
REMARK    3  A    between atoms: N_10  and  C_11 
REMARK    4  A    between atoms: C_13  and  C_14 
REMARK       I    between atoms: C_14  and  N_15 
REMARK    5  A    between atoms: N_15  and  C_16 
ROOT
HETATM    1  C   UNL     1      42.423 -10.723   9.890  1.00  0.00     0.036 A 
HETATM    2  C   UNL     1      41.780  -9.738  10.644  1.00  0.00     0.052 A 
HETATM    3  C   UNL     1      42.367  -9.249  11.819  1.00  0.00     0.046 A 
HETATM    4  C   UNL     1      41.701  -8.241  12.589  1.00  0.00     0.099 C 
HETATM    5  N   UNL     1      41.178  -7.425  13.229  1.00  0.00    -0.191 NA
HETATM    6  C   UNL     1      43.605  -9.744  12.243  1.00  0.00     0.023 A 
HETATM    7  C   UNL     1      44.254 -10.723  11.494  1.00  0.00     0.004 A 
HETATM    8  C   UNL     1      43.664 -11.209  10.325  1.00  0.00     0.029 A 
ENDROOT
BRANCH   1   9
HETATM    9  N   UNL     1      41.904 -11.273   8.699  1.00  0.00    -0.323 N 
HETATM   10  C   UNL     1      41.768 -10.649   7.471  1.00  0.00     0.256 C 
HETATM   11  O   UNL     1      42.034  -9.480   7.215  1.00  0.00    -0.267 OA
HETATM   12  H   UNL     1      41.553 -12.220   8.776  1.00  0.00     0.169 HD
BRANCH  10  13
HETATM   13  C   UNL     1      41.192 -11.497   6.386  1.00  0.00     0.034 A 
HETATM   14  C   UNL     1      41.885 -12.597   5.862  1.00  0.00     0.046 A 
HETATM   15  C   UNL     1      41.294 -13.406   4.888  1.00  0.00     0.037 A 
HETATM   16  C   UNL     1      40.027 -13.069   4.399  1.00  0.00     0.029 A 
HETATM   17  C   UNL     1      39.347 -11.952   4.888  1.00  0.00     0.003 A 
HETATM   18  C   UNL     1      39.927 -11.169   5.884  1.00  0.00     0.017 A 
BRANCH  15  19
HETATM   19  N   UNL     1      41.908 -14.558   4.356  1.00  0.00    -0.309 N 
HETATM   20  C   UNL     1      42.995 -14.614   3.529  1.00  0.00     0.321 C 
HETATM   21  N   UNL     1      43.363 -15.857   3.106  1.00  0.00    -0.337 N 
HETATM   22  O   UNL     1      43.665 -13.659   3.141  1.00  0.00    -0.247 OA
HETATM   23  H   UNL     1      44.153 -15.829   2.476  1.00  0.00     0.164 HD
HETATM   24  H   UNL     1      41.644 -15.435   4.796  1.00  0.00     0.170 HD
BRANCH  21  25
HETATM   25  C   UNL     1      42.637 -17.104   3.228  1.00  0.00     0.186 C 
BRANCH  25  26
HETATM   26  C   UNL     1      43.512 -18.135   3.847  1.00  0.00     0.083 A 
HETATM   27  C   UNL     1      43.908 -19.366   3.363  1.00  0.00     0.076 A 
HETATM   28  C   UNL     1      43.650 -20.129   2.130  1.00  0.00     0.079 C 
HETATM   29  O   UNL     1      44.736 -19.932   4.291  1.00  0.00    -0.307 OA
HETATM   30  C   UNL     1      44.805 -19.006   5.284  1.00  0.00     0.258 A 
HETATM   31  N   UNL     1      44.103 -17.913   5.078  1.00  0.00    -0.237 NA
ENDBRANCH  25  26
ENDBRANCH  21  25
ENDBRANCH  15  19
ENDBRANCH  10  13
ENDBRANCH   1   9
TORSDOF 5
ENDMDL
MODEL 7
REMARK VINA RESULT:      -8.0      1.901      2.352
REMARK  5 active torsions:
REMARK  status: ('A' for Active; 'I' for Inactive)
REMARK    1  A    between atoms: C_6  and  C_7 
REMARK    2  A    between atoms: C_7  and  N_8 
REMARK       I    between atoms: N_8  and  C_9 
REMARK       I    between atoms: C_9  and  N_10 
REMARK    3  A    between atoms: N_10  and  C_11 
REMARK    4  A    between atoms: C_13  and  C_14 
REMARK       I    between atoms: C_14  and  N_15 
REMARK    5  A    between atoms: N_15  and  C_16 
ROOT
HETATM    1  C   UNL     1      43.226 -17.836   3.585  1.00  0.00     0.036 A 
HETATM    2  C   UNL     1      43.202 -18.465   4.832  1.00  0.00     0.052 A 
HETATM    3  C   UNL     1      43.840 -19.699   5.016  1.00  0.00     0.046 A 
HETATM    4  C   UNL     1      43.809 -20.340   6.297  1.00  0.00     0.099 C 
HETATM    5  N   UNL     1      43.795 -20.877   7.327  1.00  0.00    -0.191 NA
HETATM    6  C   UNL     1      44.508 -20.308   3.949  1.00  0.00     0.023 A 
HETATM    7  C   UNL     1      44.541 -19.685   2.704  1.00  0.00     0.004 A 
HETATM    8  C   UNL     1      43.902 -18.456   2.525  1.00  0.00     0.029 A 
ENDROOT
BRANCH   1   9
HETATM    9  N   UNL     1      42.609 -16.597   3.311  1.00  0.00    -0.323 N 
HETATM   10  C   UNL     1      42.865 -15.377   3.913  1.00  0.00     0.256 C 
HETATM   11  O   UNL     1      43.646 -15.168   4.833  1.00  0.00    -0.267 OA
HETATM   12  H   UNL     1      41.865 -16.626   2.624  1.00  0.00     0.169 HD
BRANCH  10  13
HETATM   13  C   UNL     1      42.055 -14.232   3.400  1.00  0.00     0.034 A 
HETATM   14  C   UNL     1      41.304 -14.330   2.220  1.00  0.00     0.046 A 
HETATM   15  C   UNL     1      40.510 -13.261   1.798  1.00  0.00     0.037 A 
HETATM   16  C   UNL     1      40.520 -12.070   2.533  1.00  0.00     0.029 A 
HETATM   17  C   UNL     1      41.296 -11.953   3.688  1.00  0.00     0.003 A 
HETATM   18  C   UNL     1      42.060 -13.034   4.124  1.00  0.00     0.017 A 
BRANCH  15  19
HETATM   19  N   UNL     1      39.687 -13.307   0.654  1.00  0.00    -0.309 N 
HETATM   20  C   UNL     1      38.551 -14.047   0.477  1.00  0.00     0.321 C 
HETATM   21  N   UNL     1      37.963 -13.957  -0.750  1.00  0.00    -0.337 N 
HETATM   22  O   UNL     1      38.017 -14.772   1.313  1.00  0.00    -0.247 OA
HETATM   23  H   UNL     1      37.147 -14.549  -0.828  1.00  0.00     0.164 HD
HETATM   24  H   UNL     1      39.837 -12.563  -0.021  1.00  0.00     0.170 HD
BRANCH  21  25
HETATM   25  C   UNL     1      38.488 -13.364  -1.963  1.00  0.00     0.186 C 
BRANCH  25  26
HETATM   26  C   UNL     1      38.868 -14.435  -2.921  1.00  0.00     0.083 A 
HETATM   27  C   UNL     1      40.113 -14.804  -3.389  1.00  0.00     0.076 A 
HETATM   28  C   UNL     1      41.489 -14.329  -3.166  1.00  0.00     0.079 C 
HETATM   29  O   UNL     1      39.944 -15.865  -4.234  1.00  0.00    -0.307 OA
HETATM   30  C   UNL     1      38.603 -16.089  -4.222  1.00  0.00     0.258 A 
HETATM   31  N   UNL     1      37.908 -15.276  -3.457  1.00  0.00    -0.237 NA
ENDBRANCH  25  26
ENDBRANCH  21  25
ENDBRANCH  15  19
ENDBRANCH  10  13
ENDBRANCH   1   9
TORSDOF 5
ENDMDL
MODEL 8
REMARK VINA RESULT:      -8.0      5.108      8.859
REMARK  5 active torsions:
REMARK  status: ('A' for Active; 'I' for Inactive)
REMARK    1  A    between atoms: C_6  and  C_7 
REMARK    2  A    between atoms: C_7  and  N_8 
REMARK       I    between atoms: N_8  and  C_9 
REMARK       I    between atoms: C_9  and  N_10 
REMARK    3  A    between atoms: N_10  and  C_11 
REMARK    4  A    between atoms: C_13  and  C_14 
REMARK       I    between atoms: C_14  and  N_15 
REMARK    5  A    between atoms: N_15  and  C_16 
ROOT
HETATM    1  C   UNL     1      43.794 -19.192   3.286  1.00  0.00     0.036 A 
HETATM    2  C   UNL     1      44.390 -20.073   4.190  1.00  0.00     0.052 A 
HETATM    3  C   UNL     1      44.599 -21.414   3.841  1.00  0.00     0.046 A 
HETATM    4  C   UNL     1      45.208 -22.315   4.775  1.00  0.00     0.099 C 
HETATM    5  N   UNL     1      45.699 -23.060   5.517  1.00  0.00    -0.191 NA
HETATM    6  C   UNL     1      44.211 -21.878   2.579  1.00  0.00     0.023 A 
HETATM    7  C   UNL     1      43.621 -21.004   1.670  1.00  0.00     0.004 A 
HETATM    8  C   UNL     1      43.413 -19.669   2.024  1.00  0.00     0.029 A 
ENDROOT
BRANCH   1   9
HETATM    9  N   UNL     1      43.545 -17.829   3.555  1.00  0.00    -0.323 N 
HETATM   10  C   UNL     1      43.286 -17.246   4.784  1.00  0.00     0.256 C 
HETATM   11  O   UNL     1      43.178 -17.827   5.857  1.00  0.00    -0.267 OA
HETATM   12  H   UNL     1      43.511 -17.226   2.742  1.00  0.00     0.169 HD
BRANCH  10  13
HETATM   13  C   UNL     1      43.072 -15.769   4.755  1.00  0.00     0.034 A 
HETATM   14  C   UNL     1      43.172 -14.986   5.913  1.00  0.00     0.046 A 
HETATM   15  C   UNL     1      43.025 -13.599   5.843  1.00  0.00     0.037 A 
HETATM   16  C   UNL     1      42.715 -13.006   4.613  1.00  0.00     0.029 A 
HETATM   17  C   UNL     1      42.575 -13.785   3.463  1.00  0.00     0.003 A 
HETATM   18  C   UNL     1      42.758 -15.165   3.532  1.00  0.00     0.017 A 
BRANCH  15  19
HETATM   19  N   UNL     1      43.167 -12.743   6.955  1.00  0.00    -0.309 N 
HETATM   20  C   UNL     1      44.084 -12.838   7.964  1.00  0.00     0.321 C 
HETATM   21  N   UNL     1      43.977 -11.913   8.960  1.00  0.00    -0.337 N 
HETATM   22  O   UNL     1      44.987 -13.669   8.052  1.00  0.00    -0.247 OA
HETATM   23  H   UNL     1      44.663 -12.054   9.689  1.00  0.00     0.164 HD
HETATM   24  H   UNL     1      42.677 -11.856   6.888  1.00  0.00     0.170 HD
BRANCH  21  25
HETATM   25  C   UNL     1      42.899 -10.980   9.215  1.00  0.00     0.186 C 
BRANCH  25  26
HETATM   26  C   UNL     1      42.704 -10.827  10.680  1.00  0.00     0.083 A 
HETATM   27  C   UNL     1      41.918  -9.935  11.380  1.00  0.00     0.076 A 
HETATM   28  C   UNL     1      41.012  -8.835  11.008  1.00  0.00     0.079 C 
HETATM   29  O   UNL     1      42.056 -10.211  12.712  1.00  0.00    -0.307 OA
HETATM   30  C   UNL     1      42.913 -11.267  12.744  1.00  0.00     0.258 A 
HETATM   31  N   UNL     1      43.331 -11.683  11.569  1.00  0.00    -0.237 NA
ENDBRANCH  25  26
ENDBRANCH  21  25
ENDBRANCH  15  19
ENDBRANCH  10  13
ENDBRANCH   1   9
TORSDOF 5
ENDMDL
MODEL 9
REMARK VINA RESULT:      -7.8      2.173      2.498
REMARK  5 active torsions:
REMARK  status: ('A' for Active; 'I' for Inactive)
REMARK    1  A    between atoms: C_6  and  C_7 
REMARK    2  A    between atoms: C_7  and  N_8 
REMARK       I    between atoms: N_8  and  C_9 
REMARK       I    between atoms: C_9  and  N_10 
REMARK    3  A    between atoms: N_10  and  C_11 
REMARK    4  A    between atoms: C_13  and  C_14 
REMARK       I    between atoms: C_14  and  N_15 
REMARK    5  A    between atoms: N_15  and  C_16 
ROOT
HETATM    1  C   UNL     1      43.850 -18.101   3.559  1.00  0.00     0.036 A 
HETATM    2  C   UNL     1      43.964 -19.271   2.806  1.00  0.00     0.052 A 
HETATM    3  C   UNL     1      44.422 -20.455   3.401  1.00  0.00     0.046 A 
HETATM    4  C   UNL     1      44.540 -21.652   2.622  1.00  0.00     0.099 C 
HETATM    5  N   UNL     1      44.643 -22.633   2.009  1.00  0.00    -0.191 NA
HETATM    6  C   UNL     1      44.768 -20.470   4.756  1.00  0.00     0.023 A 
HETATM    7  C   UNL     1      44.653 -19.307   5.514  1.00  0.00     0.004 A 
HETATM    8  C   UNL     1      44.197 -18.130   4.917  1.00  0.00     0.029 A 
ENDROOT
BRANCH   1   9
HETATM    9  N   UNL     1      43.401 -16.867   3.042  1.00  0.00    -0.323 N 
HETATM   10  C   UNL     1      42.126 -16.550   2.605  1.00  0.00     0.256 C 
HETATM   11  O   UNL     1      41.167 -17.310   2.546  1.00  0.00    -0.267 OA
HETATM   12  H   UNL     1      44.113 -16.154   2.943  1.00  0.00     0.169 HD
BRANCH  10  13
HETATM   13  C   UNL     1      41.950 -15.150   2.118  1.00  0.00     0.034 A 
HETATM   14  C   UNL     1      41.339 -14.868   0.888  1.00  0.00     0.046 A 
HETATM   15  C   UNL     1      41.136 -13.545   0.487  1.00  0.00     0.037 A 
HETATM   16  C   UNL     1      41.605 -12.506   1.299  1.00  0.00     0.029 A 
HETATM   17  C   UNL     1      42.249 -12.781   2.507  1.00  0.00     0.003 A 
HETATM   18  C   UNL     1      42.417 -14.102   2.919  1.00  0.00     0.017 A 
BRANCH  15  19
HETATM   19  N   UNL     1      40.481 -13.186  -0.708  1.00  0.00    -0.309 N 
HETATM   20  C   UNL     1      41.050 -12.720  -1.861  1.00  0.00     0.321 C 
HETATM   21  N   UNL     1      40.188 -12.389  -2.863  1.00  0.00    -0.337 N 
HETATM   22  O   UNL     1      42.253 -12.580  -2.074  1.00  0.00    -0.247 OA
HETATM   23  H   UNL     1      40.667 -12.025  -3.676  1.00  0.00     0.164 HD
HETATM   24  H   UNL     1      39.518 -13.499  -0.789  1.00  0.00     0.170 HD
BRANCH  21  25
HETATM   25  C   UNL     1      38.747 -12.250  -2.807  1.00  0.00     0.186 C 
BRANCH  25  26
HETATM   26  C   UNL     1      38.103 -13.477  -3.344  1.00  0.00     0.083 A 
HETATM   27  C   UNL     1      36.948 -13.619  -4.085  1.00  0.00     0.076 A 
HETATM   28  C   UNL     1      35.933 -12.692  -4.614  1.00  0.00     0.079 C 
HETATM   29  O   UNL     1      36.789 -14.948  -4.362  1.00  0.00    -0.307 OA
HETATM   30  C   UNL     1      37.868 -15.539  -3.781  1.00  0.00     0.258 A 
HETATM   31  N   UNL     1      38.689 -14.718  -3.164  1.00  0.00    -0.237 NA
ENDBRANCH  25  26
ENDBRANCH  21  25
ENDBRANCH  15  19
ENDBRANCH  10  13
ENDBRANCH   1   9
TORSDOF 5
ENDMDL
MODEL 10
REMARK VINA RESULT:      -7.8      2.977      3.442
REMARK  5 active torsions:
REMARK  status: ('A' for Active; 'I' for Inactive)
REMARK    1  A    between atoms: C_6  and  C_7 
REMARK    2  A    between atoms: C_7  and  N_8 
REMARK       I    between atoms: N_8  and  C_9 
REMARK       I    between atoms: C_9  and  N_10 
REMARK    3  A    between atoms: N_10  and  C_11 
REMARK    4  A    between atoms: C_13  and  C_14 
REMARK       I    between atoms: C_14  and  N_15 
REMARK    5  A    between atoms: N_15  and  C_16 
ROOT
HETATM    1  C   UNL     1      43.883 -18.124   3.849  1.00  0.00     0.036 A 
HETATM    2  C   UNL     1      43.987 -19.258   3.041  1.00  0.00     0.052 A 
HETATM    3  C   UNL     1      44.416 -20.478   3.582  1.00  0.00     0.046 A 
HETATM    4  C   UNL     1      44.524 -21.637   2.747  1.00  0.00     0.099 C 
HETATM    5  N   UNL     1      44.618 -22.588   2.087  1.00  0.00    -0.191 NA
HETATM    6  C   UNL     1      44.742 -20.566   4.940  1.00  0.00     0.023 A 
HETATM    7  C   UNL     1      44.636 -19.440   5.753  1.00  0.00     0.004 A 
HETATM    8  C   UNL     1      44.210 -18.227   5.208  1.00  0.00     0.029 A 
ENDROOT
BRANCH   1   9
HETATM    9  N   UNL     1      43.463 -16.859   3.387  1.00  0.00    -0.323 N 
HETATM   10  C   UNL     1      42.173 -16.356   3.362  1.00  0.00     0.256 C 
HETATM   11  O   UNL     1      41.153 -16.949   3.694  1.00  0.00    -0.267 OA
HETATM   12  H   UNL     1      44.192 -16.278   2.991  1.00  0.00     0.169 HD
BRANCH  10  13
HETATM   13  C   UNL     1      42.040 -14.970   2.823  1.00  0.00     0.034 A 
HETATM   14  C   UNL     1      42.053 -14.710   1.445  1.00  0.00     0.046 A 
HETATM   15  C   UNL     1      41.868 -13.409   0.970  1.00  0.00     0.037 A 
HETATM   16  C   UNL     1      41.731 -12.361   1.888  1.00  0.00     0.029 A 
HETATM   17  C   UNL     1      41.757 -12.608   3.262  1.00  0.00     0.003 A 
HETATM   18  C   UNL     1      41.907 -13.912   3.729  1.00  0.00     0.017 A 
BRANCH  15  19
HETATM   19  N   UNL     1      41.813 -13.081  -0.399  1.00  0.00    -0.309 N 
HETATM   20  C   UNL     1      40.738 -13.189  -1.238  1.00  0.00     0.321 C 
HETATM   21  N   UNL     1      40.959 -12.857  -2.541  1.00  0.00    -0.337 N 
HETATM   22  O   UNL     1      39.605 -13.550  -0.926  1.00  0.00    -0.247 OA
HETATM   23  H   UNL     1      40.136 -12.986  -3.115  1.00  0.00     0.164 HD
HETATM   24  H   UNL     1      42.584 -12.516  -0.744  1.00  0.00     0.170 HD
BRANCH  21  25
HETATM   25  C   UNL     1      42.221 -12.617  -3.211  1.00  0.00     0.186 C 
BRANCH  25  26
HETATM   26  C   UNL     1      42.346 -11.173  -3.543  1.00  0.00     0.083 A 
HETATM   27  C   UNL     1      42.816 -10.126  -2.776  1.00  0.00     0.076 A 
HETATM   28  C   UNL     1      43.346  -9.997  -1.408  1.00  0.00     0.079 C 
HETATM   29  O   UNL     1      42.757  -8.992  -3.537  1.00  0.00    -0.307 OA
HETATM   30  C   UNL     1      42.263  -9.418  -4.730  1.00  0.00     0.258 A 
HETATM   31  N   UNL     1      42.003 -10.705  -4.800  1.00  0.00    -0.237 NA
ENDBRANCH  25  26
ENDBRANCH  21  25
ENDBRANCH  15  19
ENDBRANCH  10  13
ENDBRANCH   1   9
TORSDOF 5
ENDMDL
