MODEL 1
REMARK VINA RESULT:      -8.9      0.000      0.000
REMARK  8 active torsions:
REMARK  status: ('A' for Active; 'I' for Inactive)
REMARK    1  A    between atoms: C_2  and  O_3 
REMARK    2  A    between atoms: O_3  and  C_4 
REMARK    3  A    between atoms: C_5  and  O_6 
REMARK    4  A    between atoms: O_6  and  C_7 
REMARK    5  A    between atoms: C_7  and  C_8 
REMARK       I    between atoms: C_8  and  N_9 
REMARK    6  A    between atoms: C_13  and  C_14 
REMARK    7  A    between atoms: C_21  and  C_22 
REMARK       I    between atoms: C_22  and  N_23 
REMARK    8  A    between atoms: N_23  and  C_24 
ROOT
HETATM    1  C   UNL     1      42.545 -15.597   5.257  1.00  0.00     0.160 C 
HETATM    2  N   UNL     1      43.247 -14.373   5.592  1.00  0.00    -0.330 N 
HETATM    3  C   UNL     1      44.071 -14.253   6.661  1.00  0.00     0.321 C 
HETATM    4  O   UNL     1      44.409 -13.157   7.096  1.00  0.00    -0.247 OA
HETATM    5  N   UNL     1      44.526 -15.419   7.196  1.00  0.00    -0.312 N 
HETATM    6  C   UNL     1      44.241 -16.678   6.713  1.00  0.00     0.024 C 
HETATM    7  C   UNL     1      44.991 -17.800   7.379  1.00  0.00     0.069 C 
HETATM    8  C   UNL     1      43.310 -16.800   5.743  1.00  0.00     0.059 C 
HETATM    9  H   UNL     1      42.904 -13.493   5.232  1.00  0.00     0.165 HD
HETATM   10  H   UNL     1      45.205 -15.303   7.940  1.00  0.00     0.170 HD
ENDROOT
BRANCH   1  11
HETATM   11  C   UNL     1      42.124 -15.518   3.798  1.00  0.00    -0.028 A 
HETATM   12  C   UNL     1      43.117 -15.633   2.807  1.00  0.00     0.012 A 
HETATM   13  C   UNL     1      42.786 -15.702   1.451  1.00  0.00     0.040 A 
HETATM   14  C   UNL     1      41.452 -15.635   1.046  1.00  0.00     0.102 A 
HETATM   15  C   UNL     1      40.455 -15.472   2.019  1.00  0.00     0.102 A 
HETATM   16  C   UNL     1      40.787 -15.454   3.383  1.00  0.00     0.049 A 
BRANCH  14  17
HETATM   17  O   UNL     1      41.051 -15.828  -0.249  1.00  0.00    -0.339 OA
BRANCH  17  18
HETATM   18  C   UNL     1      41.196 -14.718  -1.132  1.00  0.00     0.278 C 
BRANCH  18  19
HETATM   19  C   UNL     1      40.729 -15.111  -2.529  1.00  0.00     0.239 C 
HETATM   20  N   UNL     1      39.385 -15.318  -2.666  1.00  0.00    -0.368 N 
HETATM   21  H   UNL     1      38.751 -15.006  -1.938  1.00  0.00     0.159 HD
HETATM   22  H   UNL     1      39.021 -15.520  -3.587  1.00  0.00     0.159 HD
HETATM   23  O   UNL     1      41.496 -15.290  -3.470  1.00  0.00    -0.271 OA
ENDBRANCH  18  19
ENDBRANCH  17  18
ENDBRANCH  14  17
BRANCH  15  24
HETATM   24  O   UNL     1      39.113 -15.416   1.733  1.00  0.00    -0.349 OA
BRANCH  24  25
HETATM   25  C   UNL     1      38.582 -14.092   1.591  1.00  0.00     0.171 C 
HETATM   26  C   UNL     1      37.638 -13.985   0.406  1.00  0.00     0.034 C 
ENDBRANCH  24  25
ENDBRANCH  15  24
ENDBRANCH   1  11
BRANCH   8  27
HETATM   27  C   UNL     1      43.022 -18.153   5.187  1.00  0.00     0.256 C 
HETATM   28  N   UNL     1      44.117 -18.747   4.601  1.00  0.00    -0.323 N 
HETATM   29  H   UNL     1      44.919 -18.146   4.475  1.00  0.00     0.169 HD
HETATM   30  O   UNL     1      41.874 -18.573   5.234  1.00  0.00    -0.267 OA
BRANCH  28  31
HETATM   31  C   UNL     1      44.248 -20.017   3.982  1.00  0.00     0.041 A 
HETATM   32  C   UNL     1      43.992 -20.360   2.641  1.00  0.00    -0.035 A 
HETATM   33  C   UNL     1      43.453 -19.437   1.588  1.00  0.00     0.050 C 
HETATM   34  C   UNL     1      44.242 -21.685   2.217  1.00  0.00     0.009 A 
HETATM   35  C   UNL     1      44.683 -22.668   3.099  1.00  0.00     0.001 A 
HETATM   36  C   UNL     1      44.885 -22.346   4.430  1.00  0.00     0.002 A 
HETATM   37  C   UNL     1      44.667 -21.037   4.864  1.00  0.00     0.030 A 
ENDBRANCH  28  31
ENDBRANCH   8  27
TORSDOF 8
ENDMDL
MODEL 2
REMARK VINA RESULT:      -8.6      2.078      2.979
REMARK  8 active torsions:
REMARK  status: ('A' for Active; 'I' for Inactive)
REMARK    1  A    between atoms: C_2  and  O_3 
REMARK    2  A    between atoms: O_3  and  C_4 
REMARK    3  A    between atoms: C_5  and  O_6 
REMARK    4  A    between atoms: O_6  and  C_7 
REMARK    5  A    between atoms: C_7  and  C_8 
REMARK       I    between atoms: C_8  and  N_9 
REMARK    6  A    between atoms: C_13  and  C_14 
REMARK    7  A    between atoms: C_21  and  C_22 
REMARK       I    between atoms: C_22  and  N_23 
REMARK    8  A    between atoms: N_23  and  C_24 
ROOT
HETATM    1  C   UNL     1      40.601 -15.279   3.423  1.00  0.00     0.160 C 
HETATM    2  N   UNL     1      39.914 -14.121   3.963  1.00  0.00    -0.330 N 
HETATM    3  C   UNL     1      39.851 -13.840   5.288  1.00  0.00     0.321 C 
HETATM    4  O   UNL     1      39.032 -13.049   5.741  1.00  0.00    -0.247 OA
HETATM    5  N   UNL     1      40.775 -14.461   6.072  1.00  0.00    -0.312 N 
HETATM    6  C   UNL     1      41.764 -15.305   5.616  1.00  0.00     0.024 C 
HETATM    7  C   UNL     1      42.759 -15.740   6.658  1.00  0.00     0.069 C 
HETATM    8  C   UNL     1      41.734 -15.695   4.324  1.00  0.00     0.059 C 
HETATM    9  H   UNL     1      39.201 -13.667   3.409  1.00  0.00     0.165 HD
HETATM   10  H   UNL     1      40.762 -14.172   7.044  1.00  0.00     0.170 HD
ENDROOT
BRANCH   1  11
HETATM   11  C   UNL     1      40.873 -15.024   1.949  1.00  0.00    -0.028 A 
HETATM   12  C   UNL     1      41.079 -16.130   1.105  1.00  0.00     0.012 A 
HETATM   13  C   UNL     1      41.203 -15.977  -0.279  1.00  0.00     0.040 A 
HETATM   14  C   UNL     1      41.146 -14.706  -0.855  1.00  0.00     0.102 A 
HETATM   15  C   UNL     1      40.989 -13.590  -0.022  1.00  0.00     0.102 A 
HETATM   16  C   UNL     1      40.814 -13.752   1.362  1.00  0.00     0.049 A 
BRANCH  14  17
HETATM   17  O   UNL     1      41.128 -14.497  -2.208  1.00  0.00    -0.339 OA
BRANCH  17  18
HETATM   18  C   UNL     1      40.930 -15.646  -3.028  1.00  0.00     0.278 C 
BRANCH  18  19
HETATM   19  C   UNL     1      39.497 -15.663  -3.548  1.00  0.00     0.239 C 
HETATM   20  N   UNL     1      38.968 -16.901  -3.780  1.00  0.00    -0.368 N 
HETATM   21  H   UNL     1      39.432 -17.724  -3.410  1.00  0.00     0.159 HD
HETATM   22  H   UNL     1      38.001 -16.966  -4.067  1.00  0.00     0.159 HD
HETATM   23  O   UNL     1      38.860 -14.646  -3.804  1.00  0.00    -0.271 OA
ENDBRANCH  18  19
ENDBRANCH  17  18
ENDBRANCH  14  17
BRANCH  15  24
HETATM   24  O   UNL     1      40.900 -12.300  -0.484  1.00  0.00    -0.349 OA
BRANCH  24  25
HETATM   25  C   UNL     1      39.641 -11.658  -0.242  1.00  0.00     0.171 C 
HETATM   26  C   UNL     1      38.563 -12.152  -1.190  1.00  0.00     0.034 C 
ENDBRANCH  24  25
ENDBRANCH  15  24
ENDBRANCH   1  11
BRANCH   8  27
HETATM   27  C   UNL     1      42.821 -16.577   3.811  1.00  0.00     0.256 C 
HETATM   28  N   UNL     1      42.541 -17.918   3.939  1.00  0.00    -0.323 N 
HETATM   29  H   UNL     1      41.729 -18.139   4.497  1.00  0.00     0.169 HD
HETATM   30  O   UNL     1      43.852 -16.060   3.404  1.00  0.00    -0.267 OA
BRANCH  28  31
HETATM   31  C   UNL     1      43.304 -19.054   3.562  1.00  0.00     0.041 A 
HETATM   32  C   UNL     1      44.309 -19.707   4.300  1.00  0.00    -0.035 A 
HETATM   33  C   UNL     1      44.831 -19.281   5.641  1.00  0.00     0.050 C 
HETATM   34  C   UNL     1      44.912 -20.864   3.754  1.00  0.00     0.009 A 
HETATM   35  C   UNL     1      44.576 -21.341   2.490  1.00  0.00     0.001 A 
HETATM   36  C   UNL     1      43.626 -20.669   1.741  1.00  0.00     0.002 A 
HETATM   37  C   UNL     1      43.001 -19.539   2.271  1.00  0.00     0.030 A 
ENDBRANCH  28  31
ENDBRANCH   8  27
TORSDOF 8
ENDMDL
MODEL 3
REMARK VINA RESULT:      -8.5      2.369      6.719
REMARK  8 active torsions:
REMARK  status: ('A' for Active; 'I' for Inactive)
REMARK    1  A    between atoms: C_2  and  O_3 
REMARK    2  A    between atoms: O_3  and  C_4 
REMARK    3  A    between atoms: C_5  and  O_6 
REMARK    4  A    between atoms: O_6  and  C_7 
REMARK    5  A    between atoms: C_7  and  C_8 
REMARK       I    between atoms: C_8  and  N_9 
REMARK    6  A    between atoms: C_13  and  C_14 
REMARK    7  A    between atoms: C_21  and  C_22 
REMARK       I    between atoms: C_22  and  N_23 
REMARK    8  A    between atoms: N_23  and  C_24 
ROOT
HETATM    1  C   UNL     1      42.101 -14.938   2.794  1.00  0.00     0.160 C 
HETATM    2  N   UNL     1      40.797 -14.327   2.964  1.00  0.00    -0.330 N 
HETATM    3  C   UNL     1      39.771 -14.501   2.096  1.00  0.00     0.321 C 
HETATM    4  O   UNL     1      38.798 -13.755   2.089  1.00  0.00    -0.247 OA
HETATM    5  N   UNL     1      39.872 -15.572   1.263  1.00  0.00    -0.312 N 
HETATM    6  C   UNL     1      40.902 -16.487   1.267  1.00  0.00     0.024 C 
HETATM    7  C   UNL     1      40.707 -17.671   0.358  1.00  0.00     0.069 C 
HETATM    8  C   UNL     1      41.987 -16.231   2.029  1.00  0.00     0.059 C 
HETATM    9  H   UNL     1      40.708 -13.510   3.553  1.00  0.00     0.165 HD
HETATM   10  H   UNL     1      39.056 -15.730   0.681  1.00  0.00     0.170 HD
ENDROOT
BRANCH   1  11
HETATM   11  C   UNL     1      42.810 -14.926   4.139  1.00  0.00    -0.028 A 
HETATM   12  C   UNL     1      43.865 -14.015   4.331  1.00  0.00     0.012 A 
HETATM   13  C   UNL     1      44.472 -13.858   5.581  1.00  0.00     0.040 A 
HETATM   14  C   UNL     1      44.054 -14.625   6.669  1.00  0.00     0.102 A 
HETATM   15  C   UNL     1      43.036 -15.572   6.481  1.00  0.00     0.102 A 
HETATM   16  C   UNL     1      42.394 -15.691   5.238  1.00  0.00     0.049 A 
BRANCH  14  17
HETATM   17  O   UNL     1      44.512 -14.431   7.945  1.00  0.00    -0.339 OA
BRANCH  17  18
HETATM   18  C   UNL     1      45.092 -13.159   8.225  1.00  0.00     0.278 C 
BRANCH  18  19
HETATM   19  C   UNL     1      44.407 -12.540   9.439  1.00  0.00     0.239 C 
HETATM   20  N   UNL     1      43.449 -11.606   9.165  1.00  0.00    -0.368 N 
HETATM   21  H   UNL     1      43.086 -11.520   8.222  1.00  0.00     0.159 HD
HETATM   22  H   UNL     1      42.926 -11.213   9.935  1.00  0.00     0.159 HD
HETATM   23  O   UNL     1      44.719 -12.806  10.596  1.00  0.00    -0.271 OA
ENDBRANCH  18  19
ENDBRANCH  17  18
ENDBRANCH  14  17
BRANCH  15  24
HETATM   24  O   UNL     1      42.535 -16.363   7.486  1.00  0.00    -0.349 OA
BRANCH  24  25
HETATM   25  C   UNL     1      42.925 -17.741   7.419  1.00  0.00     0.171 C 
HETATM   26  C   UNL     1      44.005 -18.073   8.432  1.00  0.00     0.034 C 
ENDBRANCH  24  25
ENDBRANCH  15  24
ENDBRANCH   1  11
BRANCH   8  27
HETATM   27  C   UNL     1      43.091 -17.233   2.071  1.00  0.00     0.256 C 
HETATM   28  N   UNL     1      42.718 -18.433   2.633  1.00  0.00    -0.323 N 
HETATM   29  H   UNL     1      41.816 -18.436   3.086  1.00  0.00     0.169 HD
HETATM   30  O   UNL     1      44.201 -16.897   1.684  1.00  0.00    -0.267 OA
BRANCH  28  31
HETATM   31  C   UNL     1      43.468 -19.621   2.836  1.00  0.00     0.041 A 
HETATM   32  C   UNL     1      44.370 -19.909   3.876  1.00  0.00    -0.035 A 
HETATM   33  C   UNL     1      44.780 -18.967   4.970  1.00  0.00     0.050 C 
HETATM   34  C   UNL     1      44.975 -21.187   3.919  1.00  0.00     0.009 A 
HETATM   35  C   UNL     1      44.741 -22.144   2.935  1.00  0.00     0.001 A 
HETATM   36  C   UNL     1      43.893 -21.843   1.882  1.00  0.00     0.002 A 
HETATM   37  C   UNL     1      43.268 -20.596   1.835  1.00  0.00     0.030 A 
ENDBRANCH  28  31
ENDBRANCH   8  27
TORSDOF 8
ENDMDL
MODEL 4
REMARK VINA RESULT:      -8.5      1.627      2.080
REMARK  8 active torsions:
REMARK  status: ('A' for Active; 'I' for Inactive)
REMARK    1  A    between atoms: C_2  and  O_3 
REMARK    2  A    between atoms: O_3  and  C_4 
REMARK    3  A    between atoms: C_5  and  O_6 
REMARK    4  A    between atoms: O_6  and  C_7 
REMARK    5  A    between atoms: C_7  and  C_8 
REMARK       I    between atoms: C_8  and  N_9 
REMARK    6  A    between atoms: C_13  and  C_14 
REMARK    7  A    between atoms: C_21  and  C_22 
REMARK       I    between atoms: C_22  and  N_23 
REMARK    8  A    between atoms: N_23  and  C_24 
ROOT
HETATM    1  C   UNL     1      41.800 -14.969   4.895  1.00  0.00     0.160 C 
HETATM    2  N   UNL     1      42.399 -13.707   5.283  1.00  0.00    -0.330 N 
HETATM    3  C   UNL     1      43.085 -13.529   6.438  1.00  0.00     0.321 C 
HETATM    4  O   UNL     1      43.317 -12.412   6.885  1.00  0.00    -0.247 OA
HETATM    5  N   UNL     1      43.529 -14.662   7.047  1.00  0.00    -0.312 N 
HETATM    6  C   UNL     1      43.362 -15.942   6.563  1.00  0.00     0.024 C 
HETATM    7  C   UNL     1      44.080 -17.014   7.336  1.00  0.00     0.069 C 
HETATM    8  C   UNL     1      42.559 -16.126   5.493  1.00  0.00     0.059 C 
HETATM    9  H   UNL     1      42.060 -12.851   4.866  1.00  0.00     0.165 HD
HETATM   10  H   UNL     1      44.109 -14.501   7.863  1.00  0.00     0.170 HD
ENDROOT
BRANCH   1  11
HETATM   11  C   UNL     1      41.550 -14.936   3.396  1.00  0.00    -0.028 A 
HETATM   12  C   UNL     1      40.551 -15.772   2.864  1.00  0.00     0.012 A 
HETATM   13  C   UNL     1      40.179 -15.696   1.519  1.00  0.00     0.040 A 
HETATM   14  C   UNL     1      40.813 -14.795   0.662  1.00  0.00     0.102 A 
HETATM   15  C   UNL     1      41.844 -13.990   1.166  1.00  0.00     0.102 A 
HETATM   16  C   UNL     1      42.181 -14.032   2.529  1.00  0.00     0.049 A 
BRANCH  14  17
HETATM   17  O   UNL     1      40.411 -14.577  -0.629  1.00  0.00    -0.339 OA
BRANCH  17  18
HETATM   18  C   UNL     1      40.968 -15.435  -1.622  1.00  0.00     0.278 C 
BRANCH  18  19
HETATM   19  C   UNL     1      41.333 -14.618  -2.858  1.00  0.00     0.239 C 
HETATM   20  N   UNL     1      42.448 -13.838  -2.741  1.00  0.00    -0.368 N 
HETATM   21  H   UNL     1      43.087 -13.985  -1.967  1.00  0.00     0.159 HD
HETATM   22  H   UNL     1      42.764 -13.326  -3.553  1.00  0.00     0.159 HD
HETATM   23  O   UNL     1      40.654 -14.603  -3.880  1.00  0.00    -0.271 OA
ENDBRANCH  18  19
ENDBRANCH  17  18
ENDBRANCH  14  17
BRANCH  15  24
HETATM   24  O   UNL     1      42.519 -13.057   0.417  1.00  0.00    -0.349 OA
BRANCH  24  25
HETATM   25  C   UNL     1      42.034 -11.714   0.547  1.00  0.00     0.171 C 
HETATM   26  C   UNL     1      42.674 -10.781  -0.466  1.00  0.00     0.034 C 
ENDBRANCH  24  25
ENDBRANCH  15  24
ENDBRANCH   1  11
BRANCH   8  27
HETATM   27  C   UNL     1      42.402 -17.500   4.937  1.00  0.00     0.256 C 
HETATM   28  N   UNL     1      43.495 -17.925   4.217  1.00  0.00    -0.323 N 
HETATM   29  H   UNL     1      44.185 -17.215   4.018  1.00  0.00     0.169 HD
HETATM   30  O   UNL     1      41.338 -18.081   5.102  1.00  0.00    -0.267 OA
BRANCH  28  31
HETATM   31  C   UNL     1      43.732 -19.157   3.554  1.00  0.00     0.041 A 
HETATM   32  C   UNL     1      43.314 -19.544   2.267  1.00  0.00    -0.035 A 
HETATM   33  C   UNL     1      42.455 -18.732   1.342  1.00  0.00     0.050 C 
HETATM   34  C   UNL     1      43.708 -20.810   1.774  1.00  0.00     0.009 A 
HETATM   35  C   UNL     1      44.452 -21.699   2.545  1.00  0.00     0.001 A 
HETATM   36  C   UNL     1      44.820 -21.341   3.831  1.00  0.00     0.002 A 
HETATM   37  C   UNL     1      44.461 -20.087   4.328  1.00  0.00     0.030 A 
ENDBRANCH  28  31
ENDBRANCH   8  27
TORSDOF 8
ENDMDL
MODEL 5
REMARK VINA RESULT:      -8.4      2.131      2.773
REMARK  8 active torsions:
REMARK  status: ('A' for Active; 'I' for Inactive)
REMARK    1  A    between atoms: C_2  and  O_3 
REMARK    2  A    between atoms: O_3  and  C_4 
REMARK    3  A    between atoms: C_5  and  O_6 
REMARK    4  A    between atoms: O_6  and  C_7 
REMARK    5  A    between atoms: C_7  and  C_8 
REMARK       I    between atoms: C_8  and  N_9 
REMARK    6  A    between atoms: C_13  and  C_14 
REMARK    7  A    between atoms: C_21  and  C_22 
REMARK       I    between atoms: C_22  and  N_23 
REMARK    8  A    between atoms: N_23  and  C_24 
ROOT
HETATM    1  C   UNL     1      41.256 -13.495   4.377  1.00  0.00     0.160 C 
HETATM    2  N   UNL     1      41.062 -12.253   5.100  1.00  0.00    -0.330 N 
HETATM    3  C   UNL     1      41.570 -12.020   6.335  1.00  0.00     0.321 C 
HETATM    4  O   UNL     1      41.154 -11.110   7.042  1.00  0.00    -0.247 OA
HETATM    5  N   UNL     1      42.590 -12.834   6.722  1.00  0.00    -0.312 N 
HETATM    6  C   UNL     1      43.149 -13.829   5.950  1.00  0.00     0.024 C 
HETATM    7  C   UNL     1      44.368 -14.485   6.540  1.00  0.00     0.069 C 
HETATM    8  C   UNL     1      42.550 -14.153   4.784  1.00  0.00     0.059 C 
HETATM    9  H   UNL     1      40.291 -11.651   4.849  1.00  0.00     0.165 HD
HETATM   10  H   UNL     1      43.008 -12.589   7.613  1.00  0.00     0.170 HD
ENDROOT
BRANCH   1  11
HETATM   11  C   UNL     1      40.981 -13.235   2.904  1.00  0.00    -0.028 A 
HETATM   12  C   UNL     1      41.867 -12.403   2.195  1.00  0.00     0.012 A 
HETATM   13  C   UNL     1      41.750 -12.227   0.813  1.00  0.00     0.040 A 
HETATM   14  C   UNL     1      40.729 -12.864   0.105  1.00  0.00     0.102 A 
HETATM   15  C   UNL     1      39.810 -13.657   0.806  1.00  0.00     0.102 A 
HETATM   16  C   UNL     1      39.960 -13.872   2.186  1.00  0.00     0.049 A 
BRANCH  14  17
HETATM   17  O   UNL     1      40.636 -12.841  -1.261  1.00  0.00    -0.339 OA
BRANCH  17  18
HETATM   18  C   UNL     1      41.591 -13.620  -1.977  1.00  0.00     0.278 C 
BRANCH  18  19
HETATM   19  C   UNL     1      40.885 -14.769  -2.688  1.00  0.00     0.239 C 
HETATM   20  N   UNL     1      40.576 -15.846  -1.907  1.00  0.00    -0.368 N 
HETATM   21  H   UNL     1      40.619 -15.765  -0.897  1.00  0.00     0.159 HD
HETATM   22  H   UNL     1      40.054 -16.607  -2.321  1.00  0.00     0.159 HD
HETATM   23  O   UNL     1      40.650 -14.773  -3.893  1.00  0.00    -0.271 OA
ENDBRANCH  18  19
ENDBRANCH  17  18
ENDBRANCH  14  17
BRANCH  15  24
HETATM   24  O   UNL     1      38.782 -14.343   0.207  1.00  0.00    -0.349 OA
BRANCH  24  25
HETATM   25  C   UNL     1      37.484 -14.091   0.762  1.00  0.00     0.171 C 
HETATM   26  C   UNL     1      37.033 -12.662   0.517  1.00  0.00     0.034 C 
ENDBRANCH  24  25
ENDBRANCH  15  24
ENDBRANCH   1  11
BRANCH   8  27
HETATM   27  C   UNL     1      43.168 -15.201   3.922  1.00  0.00     0.256 C 
HETATM   28  N   UNL     1      42.744 -16.475   4.224  1.00  0.00    -0.323 N 
HETATM   29  H   UNL     1      42.208 -16.562   5.075  1.00  0.00     0.169 HD
HETATM   30  O   UNL     1      44.011 -14.864   3.103  1.00  0.00    -0.267 OA
BRANCH  28  31
HETATM   31  C   UNL     1      43.086 -17.718   3.631  1.00  0.00     0.041 A 
HETATM   32  C   UNL     1      42.651 -18.239   2.398  1.00  0.00    -0.035 A 
HETATM   33  C   UNL     1      41.663 -17.594   1.471  1.00  0.00     0.050 C 
HETATM   34  C   UNL     1      43.160 -19.487   1.968  1.00  0.00     0.009 A 
HETATM   35  C   UNL     1      44.036 -20.233   2.752  1.00  0.00     0.001 A 
HETATM   36  C   UNL     1      44.423 -19.746   3.990  1.00  0.00     0.002 A 
HETATM   37  C   UNL     1      43.950 -18.506   4.422  1.00  0.00     0.030 A 
ENDBRANCH  28  31
ENDBRANCH   8  27
TORSDOF 8
ENDMDL
MODEL 6
REMARK VINA RESULT:      -8.3      2.693      8.085
REMARK  8 active torsions:
REMARK  status: ('A' for Active; 'I' for Inactive)
REMARK    1  A    between atoms: C_2  and  O_3 
REMARK    2  A    between atoms: O_3  and  C_4 
REMARK    3  A    between atoms: C_5  and  O_6 
REMARK    4  A    between atoms: O_6  and  C_7 
REMARK    5  A    between atoms: C_7  and  C_8 
REMARK       I    between atoms: C_8  and  N_9 
REMARK    6  A    between atoms: C_13  and  C_14 
REMARK    7  A    between atoms: C_21  and  C_22 
REMARK       I    between atoms: C_22  and  N_23 
REMARK    8  A    between atoms: N_23  and  C_24 
ROOT
HETATM    1  C   UNL     1      41.134 -15.737   0.404  1.00  0.00     0.160 C 
HETATM    2  N   UNL     1      41.323 -16.195  -0.959  1.00  0.00    -0.330 N 
HETATM    3  C   UNL     1      41.071 -15.428  -2.048  1.00  0.00     0.321 C 
HETATM    4  O   UNL     1      40.947 -15.915  -3.165  1.00  0.00    -0.247 OA
HETATM    5  N   UNL     1      41.000 -14.087  -1.827  1.00  0.00    -0.312 N 
HETATM    6  C   UNL     1      41.198 -13.471  -0.610  1.00  0.00     0.024 C 
HETATM    7  C   UNL     1      41.224 -11.967  -0.655  1.00  0.00     0.069 C 
HETATM    8  C   UNL     1      41.306 -14.243   0.492  1.00  0.00     0.059 C 
HETATM    9  H   UNL     1      41.345 -17.188  -1.147  1.00  0.00     0.165 HD
HETATM   10  H   UNL     1      40.893 -13.528  -2.667  1.00  0.00     0.170 HD
ENDROOT
BRANCH   1  11
HETATM   11  C   UNL     1      41.941 -16.638   1.324  1.00  0.00    -0.028 A 
HETATM   12  C   UNL     1      43.269 -16.939   0.970  1.00  0.00     0.012 A 
HETATM   13  C   UNL     1      44.109 -17.651   1.833  1.00  0.00     0.040 A 
HETATM   14  C   UNL     1      43.634 -18.100   3.066  1.00  0.00     0.102 A 
HETATM   15  C   UNL     1      42.299 -17.849   3.412  1.00  0.00     0.102 A 
HETATM   16  C   UNL     1      41.473 -17.090   2.566  1.00  0.00     0.049 A 
BRANCH  14  17
HETATM   17  O   UNL     1      44.435 -18.685   4.010  1.00  0.00    -0.339 OA
BRANCH  17  18
HETATM   18  C   UNL     1      44.652 -20.087   3.880  1.00  0.00     0.278 C 
BRANCH  18  19
HETATM   19  C   UNL     1      44.480 -20.760   5.238  1.00  0.00     0.239 C 
HETATM   20  N   UNL     1      43.902 -19.992   6.209  1.00  0.00    -0.368 N 
HETATM   21  H   UNL     1      43.429 -19.131   5.955  1.00  0.00     0.159 HD
HETATM   22  H   UNL     1      43.712 -20.414   7.107  1.00  0.00     0.159 HD
HETATM   23  O   UNL     1      44.878 -21.895   5.483  1.00  0.00    -0.271 OA
ENDBRANCH  18  19
ENDBRANCH  17  18
ENDBRANCH  14  17
BRANCH  15  24
HETATM   24  O   UNL     1      41.736 -18.227   4.607  1.00  0.00    -0.349 OA
BRANCH  24  25
HETATM   25  C   UNL     1      41.238 -17.146   5.407  1.00  0.00     0.171 C 
HETATM   26  C   UNL     1      42.348 -16.456   6.180  1.00  0.00     0.034 C 
ENDBRANCH  24  25
ENDBRANCH  15  24
ENDBRANCH   1  11
BRANCH   8  27
HETATM   27  C   UNL     1      41.559 -13.588   1.808  1.00  0.00     0.256 C 
HETATM   28  N   UNL     1      40.412 -13.358   2.533  1.00  0.00    -0.323 N 
HETATM   29  H   UNL     1      39.548 -13.506   2.032  1.00  0.00     0.169 HD
HETATM   30  O   UNL     1      42.704 -13.264   2.090  1.00  0.00    -0.267 OA
BRANCH  28  31
HETATM   31  C   UNL     1      40.240 -12.778   3.816  1.00  0.00     0.041 A 
HETATM   32  C   UNL     1      40.274 -11.414   4.163  1.00  0.00    -0.035 A 
HETATM   33  C   UNL     1      40.572 -10.278   3.229  1.00  0.00     0.050 C 
HETATM   34  C   UNL     1      40.023 -11.046   5.506  1.00  0.00     0.009 A 
HETATM   35  C   UNL     1      39.796 -11.996   6.498  1.00  0.00     0.001 A 
HETATM   36  C   UNL     1      39.814 -13.341   6.168  1.00  0.00     0.002 A 
HETATM   37  C   UNL     1      40.036 -13.724   4.844  1.00  0.00     0.030 A 
ENDBRANCH  28  31
ENDBRANCH   8  27
TORSDOF 8
ENDMDL
MODEL 7
REMARK VINA RESULT:      -8.3      2.497      7.310
REMARK  8 active torsions:
REMARK  status: ('A' for Active; 'I' for Inactive)
REMARK    1  A    between atoms: C_2  and  O_3 
REMARK    2  A    between atoms: O_3  and  C_4 
REMARK    3  A    between atoms: C_5  and  O_6 
REMARK    4  A    between atoms: O_6  and  C_7 
REMARK    5  A    between atoms: C_7  and  C_8 
REMARK       I    between atoms: C_8  and  N_9 
REMARK    6  A    between atoms: C_13  and  C_14 
REMARK    7  A    between atoms: C_21  and  C_22 
REMARK       I    between atoms: C_22  and  N_23 
REMARK    8  A    between atoms: N_23  and  C_24 
ROOT
HETATM    1  C   UNL     1      40.082 -15.243   2.921  1.00  0.00     0.160 C 
HETATM    2  N   UNL     1      39.076 -15.360   1.882  1.00  0.00    -0.330 N 
HETATM    3  C   UNL     1      38.315 -14.322   1.458  1.00  0.00     0.321 C 
HETATM    4  O   UNL     1      37.287 -14.498   0.814  1.00  0.00    -0.247 OA
HETATM    5  N   UNL     1      38.780 -13.080   1.761  1.00  0.00    -0.312 N 
HETATM    6  C   UNL     1      39.961 -12.813   2.421  1.00  0.00     0.024 C 
HETATM    7  C   UNL     1      40.333 -11.357   2.496  1.00  0.00     0.069 C 
HETATM    8  C   UNL     1      40.641 -13.844   2.965  1.00  0.00     0.059 C 
HETATM    9  H   UNL     1      38.694 -16.270   1.666  1.00  0.00     0.165 HD
HETATM   10  H   UNL     1      38.239 -12.320   1.363  1.00  0.00     0.170 HD
ENDROOT
BRANCH   1  11
HETATM   11  C   UNL     1      41.031 -16.424   2.799  1.00  0.00    -0.028 A 
HETATM   12  C   UNL     1      41.575 -16.718   1.535  1.00  0.00     0.012 A 
HETATM   13  C   UNL     1      42.553 -17.704   1.376  1.00  0.00     0.040 A 
HETATM   14  C   UNL     1      42.998 -18.439   2.475  1.00  0.00     0.102 A 
HETATM   15  C   UNL     1      42.430 -18.190   3.733  1.00  0.00     0.102 A 
HETATM   16  C   UNL     1      41.485 -17.165   3.899  1.00  0.00     0.049 A 
BRANCH  14  17
HETATM   17  O   UNL     1      44.042 -19.323   2.414  1.00  0.00    -0.339 OA
BRANCH  17  18
HETATM   18  C   UNL     1      43.733 -20.642   1.968  1.00  0.00     0.278 C 
BRANCH  18  19
HETATM   19  C   UNL     1      44.419 -21.661   2.872  1.00  0.00     0.239 C 
HETATM   20  N   UNL     1      44.776 -21.207   4.110  1.00  0.00    -0.368 N 
HETATM   21  H   UNL     1      44.399 -20.330   4.453  1.00  0.00     0.159 HD
HETATM   22  H   UNL     1      45.178 -21.863   4.766  1.00  0.00     0.159 HD
HETATM   23  O   UNL     1      44.693 -22.803   2.514  1.00  0.00    -0.271 OA
ENDBRANCH  18  19
ENDBRANCH  17  18
ENDBRANCH  14  17
BRANCH  15  24
HETATM   24  O   UNL     1      42.809 -18.840   4.882  1.00  0.00    -0.349 OA
BRANCH  24  25
HETATM   25  C   UNL     1      43.326 -17.989   5.914  1.00  0.00     0.171 C 
HETATM   26  C   UNL     1      44.834 -18.105   6.040  1.00  0.00     0.034 C 
ENDBRANCH  24  25
ENDBRANCH  15  24
ENDBRANCH   1  11
BRANCH   8  27
HETATM   27  C   UNL     1      41.939 -13.572   3.648  1.00  0.00     0.256 C 
HETATM   28  N   UNL     1      41.844 -13.576   5.021  1.00  0.00    -0.323 N 
HETATM   29  H   UNL     1      40.904 -13.599   5.389  1.00  0.00     0.169 HD
HETATM   30  O   UNL     1      42.917 -13.311   2.962  1.00  0.00    -0.267 OA
BRANCH  28  31
HETATM   31  C   UNL     1      42.843 -13.374   6.008  1.00  0.00     0.041 A 
HETATM   32  C   UNL     1      42.901 -12.370   6.992  1.00  0.00    -0.035 A 
HETATM   33  C   UNL     1      41.923 -11.243   7.154  1.00  0.00     0.050 C 
HETATM   34  C   UNL     1      43.969 -12.384   7.919  1.00  0.00     0.009 A 
HETATM   35  C   UNL     1      44.987 -13.331   7.853  1.00  0.00     0.001 A 
HETATM   36  C   UNL     1      44.960 -14.289   6.853  1.00  0.00     0.002 A 
HETATM   37  C   UNL     1      43.902 -14.306   5.942  1.00  0.00     0.030 A 
ENDBRANCH  28  31
ENDBRANCH   8  27
TORSDOF 8
ENDMDL
MODEL 8
REMARK VINA RESULT:      -8.1      2.575      6.588
REMARK  8 active torsions:
REMARK  status: ('A' for Active; 'I' for Inactive)
REMARK    1  A    between atoms: C_2  and  O_3 
REMARK    2  A    between atoms: O_3  and  C_4 
REMARK    3  A    between atoms: C_5  and  O_6 
REMARK    4  A    between atoms: O_6  and  C_7 
REMARK    5  A    between atoms: C_7  and  C_8 
REMARK       I    between atoms: C_8  and  N_9 
REMARK    6  A    between atoms: C_13  and  C_14 
REMARK    7  A    between atoms: C_21  and  C_22 
REMARK       I    between atoms: C_22  and  N_23 
REMARK    8  A    between atoms: N_23  and  C_24 
ROOT
HETATM    1  C   UNL     1      43.004 -14.206   2.736  1.00  0.00     0.160 C 
HETATM    2  N   UNL     1      42.430 -13.096   2.000  1.00  0.00    -0.330 N 
HETATM    3  C   UNL     1      41.868 -13.224   0.774  1.00  0.00     0.321 C 
HETATM    4  O   UNL     1      41.667 -12.253   0.053  1.00  0.00    -0.247 OA
HETATM    5  N   UNL     1      41.510 -14.486   0.411  1.00  0.00    -0.312 N 
HETATM    6  C   UNL     1      41.645 -15.607   1.201  1.00  0.00     0.024 C 
HETATM    7  C   UNL     1      41.030 -16.860   0.638  1.00  0.00     0.069 C 
HETATM    8  C   UNL     1      42.333 -15.501   2.358  1.00  0.00     0.059 C 
HETATM    9  H   UNL     1      42.709 -12.153   2.233  1.00  0.00     0.165 HD
HETATM   10  H   UNL     1      41.017 -14.545  -0.473  1.00  0.00     0.170 HD
ENDROOT
BRANCH   1  11
HETATM   11  C   UNL     1      43.092 -13.810   4.201  1.00  0.00    -0.028 A 
HETATM   12  C   UNL     1      44.117 -14.371   4.986  1.00  0.00     0.012 A 
HETATM   13  C   UNL     1      44.337 -13.953   6.302  1.00  0.00     0.040 A 
HETATM   14  C   UNL     1      43.523 -12.975   6.876  1.00  0.00     0.102 A 
HETATM   15  C   UNL     1      42.467 -12.442   6.122  1.00  0.00     0.102 A 
HETATM   16  C   UNL     1      42.280 -12.828   4.785  1.00  0.00     0.049 A 
BRANCH  14  17
HETATM   17  O   UNL     1      43.763 -12.428   8.108  1.00  0.00    -0.339 OA
BRANCH  17  18
HETATM   18  C   UNL     1      44.977 -12.811   8.748  1.00  0.00     0.278 C 
BRANCH  18  19
HETATM   19  C   UNL     1      46.012 -11.701   8.592  1.00  0.00     0.239 C 
HETATM   20  N   UNL     1      47.062 -11.985   7.767  1.00  0.00    -0.368 N 
HETATM   21  H   UNL     1      47.013 -12.785   7.146  1.00  0.00     0.159 HD
HETATM   22  H   UNL     1      47.741 -11.258   7.584  1.00  0.00     0.159 HD
HETATM   23  O   UNL     1      45.955 -10.637   9.201  1.00  0.00    -0.271 OA
ENDBRANCH  18  19
ENDBRANCH  17  18
ENDBRANCH  14  17
BRANCH  15  24
HETATM   24  O   UNL     1      41.620 -11.464   6.581  1.00  0.00    -0.349 OA
BRANCH  24  25
HETATM   25  C   UNL     1      40.242 -11.850   6.665  1.00  0.00     0.171 C 
HETATM   26  C   UNL     1      39.623 -11.453   7.994  1.00  0.00     0.034 C 
ENDBRANCH  24  25
ENDBRANCH  15  24
ENDBRANCH   1  11
BRANCH   8  27
HETATM   27  C   UNL     1      42.451 -16.699   3.238  1.00  0.00     0.256 C 
HETATM   28  N   UNL     1      43.552 -17.476   2.957  1.00  0.00    -0.323 N 
HETATM   29  H   UNL     1      44.042 -17.239   2.106  1.00  0.00     0.169 HD
HETATM   30  O   UNL     1      41.566 -16.917   4.053  1.00  0.00    -0.267 OA
BRANCH  28  31
HETATM   31  C   UNL     1      44.011 -18.669   3.571  1.00  0.00     0.041 A 
HETATM   32  C   UNL     1      44.336 -18.879   4.925  1.00  0.00    -0.035 A 
HETATM   33  C   UNL     1      44.321 -17.835   6.002  1.00  0.00     0.050 C 
HETATM   34  C   UNL     1      44.727 -20.173   5.339  1.00  0.00     0.009 A 
HETATM   35  C   UNL     1      44.849 -21.228   4.438  1.00  0.00     0.001 A 
HETATM   36  C   UNL     1      44.581 -21.010   3.097  1.00  0.00     0.002 A 
HETATM   37  C   UNL     1      44.170 -19.746   2.672  1.00  0.00     0.030 A 
ENDBRANCH  28  31
ENDBRANCH   8  27
TORSDOF 8
ENDMDL
MODEL 9
REMARK VINA RESULT:      -8.1      2.492      3.369
REMARK  8 active torsions:
REMARK  status: ('A' for Active; 'I' for Inactive)
REMARK    1  A    between atoms: C_2  and  O_3 
REMARK    2  A    between atoms: O_3  and  C_4 
REMARK    3  A    between atoms: C_5  and  O_6 
REMARK    4  A    between atoms: O_6  and  C_7 
REMARK    5  A    between atoms: C_7  and  C_8 
REMARK       I    between atoms: C_8  and  N_9 
REMARK    6  A    between atoms: C_13  and  C_14 
REMARK    7  A    between atoms: C_21  and  C_22 
REMARK       I    between atoms: C_22  and  N_23 
REMARK    8  A    between atoms: N_23  and  C_24 
ROOT
HETATM    1  C   UNL     1      40.871 -13.878   4.096  1.00  0.00     0.160 C 
HETATM    2  N   UNL     1      40.512 -12.603   4.689  1.00  0.00    -0.330 N 
HETATM    3  C   UNL     1      40.982 -12.177   5.886  1.00  0.00     0.321 C 
HETATM    4  O   UNL     1      40.447 -11.260   6.500  1.00  0.00    -0.247 OA
HETATM    5  N   UNL     1      42.100 -12.803   6.344  1.00  0.00    -0.312 N 
HETATM    6  C   UNL     1      42.788 -13.791   5.673  1.00  0.00     0.024 C 
HETATM    7  C   UNL     1      44.083 -14.214   6.314  1.00  0.00     0.069 C 
HETATM    8  C   UNL     1      42.240 -14.311   4.554  1.00  0.00     0.059 C 
HETATM    9  H   UNL     1      39.668 -12.139   4.385  1.00  0.00     0.165 HD
HETATM   10  H   UNL     1      42.480 -12.412   7.199  1.00  0.00     0.170 HD
ENDROOT
BRANCH   1  11
HETATM   11  C   UNL     1      40.567 -13.812   2.608  1.00  0.00    -0.028 A 
HETATM   12  C   UNL     1      39.699 -14.774   2.059  1.00  0.00     0.012 A 
HETATM   13  C   UNL     1      39.273 -14.695   0.730  1.00  0.00     0.040 A 
HETATM   14  C   UNL     1      39.722 -13.662  -0.094  1.00  0.00     0.102 A 
HETATM   15  C   UNL     1      40.624 -12.723   0.426  1.00  0.00     0.102 A 
HETATM   16  C   UNL     1      41.011 -12.776   1.775  1.00  0.00     0.049 A 
BRANCH  14  17
HETATM   17  O   UNL     1      39.244 -13.450  -1.359  1.00  0.00    -0.339 OA
BRANCH  17  18
HETATM   18  C   UNL     1      39.700 -14.347  -2.369  1.00  0.00     0.278 C 
BRANCH  18  19
HETATM   19  C   UNL     1      40.786 -13.672  -3.201  1.00  0.00     0.239 C 
HETATM   20  N   UNL     1      41.990 -14.317  -3.234  1.00  0.00    -0.368 N 
HETATM   21  H   UNL     1      42.057 -15.277  -2.911  1.00  0.00     0.159 HD
HETATM   22  H   UNL     1      42.722 -13.940  -3.820  1.00  0.00     0.159 HD
HETATM   23  O   UNL     1      40.631 -12.594  -3.765  1.00  0.00    -0.271 OA
ENDBRANCH  18  19
ENDBRANCH  17  18
ENDBRANCH  14  17
BRANCH  15  24
HETATM   24  O   UNL     1      41.111 -11.656  -0.289  1.00  0.00    -0.349 OA
BRANCH  24  25
HETATM   25  C   UNL     1      42.541 -11.544  -0.307  1.00  0.00     0.171 C 
HETATM   26  C   UNL     1      43.048 -10.981  -1.622  1.00  0.00     0.034 C 
ENDBRANCH  24  25
ENDBRANCH  15  24
ENDBRANCH   1  11
BRANCH   8  27
HETATM   27  C   UNL     1      42.994 -15.353   3.799  1.00  0.00     0.256 C 
HETATM   28  N   UNL     1      42.644 -16.638   4.145  1.00  0.00    -0.323 N 
HETATM   29  H   UNL     1      42.055 -16.721   4.962  1.00  0.00     0.169 HD
HETATM   30  O   UNL     1      43.867 -14.995   3.021  1.00  0.00    -0.267 OA
BRANCH  28  31
HETATM   31  C   UNL     1      43.117 -17.881   3.650  1.00  0.00     0.041 A 
HETATM   32  C   UNL     1      42.824 -18.492   2.417  1.00  0.00    -0.035 A 
HETATM   33  C   UNL     1      41.875 -17.965   1.380  1.00  0.00     0.050 C 
HETATM   34  C   UNL     1      43.451 -19.719   2.098  1.00  0.00     0.009 A 
HETATM   35  C   UNL     1      44.307 -20.360   2.989  1.00  0.00     0.001 A 
HETATM   36  C   UNL     1      44.555 -19.786   4.225  1.00  0.00     0.002 A 
HETATM   37  C   UNL     1      43.965 -18.564   4.549  1.00  0.00     0.030 A 
ENDBRANCH  28  31
ENDBRANCH   8  27
TORSDOF 8
ENDMDL
MODEL 10
REMARK VINA RESULT:      -8.0      2.229      7.101
REMARK  8 active torsions:
REMARK  status: ('A' for Active; 'I' for Inactive)
REMARK    1  A    between atoms: C_2  and  O_3 
REMARK    2  A    between atoms: O_3  and  C_4 
REMARK    3  A    between atoms: C_5  and  O_6 
REMARK    4  A    between atoms: O_6  and  C_7 
REMARK    5  A    between atoms: C_7  and  C_8 
REMARK       I    between atoms: C_8  and  N_9 
REMARK    6  A    between atoms: C_13  and  C_14 
REMARK    7  A    between atoms: C_21  and  C_22 
REMARK       I    between atoms: C_22  and  N_23 
REMARK    8  A    between atoms: N_23  and  C_24 
ROOT
HETATM    1  C   UNL     1      42.093 -14.248   3.298  1.00  0.00     0.160 C 
HETATM    2  N   UNL     1      42.335 -13.819   4.662  1.00  0.00    -0.330 N 
HETATM    3  C   UNL     1      41.749 -12.731   5.218  1.00  0.00     0.321 C 
HETATM    4  O   UNL     1      42.183 -12.218   6.243  1.00  0.00    -0.247 OA
HETATM    5  N   UNL     1      40.633 -12.269   4.590  1.00  0.00    -0.312 N 
HETATM    6  C   UNL     1      40.055 -12.840   3.477  1.00  0.00     0.024 C 
HETATM    7  C   UNL     1      38.739 -12.239   3.063  1.00  0.00     0.069 C 
HETATM    8  C   UNL     1      40.718 -13.831   2.844  1.00  0.00     0.059 C 
HETATM    9  H   UNL     1      43.174 -14.125   5.134  1.00  0.00     0.165 HD
HETATM   10  H   UNL     1      40.166 -11.507   5.070  1.00  0.00     0.170 HD
ENDROOT
BRANCH   1  11
HETATM   11  C   UNL     1      42.511 -15.705   3.177  1.00  0.00    -0.028 A 
HETATM   12  C   UNL     1      43.297 -16.086   2.075  1.00  0.00     0.012 A 
HETATM   13  C   UNL     1      43.825 -17.376   1.970  1.00  0.00     0.040 A 
HETATM   14  C   UNL     1      43.562 -18.328   2.957  1.00  0.00     0.102 A 
HETATM   15  C   UNL     1      42.740 -17.976   4.037  1.00  0.00     0.102 A 
HETATM   16  C   UNL     1      42.253 -16.665   4.165  1.00  0.00     0.049 A 
BRANCH  14  17
HETATM   17  O   UNL     1      44.153 -19.563   2.984  1.00  0.00    -0.339 OA
BRANCH  17  18
HETATM   18  C   UNL     1      43.610 -20.547   2.107  1.00  0.00     0.278 C 
BRANCH  18  19
HETATM   19  C   UNL     1      44.286 -21.890   2.362  1.00  0.00     0.239 C 
HETATM   20  N   UNL     1      44.550 -22.180   3.670  1.00  0.00    -0.368 N 
HETATM   21  H   UNL     1      44.114 -21.632   4.405  1.00  0.00     0.159 HD
HETATM   22  H   UNL     1      44.942 -23.084   3.894  1.00  0.00     0.159 HD
HETATM   23  O   UNL     1      44.632 -22.651   1.463  1.00  0.00    -0.271 OA
ENDBRANCH  18  19
ENDBRANCH  17  18
ENDBRANCH  14  17
BRANCH  15  24
HETATM   24  O   UNL     1      42.435 -18.826   5.071  1.00  0.00    -0.349 OA
BRANCH  24  25
HETATM   25  C   UNL     1      43.239 -18.659   6.247  1.00  0.00     0.171 C 
HETATM   26  C   UNL     1      43.904 -19.957   6.667  1.00  0.00     0.034 C 
ENDBRANCH  24  25
ENDBRANCH  15  24
ENDBRANCH   1  11
BRANCH   8  27
HETATM   27  C   UNL     1      40.084 -14.482   1.661  1.00  0.00     0.256 C 
HETATM   28  N   UNL     1      40.527 -13.979   0.459  1.00  0.00    -0.323 N 
HETATM   29  H   UNL     1      41.089 -13.143   0.521  1.00  0.00     0.169 HD
HETATM   30  O   UNL     1      39.214 -15.320   1.851  1.00  0.00    -0.267 OA
BRANCH  28  31
HETATM   31  C   UNL     1      40.179 -14.341  -0.868  1.00  0.00     0.041 A 
HETATM   32  C   UNL     1      39.058 -13.930  -1.614  1.00  0.00    -0.035 A 
HETATM   33  C   UNL     1      37.945 -13.056  -1.115  1.00  0.00     0.050 C 
HETATM   34  C   UNL     1      38.930 -14.371  -2.951  1.00  0.00     0.009 A 
HETATM   35  C   UNL     1      39.852 -15.238  -3.531  1.00  0.00     0.001 A 
HETATM   36  C   UNL     1      40.928 -15.685  -2.781  1.00  0.00     0.002 A 
HETATM   37  C   UNL     1      41.085 -15.242  -1.467  1.00  0.00     0.030 A 
ENDBRANCH  28  31
ENDBRANCH   8  27
TORSDOF 8
ENDMDL
