MODEL 1
REMARK VINA RESULT:      -9.1      0.000      0.000
REMARK  3 active torsions:
REMARK  status: ('A' for Active; 'I' for Inactive)
REMARK    1  A    between atoms: O_2  and  C_3 
REMARK    2  A    between atoms: C_4  and  N_5 
REMARK       I    between atoms: N_5  and  C_6 
REMARK       I    between atoms: C_6  and  N_7 
REMARK    3  A    between atoms: C_10  and  C_11 
ROOT
HETATM    1  N   UNL     1      39.449 -14.565  -0.068  1.00  0.00    -0.306 N 
HETATM    2  C   UNL     1      40.681 -14.256   0.462  1.00  0.00     0.323 C 
HETATM    3  N   UNL     1      41.223 -15.269   1.266  1.00  0.00    -0.330 N 
HETATM    4  C   UNL     1      42.449 -14.876   1.942  1.00  0.00     0.155 C 
HETATM    5  C   UNL     1      43.077 -15.985   2.722  1.00  0.00     0.001 C 
HETATM    6  C   UNL     1      42.703 -17.279   2.704  1.00  0.00    -0.046 C 
HETATM    7  C   UNL     1      41.512 -17.681   1.873  1.00  0.00     0.059 C 
HETATM    8  C   UNL     1      41.161 -16.651   0.793  1.00  0.00     0.132 C 
HETATM    9  O   UNL     1      41.246 -13.181   0.285  1.00  0.00    -0.247 OA
HETATM   10  H   UNL     1      38.810 -14.996   0.590  1.00  0.00     0.171 HD
ENDROOT
BRANCH   1  11
HETATM   11  C   UNL     1      38.845 -13.824  -1.107  1.00  0.00     0.071 A 
HETATM   12  C   UNL     1      39.201 -14.096  -2.435  1.00  0.00     0.095 A 
HETATM   13  C   UNL     1      38.682 -13.331  -3.482  1.00  0.00     0.041 A 
HETATM   14  C   UNL     1      37.783 -12.302  -3.205  1.00  0.00     0.026 A 
HETATM   15  C   UNL     1      37.411 -12.042  -1.885  1.00  0.00     0.036 A 
HETATM   16  C   UNL     1      37.936 -12.798  -0.837  1.00  0.00     0.056 A 
HETATM   17 CL   UNL     1      36.317 -10.756  -1.547  1.00  0.00    -0.084 Cl
BRANCH  12  18
HETATM   18  O   UNL     1      40.067 -15.132  -2.686  1.00  0.00    -0.354 OA
HETATM   19  C   UNL     1      41.303 -14.632  -3.206  1.00  0.00     0.210 C 
ENDBRANCH  12  18
ENDBRANCH   1  11
BRANCH   6  20
HETATM   20  C   UNL     1      43.430 -18.332   3.374  1.00  0.00    -0.002 A 
HETATM   21  C   UNL     1      43.704 -19.690   2.975  1.00  0.00     0.003 A 
HETATM   22  C   UNL     1      44.506 -20.260   3.970  1.00  0.00     0.043 A 
HETATM   23  C   UNL     1      43.367 -20.510   1.873  1.00  0.00     0.014 A 
HETATM   24  C   UNL     1      44.997 -21.570   3.911  1.00  0.00     0.030 A 
HETATM   25  N   UNL     1      44.690 -19.309   4.943  1.00  0.00    -0.364 N 
HETATM   26  C   UNL     1      44.661 -22.342   2.799  1.00  0.00     0.002 A 
HETATM   27  C   UNL     1      43.854 -21.823   1.793  1.00  0.00     0.001 A 
HETATM   28  H   UNL     1      45.229 -19.448   5.786  1.00  0.00     0.165 HD
HETATM   29  C   UNL     1      44.059 -18.150   4.593  1.00  0.00     0.101 A 
ENDBRANCH   6  20
TORSDOF 3
ENDMDL
MODEL 2
REMARK VINA RESULT:      -9.0      2.122      2.422
REMARK  3 active torsions:
REMARK  status: ('A' for Active; 'I' for Inactive)
REMARK    1  A    between atoms: O_2  and  C_3 
REMARK    2  A    between atoms: C_4  and  N_5 
REMARK       I    between atoms: N_5  and  C_6 
REMARK       I    between atoms: C_6  and  N_7 
REMARK    3  A    between atoms: C_10  and  C_11 
ROOT
HETATM    1  N   UNL     1      42.096 -14.480  -1.141  1.00  0.00    -0.306 N 
HETATM    2  C   UNL     1      41.260 -15.022  -0.191  1.00  0.00     0.323 C 
HETATM    3  N   UNL     1      41.863 -16.010   0.600  1.00  0.00    -0.330 N 
HETATM    4  C   UNL     1      40.933 -16.681   1.494  1.00  0.00     0.155 C 
HETATM    5  C   UNL     1      41.593 -17.667   2.404  1.00  0.00     0.001 C 
HETATM    6  C   UNL     1      42.920 -17.839   2.559  1.00  0.00    -0.046 C 
HETATM    7  C   UNL     1      43.863 -17.019   1.718  1.00  0.00     0.059 C 
HETATM    8  C   UNL     1      43.205 -15.767   1.128  1.00  0.00     0.132 C 
HETATM    9  O   UNL     1      40.081 -14.704  -0.065  1.00  0.00    -0.247 OA
HETATM   10  H   UNL     1      42.658 -15.163  -1.637  1.00  0.00     0.171 HD
ENDROOT
BRANCH   1  11
HETATM   11  C   UNL     1      41.796 -13.301  -1.857  1.00  0.00     0.071 A 
HETATM   12  C   UNL     1      41.315 -13.404  -3.169  1.00  0.00     0.095 A 
HETATM   13  C   UNL     1      41.081 -12.258  -3.933  1.00  0.00     0.041 A 
HETATM   14  C   UNL     1      41.306 -10.999  -3.375  1.00  0.00     0.026 A 
HETATM   15  C   UNL     1      41.767 -10.895  -2.062  1.00  0.00     0.036 A 
HETATM   16  C   UNL     1      42.011 -12.037  -1.301  1.00  0.00     0.056 A 
HETATM   17 CL   UNL     1      42.064  -9.339  -1.387  1.00  0.00    -0.084 Cl
BRANCH  12  18
HETATM   18  O   UNL     1      41.074 -14.653  -3.687  1.00  0.00    -0.354 OA
HETATM   19  C   UNL     1      39.668 -14.919  -3.710  1.00  0.00     0.210 C 
ENDBRANCH  12  18
ENDBRANCH   1  11
BRANCH   6  20
HETATM   20  C   UNL     1      43.503 -18.712   3.551  1.00  0.00    -0.002 A 
HETATM   21  C   UNL     1      43.924 -20.088   3.464  1.00  0.00     0.003 A 
HETATM   22  C   UNL     1      44.481 -20.429   4.702  1.00  0.00     0.043 A 
HETATM   23  C   UNL     1      43.905 -21.094   2.469  1.00  0.00     0.014 A 
HETATM   24  C   UNL     1      45.027 -21.688   4.984  1.00  0.00     0.030 A 
HETATM   25  N   UNL     1      44.378 -19.327   5.515  1.00  0.00    -0.364 N 
HETATM   26  C   UNL     1      45.009 -22.647   3.971  1.00  0.00     0.002 A 
HETATM   27  C   UNL     1      44.453 -22.358   2.730  1.00  0.00     0.001 A 
HETATM   28  H   UNL     1      44.699 -19.290   6.472  1.00  0.00     0.165 HD
HETATM   29  C   UNL     1      43.804 -18.293   4.834  1.00  0.00     0.101 A 
ENDBRANCH   6  20
TORSDOF 3
ENDMDL
MODEL 3
REMARK VINA RESULT:      -9.0      1.651      1.882
REMARK  3 active torsions:
REMARK  status: ('A' for Active; 'I' for Inactive)
REMARK    1  A    between atoms: O_2  and  C_3 
REMARK    2  A    between atoms: C_4  and  N_5 
REMARK       I    between atoms: N_5  and  C_6 
REMARK       I    between atoms: C_6  and  N_7 
REMARK    3  A    between atoms: C_10  and  C_11 
ROOT
HETATM    1  N   UNL     1      40.110 -14.515  -1.182  1.00  0.00    -0.306 N 
HETATM    2  C   UNL     1      39.949 -14.545   0.185  1.00  0.00     0.323 C 
HETATM    3  N   UNL     1      40.652 -15.580   0.817  1.00  0.00    -0.330 N 
HETATM    4  C   UNL     1      40.358 -15.697   2.236  1.00  0.00     0.155 C 
HETATM    5  C   UNL     1      41.178 -16.737   2.928  1.00  0.00     0.001 C 
HETATM    6  C   UNL     1      42.219 -17.408   2.400  1.00  0.00    -0.046 C 
HETATM    7  C   UNL     1      42.594 -17.154   0.962  1.00  0.00     0.059 C 
HETATM    8  C   UNL     1      42.038 -15.832   0.423  1.00  0.00     0.132 C 
HETATM    9  O   UNL     1      39.228 -13.765   0.801  1.00  0.00    -0.247 OA
HETATM   10  H   UNL     1      40.053 -15.424  -1.626  1.00  0.00     0.171 HD
ENDROOT
BRANCH   1  11
HETATM   11  C   UNL     1      39.724 -13.419  -1.983  1.00  0.00     0.071 A 
HETATM   12  C   UNL     1      38.501 -13.470  -2.666  1.00  0.00     0.095 A 
HETATM   13  C   UNL     1      38.123 -12.438  -3.528  1.00  0.00     0.041 A 
HETATM   14  C   UNL     1      38.962 -11.335  -3.693  1.00  0.00     0.026 A 
HETATM   15  C   UNL     1      40.171 -11.273  -3.000  1.00  0.00     0.036 A 
HETATM   16  C   UNL     1      40.555 -12.307  -2.145  1.00  0.00     0.056 A 
HETATM   17 CL   UNL     1      41.211  -9.920  -3.224  1.00  0.00    -0.084 Cl
BRANCH  12  18
HETATM   18  O   UNL     1      37.679 -14.552  -2.467  1.00  0.00    -0.354 OA
HETATM   19  C   UNL     1      37.469 -15.250  -3.698  1.00  0.00     0.210 C 
ENDBRANCH  12  18
ENDBRANCH   1  11
BRANCH   6  20
HETATM   20  C   UNL     1      43.061 -18.305   3.156  1.00  0.00    -0.002 A 
HETATM   21  C   UNL     1      43.492 -19.652   2.878  1.00  0.00     0.003 A 
HETATM   22  C   UNL     1      44.352 -20.034   3.915  1.00  0.00     0.043 A 
HETATM   23  C   UNL     1      43.257 -20.601   1.856  1.00  0.00     0.014 A 
HETATM   24  C   UNL     1      44.992 -21.278   3.970  1.00  0.00     0.030 A 
HETATM   25  N   UNL     1      44.420 -18.984   4.797  1.00  0.00    -0.364 N 
HETATM   26  C   UNL     1      44.752 -22.180   2.933  1.00  0.00     0.002 A 
HETATM   27  C   UNL     1      43.894 -21.850   1.891  1.00  0.00     0.001 A 
HETATM   28  H   UNL     1      44.969 -18.984   5.646  1.00  0.00     0.165 HD
HETATM   29  C   UNL     1      43.660 -17.943   4.349  1.00  0.00     0.101 A 
ENDBRANCH   6  20
TORSDOF 3
ENDMDL
MODEL 4
REMARK VINA RESULT:      -8.9      1.208      1.254
REMARK  3 active torsions:
REMARK  status: ('A' for Active; 'I' for Inactive)
REMARK    1  A    between atoms: O_2  and  C_3 
REMARK    2  A    between atoms: C_4  and  N_5 
REMARK       I    between atoms: N_5  and  C_6 
REMARK       I    between atoms: C_6  and  N_7 
REMARK    3  A    between atoms: C_10  and  C_11 
ROOT
HETATM    1  N   UNL     1      39.877 -14.743  -1.131  1.00  0.00    -0.306 N 
HETATM    2  C   UNL     1      40.070 -14.495   0.209  1.00  0.00     0.323 C 
HETATM    3  N   UNL     1      40.718 -15.535   0.891  1.00  0.00    -0.330 N 
HETATM    4  C   UNL     1      40.780 -15.332   2.330  1.00  0.00     0.155 C 
HETATM    5  C   UNL     1      41.554 -16.391   3.045  1.00  0.00     0.001 C 
HETATM    6  C   UNL     1      42.292 -17.360   2.470  1.00  0.00    -0.046 C 
HETATM    7  C   UNL     1      42.325 -17.453   0.966  1.00  0.00     0.059 C 
HETATM    8  C   UNL     1      41.890 -16.156   0.276  1.00  0.00     0.132 C 
HETATM    9  O   UNL     1      39.678 -13.478   0.774  1.00  0.00    -0.247 OA
HETATM   10  H   UNL     1      39.550 -15.680  -1.338  1.00  0.00     0.171 HD
ENDROOT
BRANCH   1  11
HETATM   11  C   UNL     1      39.498 -13.746  -2.056  1.00  0.00     0.071 A 
HETATM   12  C   UNL     1      40.477 -13.163  -2.872  1.00  0.00     0.095 A 
HETATM   13  C   UNL     1      40.150 -12.122  -3.743  1.00  0.00     0.041 A 
HETATM   14  C   UNL     1      38.831 -11.672  -3.817  1.00  0.00     0.026 A 
HETATM   15  C   UNL     1      37.851 -12.264  -3.020  1.00  0.00     0.036 A 
HETATM   16  C   UNL     1      38.177 -13.298  -2.143  1.00  0.00     0.056 A 
HETATM   17 CL   UNL     1      36.230 -11.691  -3.101  1.00  0.00    -0.084 Cl
BRANCH  12  18
HETATM   18  O   UNL     1      41.763 -13.641  -2.801  1.00  0.00    -0.354 OA
HETATM   19  C   UNL     1      42.681 -12.565  -2.583  1.00  0.00     0.210 C 
ENDBRANCH  12  18
ENDBRANCH   1  11
BRANCH   6  20
HETATM   20  C   UNL     1      43.128 -18.276   3.210  1.00  0.00    -0.002 A 
HETATM   21  C   UNL     1      43.527 -19.631   2.922  1.00  0.00     0.003 A 
HETATM   22  C   UNL     1      44.397 -20.033   3.942  1.00  0.00     0.043 A 
HETATM   23  C   UNL     1      43.254 -20.573   1.902  1.00  0.00     0.014 A 
HETATM   24  C   UNL     1      45.012 -21.290   3.984  1.00  0.00     0.030 A 
HETATM   25  N   UNL     1      44.501 -18.987   4.826  1.00  0.00    -0.364 N 
HETATM   26  C   UNL     1      44.736 -22.184   2.949  1.00  0.00     0.002 A 
HETATM   27  C   UNL     1      43.866 -21.835   1.923  1.00  0.00     0.001 A 
HETATM   28  H   UNL     1      45.065 -18.999   5.664  1.00  0.00     0.165 HD
HETATM   29  C   UNL     1      43.755 -17.929   4.393  1.00  0.00     0.101 A 
ENDBRANCH   6  20
TORSDOF 3
ENDMDL
MODEL 5
REMARK VINA RESULT:      -8.6      3.513      9.405
REMARK  3 active torsions:
REMARK  status: ('A' for Active; 'I' for Inactive)
REMARK    1  A    between atoms: O_2  and  C_3 
REMARK    2  A    between atoms: C_4  and  N_5 
REMARK       I    between atoms: N_5  and  C_6 
REMARK       I    between atoms: C_6  and  N_7 
REMARK    3  A    between atoms: C_10  and  C_11 
ROOT
HETATM    1  N   UNL     1      42.712 -17.107   2.266  1.00  0.00    -0.306 N 
HETATM    2  C   UNL     1      41.389 -16.803   2.490  1.00  0.00     0.323 C 
HETATM    3  N   UNL     1      40.878 -15.821   1.629  1.00  0.00    -0.330 N 
HETATM    4  C   UNL     1      39.530 -15.397   1.969  1.00  0.00     0.155 C 
HETATM    5  C   UNL     1      38.951 -14.422   0.996  1.00  0.00     0.001 C 
HETATM    6  C   UNL     1      39.490 -14.065  -0.185  1.00  0.00    -0.046 C 
HETATM    7  C   UNL     1      40.827 -14.638  -0.578  1.00  0.00     0.059 C 
HETATM    8  C   UNL     1      41.186 -15.908   0.202  1.00  0.00     0.132 C 
HETATM    9  O   UNL     1      40.718 -17.310   3.384  1.00  0.00    -0.247 OA
HETATM   10  H   UNL     1      43.305 -16.298   2.116  1.00  0.00     0.171 HD
ENDROOT
BRANCH   1  11
HETATM   11  C   UNL     1      43.352 -18.237   2.820  1.00  0.00     0.071 A 
HETATM   12  C   UNL     1      43.903 -18.148   4.105  1.00  0.00     0.095 A 
HETATM   13  C   UNL     1      44.610 -19.221   4.653  1.00  0.00     0.041 A 
HETATM   14  C   UNL     1      44.748 -20.401   3.921  1.00  0.00     0.026 A 
HETATM   15  C   UNL     1      44.184 -20.499   2.649  1.00  0.00     0.036 A 
HETATM   16  C   UNL     1      43.486 -19.425   2.096  1.00  0.00     0.056 A 
HETATM   17 CL   UNL     1      44.376 -21.950   1.743  1.00  0.00    -0.084 Cl
BRANCH  12  18
HETATM   18  O   UNL     1      43.730 -16.986   4.817  1.00  0.00    -0.354 OA
HETATM   19  C   UNL     1      43.097 -17.261   6.071  1.00  0.00     0.210 C 
ENDBRANCH  12  18
ENDBRANCH   1  11
BRANCH   6  20
HETATM   20  C   UNL     1      38.822 -13.220  -1.147  1.00  0.00    -0.002 A 
HETATM   21  C   UNL     1      38.039 -13.553  -2.311  1.00  0.00     0.003 A 
HETATM   22  C   UNL     1      37.571 -12.350  -2.853  1.00  0.00     0.043 A 
HETATM   23  C   UNL     1      37.663 -14.745  -2.973  1.00  0.00     0.014 A 
HETATM   24  C   UNL     1      36.747 -12.281  -3.983  1.00  0.00     0.030 A 
HETATM   25  N   UNL     1      38.067 -11.331  -2.077  1.00  0.00    -0.364 N 
HETATM   26  C   UNL     1      36.380 -13.479  -4.597  1.00  0.00     0.002 A 
HETATM   27  C   UNL     1      36.833 -14.696  -4.102  1.00  0.00     0.001 A 
HETATM   28  H   UNL     1      37.890 -10.350  -2.240  1.00  0.00     0.165 HD
HETATM   29  C   UNL     1      38.808 -11.840  -1.050  1.00  0.00     0.101 A 
ENDBRANCH   6  20
TORSDOF 3
ENDMDL
MODEL 6
REMARK VINA RESULT:      -8.5      2.598      3.050
REMARK  3 active torsions:
REMARK  status: ('A' for Active; 'I' for Inactive)
REMARK    1  A    between atoms: O_2  and  C_3 
REMARK    2  A    between atoms: C_4  and  N_5 
REMARK       I    between atoms: N_5  and  C_6 
REMARK       I    between atoms: C_6  and  N_7 
REMARK    3  A    between atoms: C_10  and  C_11 
ROOT
HETATM    1  N   UNL     1      42.063 -12.764   1.425  1.00  0.00    -0.306 N 
HETATM    2  C   UNL     1      41.871 -14.013   0.882  1.00  0.00     0.323 C 
HETATM    3  N   UNL     1      42.506 -15.044   1.589  1.00  0.00    -0.330 N 
HETATM    4  C   UNL     1      42.425 -16.336   0.926  1.00  0.00     0.155 C 
HETATM    5  C   UNL     1      43.018 -17.450   1.725  1.00  0.00     0.001 C 
HETATM    6  C   UNL     1      43.439 -17.375   3.002  1.00  0.00    -0.046 C 
HETATM    7  C   UNL     1      43.373 -16.049   3.713  1.00  0.00     0.059 C 
HETATM    8  C   UNL     1      42.407 -15.061   3.048  1.00  0.00     0.132 C 
HETATM    9  O   UNL     1      41.235 -14.215  -0.149  1.00  0.00    -0.247 OA
HETATM   10  H   UNL     1      43.017 -12.579   1.715  1.00  0.00     0.171 HD
ENDROOT
BRANCH   1  11
HETATM   11  C   UNL     1      41.310 -11.630   1.048  1.00  0.00     0.071 A 
HETATM   12  C   UNL     1      41.897 -10.668   0.215  1.00  0.00     0.095 A 
HETATM   13  C   UNL     1      41.209  -9.498  -0.115  1.00  0.00     0.041 A 
HETATM   14  C   UNL     1      39.917  -9.297   0.372  1.00  0.00     0.026 A 
HETATM   15  C   UNL     1      39.324 -10.263   1.186  1.00  0.00     0.036 A 
HETATM   16  C   UNL     1      40.012 -11.427   1.525  1.00  0.00     0.056 A 
HETATM   17 CL   UNL     1      37.738  -9.999   1.801  1.00  0.00    -0.084 Cl
BRANCH  12  18
HETATM   18  O   UNL     1      43.159 -10.901  -0.274  1.00  0.00    -0.354 OA
HETATM   19  C   UNL     1      43.447 -10.004  -1.351  1.00  0.00     0.210 C 
ENDBRANCH  12  18
ENDBRANCH   1  11
BRANCH   6  20
HETATM   20  C   UNL     1      43.880 -18.517   3.768  1.00  0.00    -0.002 A 
HETATM   21  C   UNL     1      44.070 -19.894   3.384  1.00  0.00     0.003 A 
HETATM   22  C   UNL     1      44.573 -20.569   4.503  1.00  0.00     0.043 A 
HETATM   23  C   UNL     1      43.879 -20.654   2.207  1.00  0.00     0.014 A 
HETATM   24  C   UNL     1      44.908 -21.929   4.498  1.00  0.00     0.030 A 
HETATM   25  N   UNL     1      44.658 -19.659   5.527  1.00  0.00    -0.364 N 
HETATM   26  C   UNL     1      44.726 -22.641   3.312  1.00  0.00     0.002 A 
HETATM   27  C   UNL     1      44.215 -22.015   2.181  1.00  0.00     0.001 A 
HETATM   28  H   UNL     1      44.988 -19.873   6.458  1.00  0.00     0.165 HD
HETATM   29  C   UNL     1      44.255 -18.427   5.097  1.00  0.00     0.101 A 
ENDBRANCH   6  20
TORSDOF 3
ENDMDL
MODEL 7
REMARK VINA RESULT:      -8.4      2.397      3.503
REMARK  3 active torsions:
REMARK  status: ('A' for Active; 'I' for Inactive)
REMARK    1  A    between atoms: O_2  and  C_3 
REMARK    2  A    between atoms: C_4  and  N_5 
REMARK       I    between atoms: N_5  and  C_6 
REMARK       I    between atoms: C_6  and  N_7 
REMARK    3  A    between atoms: C_10  and  C_11 
ROOT
HETATM    1  N   UNL     1      42.096 -14.623  -0.941  1.00  0.00    -0.306 N 
HETATM    2  C   UNL     1      41.233 -15.067   0.034  1.00  0.00     0.323 C 
HETATM    3  N   UNL     1      41.816 -15.961   0.944  1.00  0.00    -0.330 N 
HETATM    4  C   UNL     1      40.863 -16.542   1.876  1.00  0.00     0.155 C 
HETATM    5  C   UNL     1      41.500 -17.419   2.904  1.00  0.00     0.001 C 
HETATM    6  C   UNL     1      42.822 -17.563   3.118  1.00  0.00    -0.046 C 
HETATM    7  C   UNL     1      43.786 -16.827   2.224  1.00  0.00     0.059 C 
HETATM    8  C   UNL     1      43.140 -15.651   1.483  1.00  0.00     0.132 C 
HETATM    9  O   UNL     1      40.049 -14.748   0.090  1.00  0.00    -0.247 OA
HETATM   10  H   UNL     1      42.676 -15.349  -1.345  1.00  0.00     0.171 HD
ENDROOT
BRANCH   1  11
HETATM   11  C   UNL     1      41.811 -13.529  -1.787  1.00  0.00     0.071 A 
HETATM   12  C   UNL     1      41.340 -13.774  -3.085  1.00  0.00     0.095 A 
HETATM   13  C   UNL     1      41.121 -12.719  -3.974  1.00  0.00     0.041 A 
HETATM   14  C   UNL     1      41.353 -11.408  -3.559  1.00  0.00     0.026 A 
HETATM   15  C   UNL     1      41.804 -11.160  -2.261  1.00  0.00     0.036 A 
HETATM   16  C   UNL     1      42.032 -12.212  -1.375  1.00  0.00     0.056 A 
HETATM   17 CL   UNL     1      42.108  -9.541  -1.762  1.00  0.00    -0.084 Cl
BRANCH  12  18
HETATM   18  O   UNL     1      41.092 -15.072  -3.462  1.00  0.00    -0.354 OA
HETATM   19  C   UNL     1      39.686 -15.283  -3.620  1.00  0.00     0.210 C 
ENDBRANCH  12  18
ENDBRANCH   1  11
BRANCH   6  20
HETATM   20  C   UNL     1      43.379 -18.321   4.213  1.00  0.00    -0.002 A 
HETATM   21  C   UNL     1      43.436 -18.034   5.625  1.00  0.00     0.003 A 
HETATM   22  C   UNL     1      44.030 -19.138   6.248  1.00  0.00     0.043 A 
HETATM   23  C   UNL     1      43.043 -16.961   6.458  1.00  0.00     0.014 A 
HETATM   24  C   UNL     1      44.228 -19.231   7.631  1.00  0.00     0.030 A 
HETATM   25  N   UNL     1      44.349 -20.041   5.263  1.00  0.00    -0.364 N 
HETATM   26  C   UNL     1      43.809 -18.162   8.423  1.00  0.00     0.002 A 
HETATM   27  C   UNL     1      43.227 -17.039   7.846  1.00  0.00     0.001 A 
HETATM   28  H   UNL     1      44.794 -20.933   5.427  1.00  0.00     0.165 HD
HETATM   29  C   UNL     1      43.956 -19.567   4.045  1.00  0.00     0.101 A 
ENDBRANCH   6  20
TORSDOF 3
ENDMDL
MODEL 8
REMARK VINA RESULT:      -8.3      2.064      2.900
REMARK  3 active torsions:
REMARK  status: ('A' for Active; 'I' for Inactive)
REMARK    1  A    between atoms: O_2  and  C_3 
REMARK    2  A    between atoms: C_4  and  N_5 
REMARK       I    between atoms: N_5  and  C_6 
REMARK       I    between atoms: C_6  and  N_7 
REMARK    3  A    between atoms: C_10  and  C_11 
ROOT
HETATM    1  N   UNL     1      41.649 -12.836   0.228  1.00  0.00    -0.306 N 
HETATM    2  C   UNL     1      41.266 -14.135  -0.020  1.00  0.00     0.323 C 
HETATM    3  N   UNL     1      41.991 -15.090   0.708  1.00  0.00    -0.330 N 
HETATM    4  C   UNL     1      41.686 -16.460   0.329  1.00  0.00     0.155 C 
HETATM    5  C   UNL     1      42.386 -17.477   1.170  1.00  0.00     0.001 C 
HETATM    6  C   UNL     1      43.097 -17.231   2.287  1.00  0.00    -0.046 C 
HETATM    7  C   UNL     1      43.272 -15.804   2.738  1.00  0.00     0.059 C 
HETATM    8  C   UNL     1      42.235 -14.852   2.131  1.00  0.00     0.132 C 
HETATM    9  O   UNL     1      40.398 -14.443  -0.831  1.00  0.00    -0.247 OA
HETATM   10  H   UNL     1      42.653 -12.699   0.262  1.00  0.00     0.171 HD
ENDROOT
BRANCH   1  11
HETATM   11  C   UNL     1      40.893 -11.715  -0.177  1.00  0.00     0.071 A 
HETATM   12  C   UNL     1      39.952 -11.171   0.707  1.00  0.00     0.095 A 
HETATM   13  C   UNL     1      39.133 -10.111   0.311  1.00  0.00     0.041 A 
HETATM   14  C   UNL     1      39.270  -9.575  -0.970  1.00  0.00     0.026 A 
HETATM   15  C   UNL     1      40.220 -10.102  -1.845  1.00  0.00     0.036 A 
HETATM   16  C   UNL     1      41.032 -11.167  -1.455  1.00  0.00     0.056 A 
HETATM   17 CL   UNL     1      40.369  -9.450  -3.431  1.00  0.00    -0.084 Cl
BRANCH  12  18
HETATM   18  O   UNL     1      39.854 -11.698   1.972  1.00  0.00    -0.354 OA
HETATM   19  C   UNL     1      38.587 -12.339   2.146  1.00  0.00     0.210 C 
ENDBRANCH  12  18
ENDBRANCH   1  11
BRANCH   6  20
HETATM   20  C   UNL     1      43.640 -18.266   3.135  1.00  0.00    -0.002 A 
HETATM   21  C   UNL     1      43.835 -19.674   2.898  1.00  0.00     0.003 A 
HETATM   22  C   UNL     1      44.459 -20.203   4.034  1.00  0.00     0.043 A 
HETATM   23  C   UNL     1      43.558 -20.571   1.840  1.00  0.00     0.014 A 
HETATM   24  C   UNL     1      44.832 -21.548   4.155  1.00  0.00     0.030 A 
HETATM   25  N   UNL     1      44.611 -19.177   4.932  1.00  0.00    -0.364 N 
HETATM   26  C   UNL     1      44.561 -22.398   3.083  1.00  0.00     0.002 A 
HETATM   27  C   UNL     1      43.929 -21.920   1.941  1.00  0.00     0.001 A 
HETATM   28  H   UNL     1      45.032 -19.273   5.846  1.00  0.00     0.165 HD
HETATM   29  C   UNL     1      44.134 -18.012   4.403  1.00  0.00     0.101 A 
ENDBRANCH   6  20
TORSDOF 3
ENDMDL
MODEL 9
REMARK VINA RESULT:      -8.3      2.837      3.876
REMARK  3 active torsions:
REMARK  status: ('A' for Active; 'I' for Inactive)
REMARK    1  A    between atoms: O_2  and  C_3 
REMARK    2  A    between atoms: C_4  and  N_5 
REMARK       I    between atoms: N_5  and  C_6 
REMARK       I    between atoms: C_6  and  N_7 
REMARK    3  A    between atoms: C_10  and  C_11 
ROOT
HETATM    1  N   UNL     1      40.162 -13.007   3.371  1.00  0.00    -0.306 N 
HETATM    2  C   UNL     1      41.180 -13.485   2.578  1.00  0.00     0.323 C 
HETATM    3  N   UNL     1      41.823 -14.617   3.099  1.00  0.00    -0.330 N 
HETATM    4  C   UNL     1      42.991 -15.022   2.335  1.00  0.00     0.155 C 
HETATM    5  C   UNL     1      43.619 -16.283   2.834  1.00  0.00     0.001 C 
HETATM    6  C   UNL     1      43.111 -17.105   3.773  1.00  0.00    -0.046 C 
HETATM    7  C   UNL     1      41.816 -16.729   4.445  1.00  0.00     0.059 C 
HETATM    8  C   UNL     1      41.006 -15.698   3.651  1.00  0.00     0.132 C 
HETATM    9  O   UNL     1      41.529 -12.954   1.528  1.00  0.00    -0.247 OA
HETATM   10  H   UNL     1      40.385 -12.974   4.359  1.00  0.00     0.171 HD
ENDROOT
BRANCH   1  11
HETATM   11  C   UNL     1      39.214 -12.060   2.927  1.00  0.00     0.071 A 
HETATM   12  C   UNL     1      39.172 -10.799   3.539  1.00  0.00     0.095 A 
HETATM   13  C   UNL     1      38.197  -9.866   3.178  1.00  0.00     0.041 A 
HETATM   14  C   UNL     1      37.272 -10.183   2.184  1.00  0.00     0.026 A 
HETATM   15  C   UNL     1      37.324 -11.431   1.561  1.00  0.00     0.036 A 
HETATM   16  C   UNL     1      38.290 -12.368   1.925  1.00  0.00     0.056 A 
HETATM   17 CL   UNL     1      36.166 -11.824   0.349  1.00  0.00    -0.084 Cl
BRANCH  12  18
HETATM   18  O   UNL     1      40.111 -10.499   4.496  1.00  0.00    -0.354 OA
HETATM   19  C   UNL     1      39.471 -10.147   5.726  1.00  0.00     0.210 C 
ENDBRANCH  12  18
ENDBRANCH   1  11
BRANCH   6  20
HETATM   20  C   UNL     1      43.694 -18.379   4.121  1.00  0.00    -0.002 A 
HETATM   21  C   UNL     1      43.799 -19.605   3.369  1.00  0.00     0.003 A 
HETATM   22  C   UNL     1      44.514 -20.514   4.158  1.00  0.00     0.043 A 
HETATM   23  C   UNL     1      43.373 -20.054   2.097  1.00  0.00     0.014 A 
HETATM   24  C   UNL     1      44.838 -21.811   3.741  1.00  0.00     0.030 A 
HETATM   25  N   UNL     1      44.806 -19.886   5.344  1.00  0.00    -0.364 N 
HETATM   26  C   UNL     1      44.419 -22.211   2.472  1.00  0.00     0.002 A 
HETATM   27  C   UNL     1      43.693 -21.347   1.660  1.00  0.00     0.001 A 
HETATM   28  H   UNL     1      45.316 -20.310   6.106  1.00  0.00     0.165 HD
HETATM   29  C   UNL     1      44.328 -18.607   5.329  1.00  0.00     0.101 A 
ENDBRANCH   6  20
TORSDOF 3
ENDMDL
MODEL 10
REMARK VINA RESULT:      -8.3      3.646      9.678
REMARK  3 active torsions:
REMARK  status: ('A' for Active; 'I' for Inactive)
REMARK    1  A    between atoms: O_2  and  C_3 
REMARK    2  A    between atoms: C_4  and  N_5 
REMARK       I    between atoms: N_5  and  C_6 
REMARK       I    between atoms: C_6  and  N_7 
REMARK    3  A    between atoms: C_10  and  C_11 
ROOT
HETATM    1  N   UNL     1      42.939 -17.397   2.678  1.00  0.00    -0.306 N 
HETATM    2  C   UNL     1      41.626 -17.087   2.952  1.00  0.00     0.323 C 
HETATM    3  N   UNL     1      41.082 -16.118   2.098  1.00  0.00    -0.330 N 
HETATM    4  C   UNL     1      39.749 -15.686   2.488  1.00  0.00     0.155 C 
HETATM    5  C   UNL     1      39.132 -14.725   1.525  1.00  0.00     0.001 C 
HETATM    6  C   UNL     1      39.621 -14.387   0.317  1.00  0.00    -0.046 C 
HETATM    7  C   UNL     1      40.940 -14.969  -0.122  1.00  0.00     0.059 C 
HETATM    8  C   UNL     1      41.330 -16.227   0.661  1.00  0.00     0.132 C 
HETATM    9  O   UNL     1      40.992 -17.579   3.881  1.00  0.00    -0.247 OA
HETATM   10  H   UNL     1      43.526 -16.592   2.491  1.00  0.00     0.171 HD
ENDROOT
BRANCH   1  11
HETATM   11  C   UNL     1      43.600 -18.520   3.222  1.00  0.00     0.071 A 
HETATM   12  C   UNL     1      44.153 -18.430   4.507  1.00  0.00     0.095 A 
HETATM   13  C   UNL     1      44.880 -19.495   5.045  1.00  0.00     0.041 A 
HETATM   14  C   UNL     1      45.037 -20.667   4.305  1.00  0.00     0.026 A 
HETATM   15  C   UNL     1      44.470 -20.765   3.033  1.00  0.00     0.036 A 
HETATM   16  C   UNL     1      43.752 -19.700   2.490  1.00  0.00     0.056 A 
HETATM   17 CL   UNL     1      44.686 -22.207   2.117  1.00  0.00    -0.084 Cl
BRANCH  12  18
HETATM   18  O   UNL     1      43.962 -17.277   5.228  1.00  0.00    -0.354 OA
HETATM   19  C   UNL     1      44.627 -17.365   6.492  1.00  0.00     0.210 C 
ENDBRANCH  12  18
ENDBRANCH   1  11
BRANCH   6  20
HETATM   20  C   UNL     1      38.915 -13.556  -0.630  1.00  0.00    -0.002 A 
HETATM   21  C   UNL     1      37.760 -12.710  -0.464  1.00  0.00     0.003 A 
HETATM   22  C   UNL     1      37.529 -12.078  -1.691  1.00  0.00     0.043 A 
HETATM   23  C   UNL     1      36.876 -12.398   0.596  1.00  0.00     0.014 A 
HETATM   24  C   UNL     1      36.498 -11.155  -1.903  1.00  0.00     0.030 A 
HETATM   25  N   UNL     1      38.477 -12.537  -2.572  1.00  0.00    -0.364 N 
HETATM   26  C   UNL     1      35.659 -10.856  -0.829  1.00  0.00     0.002 A 
HETATM   27  C   UNL     1      35.841 -11.471   0.404  1.00  0.00     0.001 A 
HETATM   28  H   UNL     1      38.548 -12.249  -3.538  1.00  0.00     0.165 HD
HETATM   29  C   UNL     1      39.317 -13.413  -1.946  1.00  0.00     0.101 A 
ENDBRANCH   6  20
TORSDOF 3
ENDMDL
