MODEL 1
REMARK VINA RESULT:      -9.4      0.000      0.000
REMARK  6 active torsions:
REMARK  status: ('A' for Active; 'I' for Inactive)
REMARK    1  A    between atoms: O_2  and  C_3 
REMARK    2  A    between atoms: C_5  and  N_6 
REMARK    3  A    between atoms: C_7  and  O_8 
REMARK    4  A    between atoms: C_7  and  C_9 
REMARK       I    between atoms: C_9  and  N_10 
REMARK    5  A    between atoms: N_10  and  C_11 
REMARK    6  A    between atoms: C_11  and  C_12 
ROOT
HETATM    1  N   UNL     1      40.962 -14.426   1.628  1.00  0.00    -0.254 N 
HETATM    2  C   UNL     1      40.864 -15.656   2.433  1.00  0.00     0.256 C 
HETATM    3  C   UNL     1      41.482 -15.528   3.813  1.00  0.00     0.034 A 
HETATM    4  C   UNL     1      42.470 -14.573   4.004  1.00  0.00     0.048 A 
HETATM    5  N   UNL     1      42.774 -13.718   2.959  1.00  0.00    -0.308 N 
HETATM    6  C   UNL     1      42.059 -13.589   1.805  1.00  0.00     0.330 C 
HETATM    7  O   UNL     1      42.471 -12.762   0.992  1.00  0.00    -0.246 OA
HETATM    8  C   UNL     1      41.176 -16.396   4.876  1.00  0.00     0.015 A 
HETATM    9  C   UNL     1      41.845 -16.288   6.097  1.00  0.00     0.001 A 
HETATM   10  C   UNL     1      42.839 -15.326   6.264  1.00  0.00     0.002 A 
HETATM   11  C   UNL     1      43.158 -14.468   5.213  1.00  0.00     0.030 A 
HETATM   12  H   UNL     1      43.516 -13.035   3.063  1.00  0.00     0.170 HD
ENDROOT
BRANCH   2  13
HETATM   13  O   UNL     1      39.481 -15.950   2.669  1.00  0.00    -0.359 OA
HETATM   14  H   UNL     1      39.329 -16.811   2.234  1.00  0.00     0.213 HD
ENDBRANCH   2  13
BRANCH   2  15
HETATM   15  C   UNL     1      41.561 -16.870   1.688  1.00  0.00     0.279 C 
HETATM   16  N   UNL     1      42.912 -17.046   1.892  1.00  0.00    -0.352 N 
HETATM   17  H   UNL     1      43.450 -16.279   2.275  1.00  0.00     0.162 HD
HETATM   18  O   UNL     1      40.885 -17.658   1.018  1.00  0.00    -0.268 OA
BRANCH  16  19
HETATM   19  C   UNL     1      43.640 -18.111   1.249  1.00  0.00     0.161 C 
BRANCH  19  20
HETATM   20  C   UNL     1      43.966 -19.194   2.242  1.00  0.00    -0.040 A 
HETATM   21  C   UNL     1      44.209 -18.870   3.585  1.00  0.00     0.010 A 
HETATM   22  C   UNL     1      44.548 -19.867   4.504  1.00  0.00     0.024 A 
HETATM   23  C   UNL     1      44.654 -21.190   4.081  1.00  0.00     0.034 A 
HETATM   24 CL   UNL     1      45.074 -22.417   5.212  1.00  0.00    -0.084 Cl
HETATM   25  C   UNL     1      44.429 -21.525   2.748  1.00  0.00     0.024 A 
HETATM   26  C   UNL     1      44.089 -20.529   1.830  1.00  0.00     0.010 A 
ENDBRANCH  19  20
ENDBRANCH  16  19
ENDBRANCH   2  15
BRANCH   1  27
HETATM   27  C   UNL     1      40.054 -14.199   0.521  1.00  0.00     0.045 A 
HETATM   28  C   UNL     1      40.402 -14.606  -0.781  1.00  0.00     0.066 A 
HETATM   29  C   UNL     1      39.565 -14.388  -1.884  1.00  0.00     0.070 A 
HETATM   30  C   UNL     1      38.349 -13.739  -1.701  1.00  0.00     0.037 A 
HETATM   31  C   UNL     1      37.982 -13.316  -0.426  1.00  0.00     0.005 A 
HETATM   32  C   UNL     1      38.825 -13.540   0.670  1.00  0.00     0.030 A 
BRANCH  29  33
HETATM   33  O   UNL     1      40.061 -14.842  -3.076  1.00  0.00    -0.356 OA
HETATM   34  C   UNL     1      39.180 -15.598  -3.896  1.00  0.00     0.210 C 
ENDBRANCH  29  33
ENDBRANCH   1  27
TORSDOF 6
ENDMDL
MODEL 2
REMARK VINA RESULT:      -9.2      1.493      2.210
REMARK  6 active torsions:
REMARK  status: ('A' for Active; 'I' for Inactive)
REMARK    1  A    between atoms: O_2  and  C_3 
REMARK    2  A    between atoms: C_5  and  N_6 
REMARK    3  A    between atoms: C_7  and  O_8 
REMARK    4  A    between atoms: C_7  and  C_9 
REMARK       I    between atoms: C_9  and  N_10 
REMARK    5  A    between atoms: N_10  and  C_11 
REMARK    6  A    between atoms: C_11  and  C_12 
ROOT
HETATM    1  N   UNL     1      41.187 -14.100   2.579  1.00  0.00    -0.254 N 
HETATM    2  C   UNL     1      41.122 -15.327   3.393  1.00  0.00     0.256 C 
HETATM    3  C   UNL     1      42.044 -15.305   4.597  1.00  0.00     0.034 A 
HETATM    4  C   UNL     1      43.159 -14.481   4.555  1.00  0.00     0.048 A 
HETATM    5  N   UNL     1      43.325 -13.646   3.463  1.00  0.00    -0.308 N 
HETATM    6  C   UNL     1      42.391 -13.406   2.499  1.00  0.00     0.330 C 
HETATM    7  O   UNL     1      42.709 -12.617   1.610  1.00  0.00    -0.246 OA
HETATM    8  C   UNL     1      41.879 -16.152   5.707  1.00  0.00     0.015 A 
HETATM    9  C   UNL     1      42.813 -16.153   6.746  1.00  0.00     0.001 A 
HETATM   10  C   UNL     1      43.929 -15.323   6.679  1.00  0.00     0.002 A 
HETATM   11  C   UNL     1      44.108 -14.487   5.578  1.00  0.00     0.030 A 
HETATM   12  H   UNL     1      44.149 -13.061   3.395  1.00  0.00     0.170 HD
ENDROOT
BRANCH   2  13
HETATM   13  O   UNL     1      39.801 -15.456   3.935  1.00  0.00    -0.359 OA
HETATM   14  H   UNL     1      39.203 -15.325   3.174  1.00  0.00     0.213 HD
ENDBRANCH   2  13
BRANCH   2  15
HETATM   15  C   UNL     1      41.479 -16.599   2.516  1.00  0.00     0.279 C 
HETATM   16  N   UNL     1      42.811 -16.931   2.397  1.00  0.00    -0.352 N 
HETATM   17  H   UNL     1      43.508 -16.236   2.633  1.00  0.00     0.162 HD
HETATM   18  O   UNL     1      40.579 -17.295   2.035  1.00  0.00    -0.268 OA
BRANCH  16  19
HETATM   19  C   UNL     1      43.240 -18.061   1.611  1.00  0.00     0.161 C 
BRANCH  19  20
HETATM   20  C   UNL     1      43.728 -19.166   2.509  1.00  0.00    -0.040 A 
HETATM   21  C   UNL     1      44.102 -18.886   3.833  1.00  0.00     0.010 A 
HETATM   22  C   UNL     1      44.591 -19.900   4.660  1.00  0.00     0.024 A 
HETATM   23  C   UNL     1      44.717 -21.196   4.165  1.00  0.00     0.034 A 
HETATM   24 CL   UNL     1      45.322 -22.445   5.182  1.00  0.00    -0.084 Cl
HETATM   25  C   UNL     1      44.363 -21.486   2.849  1.00  0.00     0.024 A 
HETATM   26  C   UNL     1      43.873 -20.472   2.022  1.00  0.00     0.010 A 
ENDBRANCH  19  20
ENDBRANCH  16  19
ENDBRANCH   2  15
BRANCH   1  27
HETATM   27  C   UNL     1      40.090 -13.740   1.703  1.00  0.00     0.045 A 
HETATM   28  C   UNL     1      39.161 -12.756   2.092  1.00  0.00     0.066 A 
HETATM   29  C   UNL     1      38.073 -12.392   1.286  1.00  0.00     0.070 A 
HETATM   30  C   UNL     1      37.889 -13.023   0.061  1.00  0.00     0.037 A 
HETATM   31  C   UNL     1      38.787 -14.006  -0.347  1.00  0.00     0.005 A 
HETATM   32  C   UNL     1      39.871 -14.362   0.465  1.00  0.00     0.030 A 
BRANCH  29  33
HETATM   33  O   UNL     1      37.265 -11.424   1.821  1.00  0.00    -0.356 OA
HETATM   34  C   UNL     1      36.293 -10.847   0.960  1.00  0.00     0.210 C 
ENDBRANCH  29  33
ENDBRANCH   1  27
TORSDOF 6
ENDMDL
MODEL 3
REMARK VINA RESULT:      -9.0      2.146      5.890
REMARK  6 active torsions:
REMARK  status: ('A' for Active; 'I' for Inactive)
REMARK    1  A    between atoms: O_2  and  C_3 
REMARK    2  A    between atoms: C_5  and  N_6 
REMARK    3  A    between atoms: C_7  and  O_8 
REMARK    4  A    between atoms: C_7  and  C_9 
REMARK       I    between atoms: C_9  and  N_10 
REMARK    5  A    between atoms: N_10  and  C_11 
REMARK    6  A    between atoms: C_11  and  C_12 
ROOT
HETATM    1  N   UNL     1      41.644 -14.328   4.194  1.00  0.00    -0.254 N 
HETATM    2  C   UNL     1      42.160 -14.306   2.814  1.00  0.00     0.256 C 
HETATM    3  C   UNL     1      41.475 -13.281   1.928  1.00  0.00     0.034 A 
HETATM    4  C   UNL     1      40.194 -12.873   2.266  1.00  0.00     0.048 A 
HETATM    5  N   UNL     1      39.639 -13.340   3.445  1.00  0.00    -0.308 N 
HETATM    6  C   UNL     1      40.305 -14.021   4.420  1.00  0.00     0.330 C 
HETATM    7  O   UNL     1      39.651 -14.344   5.411  1.00  0.00    -0.246 OA
HETATM    8  C   UNL     1      42.036 -12.805   0.730  1.00  0.00     0.015 A 
HETATM    9  C   UNL     1      41.320 -11.932  -0.093  1.00  0.00     0.001 A 
HETATM   10  C   UNL     1      40.032 -11.540   0.263  1.00  0.00     0.002 A 
HETATM   11  C   UNL     1      39.462 -12.015   1.443  1.00  0.00     0.030 A 
HETATM   12  H   UNL     1      38.691 -13.083   3.695  1.00  0.00     0.170 HD
ENDROOT
BRANCH   2  13
HETATM   13  O   UNL     1      43.539 -13.918   2.838  1.00  0.00    -0.359 OA
HETATM   14  H   UNL     1      43.554 -13.070   3.322  1.00  0.00     0.213 HD
ENDBRANCH   2  13
BRANCH   2  15
HETATM   15  C   UNL     1      42.004 -15.731   2.136  1.00  0.00     0.279 C 
HETATM   16  N   UNL     1      43.155 -16.456   1.915  1.00  0.00    -0.352 N 
HETATM   17  H   UNL     1      44.045 -15.974   1.940  1.00  0.00     0.162 HD
HETATM   18  O   UNL     1      40.881 -16.185   1.896  1.00  0.00    -0.268 OA
BRANCH  16  19
HETATM   19  C   UNL     1      43.121 -17.755   1.292  1.00  0.00     0.161 C 
BRANCH  19  20
HETATM   20  C   UNL     1      43.661 -18.799   2.233  1.00  0.00    -0.040 A 
HETATM   21  C   UNL     1      43.806 -20.127   1.804  1.00  0.00     0.010 A 
HETATM   22  C   UNL     1      44.272 -21.108   2.683  1.00  0.00     0.024 A 
HETATM   23  C   UNL     1      44.586 -20.767   3.997  1.00  0.00     0.034 A 
HETATM   24 CL   UNL     1      45.156 -21.975   5.081  1.00  0.00    -0.084 Cl
HETATM   25  C   UNL     1      44.433 -19.454   4.440  1.00  0.00     0.024 A 
HETATM   26  C   UNL     1      43.968 -18.474   3.561  1.00  0.00     0.010 A 
ENDBRANCH  19  20
ENDBRANCH  16  19
ENDBRANCH   2  15
BRANCH   1  27
HETATM   27  C   UNL     1      42.450 -14.870   5.271  1.00  0.00     0.045 A 
HETATM   28  C   UNL     1      43.461 -14.091   5.865  1.00  0.00     0.066 A 
HETATM   29  C   UNL     1      44.278 -14.582   6.893  1.00  0.00     0.070 A 
HETATM   30  C   UNL     1      44.098 -15.884   7.346  1.00  0.00     0.037 A 
HETATM   31  C   UNL     1      43.112 -16.680   6.772  1.00  0.00     0.005 A 
HETATM   32  C   UNL     1      42.300 -16.181   5.746  1.00  0.00     0.030 A 
BRANCH  29  33
HETATM   33  O   UNL     1      45.215 -13.694   7.351  1.00  0.00    -0.356 OA
HETATM   34  C   UNL     1      44.829 -12.843   8.421  1.00  0.00     0.210 C 
ENDBRANCH  29  33
ENDBRANCH   1  27
TORSDOF 6
ENDMDL
MODEL 4
REMARK VINA RESULT:      -8.6      2.138      5.505
REMARK  6 active torsions:
REMARK  status: ('A' for Active; 'I' for Inactive)
REMARK    1  A    between atoms: O_2  and  C_3 
REMARK    2  A    between atoms: C_5  and  N_6 
REMARK    3  A    between atoms: C_7  and  O_8 
REMARK    4  A    between atoms: C_7  and  C_9 
REMARK       I    between atoms: C_9  and  N_10 
REMARK    5  A    between atoms: N_10  and  C_11 
REMARK    6  A    between atoms: C_11  and  C_12 
ROOT
HETATM    1  N   UNL     1      40.041 -14.292   1.465  1.00  0.00    -0.254 N 
HETATM    2  C   UNL     1      41.268 -14.327   0.650  1.00  0.00     0.256 C 
HETATM    3  C   UNL     1      41.092 -13.736  -0.737  1.00  0.00     0.034 A 
HETATM    4  C   UNL     1      39.819 -13.716  -1.284  1.00  0.00     0.048 A 
HETATM    5  N   UNL     1      38.756 -14.141  -0.506  1.00  0.00    -0.308 N 
HETATM    6  C   UNL     1      38.807 -14.403   0.831  1.00  0.00     0.330 C 
HETATM    7  O   UNL     1      37.755 -14.756   1.364  1.00  0.00    -0.246 OA
HETATM    8  C   UNL     1      42.169 -13.303  -1.530  1.00  0.00     0.015 A 
HETATM    9  C   UNL     1      41.956 -12.855  -2.835  1.00  0.00     0.001 A 
HETATM   10  C   UNL     1      40.668 -12.850  -3.367  1.00  0.00     0.002 A 
HETATM   11  C   UNL     1      39.595 -13.287  -2.594  1.00  0.00     0.030 A 
HETATM   12  H   UNL     1      37.821 -14.168  -0.896  1.00  0.00     0.170 HD
ENDROOT
BRANCH   2  13
HETATM   13  O   UNL     1      42.268 -13.514   1.279  1.00  0.00    -0.359 OA
HETATM   14  H   UNL     1      43.061 -13.611   0.716  1.00  0.00     0.213 HD
ENDBRANCH   2  13
BRANCH   2  15
HETATM   15  C   UNL     1      41.793 -15.815   0.493  1.00  0.00     0.279 C 
HETATM   16  N   UNL     1      43.025 -16.112   1.032  1.00  0.00    -0.352 N 
HETATM   17  H   UNL     1      43.651 -15.351   1.264  1.00  0.00     0.162 HD
HETATM   18  O   UNL     1      41.074 -16.675  -0.027  1.00  0.00    -0.268 OA
BRANCH  16  19
HETATM   19  C   UNL     1      43.596 -17.431   0.929  1.00  0.00     0.161 C 
BRANCH  19  20
HETATM   20  C   UNL     1      43.751 -18.041   2.297  1.00  0.00    -0.040 A 
HETATM   21  C   UNL     1      43.994 -19.416   2.434  1.00  0.00     0.010 A 
HETATM   22  C   UNL     1      44.102 -19.994   3.701  1.00  0.00     0.024 A 
HETATM   23  C   UNL     1      43.958 -19.201   4.838  1.00  0.00     0.034 A 
HETATM   24 CL   UNL     1      44.087 -19.913   6.398  1.00  0.00    -0.084 Cl
HETATM   25  C   UNL     1      43.703 -17.836   4.717  1.00  0.00     0.024 A 
HETATM   26  C   UNL     1      43.596 -17.259   3.450  1.00  0.00     0.010 A 
ENDBRANCH  19  20
ENDBRANCH  16  19
ENDBRANCH   2  15
BRANCH   1  27
HETATM   27  C   UNL     1      40.116 -14.362   2.911  1.00  0.00     0.045 A 
HETATM   28  C   UNL     1      39.781 -13.244   3.697  1.00  0.00     0.066 A 
HETATM   29  C   UNL     1      39.861 -13.260   5.096  1.00  0.00     0.070 A 
HETATM   30  C   UNL     1      40.292 -14.413   5.743  1.00  0.00     0.037 A 
HETATM   31  C   UNL     1      40.638 -15.532   4.991  1.00  0.00     0.005 A 
HETATM   32  C   UNL     1      40.555 -15.506   3.593  1.00  0.00     0.030 A 
BRANCH  29  33
HETATM   33  O   UNL     1      39.504 -12.085   5.702  1.00  0.00    -0.356 OA
HETATM   34  C   UNL     1      39.471 -12.075   7.123  1.00  0.00     0.210 C 
ENDBRANCH  29  33
ENDBRANCH   1  27
TORSDOF 6
ENDMDL
MODEL 5
REMARK VINA RESULT:      -8.6      3.537      7.058
REMARK  6 active torsions:
REMARK  status: ('A' for Active; 'I' for Inactive)
REMARK    1  A    between atoms: O_2  and  C_3 
REMARK    2  A    between atoms: C_5  and  N_6 
REMARK    3  A    between atoms: C_7  and  O_8 
REMARK    4  A    between atoms: C_7  and  C_9 
REMARK       I    between atoms: C_9  and  N_10 
REMARK    5  A    between atoms: N_10  and  C_11 
REMARK    6  A    between atoms: C_11  and  C_12 
ROOT
HETATM    1  N   UNL     1      41.901 -16.091   5.030  1.00  0.00    -0.254 N 
HETATM    2  C   UNL     1      41.869 -15.146   3.900  1.00  0.00     0.256 C 
HETATM    3  C   UNL     1      41.051 -13.898   4.176  1.00  0.00     0.034 A 
HETATM    4  C   UNL     1      40.051 -13.968   5.135  1.00  0.00     0.048 A 
HETATM    5  N   UNL     1      39.912 -15.137   5.863  1.00  0.00    -0.308 N 
HETATM    6  C   UNL     1      40.794 -16.177   5.869  1.00  0.00     0.330 C 
HETATM    7  O   UNL     1      40.514 -17.132   6.594  1.00  0.00    -0.246 OA
HETATM    8  C   UNL     1      41.189 -12.709   3.438  1.00  0.00     0.015 A 
HETATM    9  C   UNL     1      40.344 -11.623   3.675  1.00  0.00     0.001 A 
HETATM   10  C   UNL     1      39.342 -11.718   4.639  1.00  0.00     0.002 A 
HETATM   11  C   UNL     1      39.189 -12.896   5.368  1.00  0.00     0.030 A 
HETATM   12  H   UNL     1      39.167 -15.224   6.544  1.00  0.00     0.170 HD
ENDROOT
BRANCH   2  13
HETATM   13  O   UNL     1      43.199 -14.673   3.651  1.00  0.00    -0.359 OA
HETATM   14  H   UNL     1      43.625 -14.644   4.530  1.00  0.00     0.213 HD
ENDBRANCH   2  13
BRANCH   2  15
HETATM   15  C   UNL     1      41.286 -15.845   2.602  1.00  0.00     0.279 C 
HETATM   16  N   UNL     1      42.048 -15.788   1.455  1.00  0.00    -0.352 N 
HETATM   17  H   UNL     1      42.793 -15.105   1.401  1.00  0.00     0.162 HD
HETATM   18  O   UNL     1      40.226 -16.477   2.660  1.00  0.00    -0.268 OA
BRANCH  16  19
HETATM   19  C   UNL     1      41.599 -16.380   0.220  1.00  0.00     0.161 C 
BRANCH  19  20
HETATM   20  C   UNL     1      41.357 -15.311  -0.812  1.00  0.00    -0.040 A 
HETATM   21  C   UNL     1      40.958 -15.662  -2.111  1.00  0.00     0.010 A 
HETATM   22  C   UNL     1      40.767 -14.678  -3.084  1.00  0.00     0.024 A 
HETATM   23  C   UNL     1      40.983 -13.339  -2.765  1.00  0.00     0.034 A 
HETATM   24 CL   UNL     1      40.752 -12.127  -3.964  1.00  0.00    -0.084 Cl
HETATM   25  C   UNL     1      41.393 -12.977  -1.484  1.00  0.00     0.024 A 
HETATM   26  C   UNL     1      41.583 -13.961  -0.511  1.00  0.00     0.010 A 
ENDBRANCH  19  20
ENDBRANCH  16  19
ENDBRANCH   2  15
BRANCH   1  27
HETATM   27  C   UNL     1      42.966 -17.068   5.141  1.00  0.00     0.045 A 
HETATM   28  C   UNL     1      43.060 -18.128   4.220  1.00  0.00     0.066 A 
HETATM   29  C   UNL     1      44.060 -19.107   4.302  1.00  0.00     0.070 A 
HETATM   30  C   UNL     1      44.994 -19.044   5.330  1.00  0.00     0.037 A 
HETATM   31  C   UNL     1      44.922 -18.012   6.261  1.00  0.00     0.005 A 
HETATM   32  C   UNL     1      43.919 -17.038   6.170  1.00  0.00     0.030 A 
BRANCH  29  33
HETATM   33  O   UNL     1      43.999 -20.069   3.330  1.00  0.00    -0.356 OA
HETATM   34  C   UNL     1      43.316 -19.732   2.130  1.00  0.00     0.210 C 
ENDBRANCH  29  33
ENDBRANCH   1  27
TORSDOF 6
ENDMDL
MODEL 6
REMARK VINA RESULT:      -8.5      1.548      2.056
REMARK  6 active torsions:
REMARK  status: ('A' for Active; 'I' for Inactive)
REMARK    1  A    between atoms: O_2  and  C_3 
REMARK    2  A    between atoms: C_5  and  N_6 
REMARK    3  A    between atoms: C_7  and  O_8 
REMARK    4  A    between atoms: C_7  and  C_9 
REMARK       I    between atoms: C_9  and  N_10 
REMARK    5  A    between atoms: N_10  and  C_11 
REMARK    6  A    between atoms: C_11  and  C_12 
ROOT
HETATM    1  N   UNL     1      41.040 -13.822   0.428  1.00  0.00    -0.254 N 
HETATM    2  C   UNL     1      40.751 -14.899   1.393  1.00  0.00     0.256 C 
HETATM    3  C   UNL     1      40.932 -14.480   2.840  1.00  0.00     0.034 A 
HETATM    4  C   UNL     1      41.788 -13.425   3.116  1.00  0.00     0.048 A 
HETATM    5  N   UNL     1      42.358 -12.740   2.056  1.00  0.00    -0.308 N 
HETATM    6  C   UNL     1      42.009 -12.875   0.745  1.00  0.00     0.330 C 
HETATM    7  O   UNL     1      42.614 -12.169  -0.061  1.00  0.00    -0.246 OA
HETATM    8  C   UNL     1      40.355 -15.174   3.918  1.00  0.00     0.015 A 
HETATM    9  C   UNL     1      40.632 -14.799   5.235  1.00  0.00     0.001 A 
HETATM   10  C   UNL     1      41.501 -13.740   5.489  1.00  0.00     0.002 A 
HETATM   11  C   UNL     1      42.087 -13.052   4.428  1.00  0.00     0.030 A 
HETATM   12  H   UNL     1      43.013 -11.988   2.234  1.00  0.00     0.170 HD
ENDROOT
BRANCH   2  13
HETATM   13  O   UNL     1      39.370 -15.266   1.280  1.00  0.00    -0.359 OA
HETATM   14  H   UNL     1      39.280 -15.633   0.379  1.00  0.00     0.213 HD
ENDBRANCH   2  13
BRANCH   2  15
HETATM   15  C   UNL     1      41.675 -16.157   1.120  1.00  0.00     0.279 C 
HETATM   16  N   UNL     1      42.967 -16.108   1.596  1.00  0.00    -0.352 N 
HETATM   17  H   UNL     1      43.357 -15.210   1.855  1.00  0.00     0.162 HD
HETATM   18  O   UNL     1      41.211 -17.162   0.571  1.00  0.00    -0.268 OA
BRANCH  16  19
HETATM   19  C   UNL     1      43.891 -17.195   1.387  1.00  0.00     0.161 C 
BRANCH  19  20
HETATM   20  C   UNL     1      43.923 -18.091   2.597  1.00  0.00    -0.040 A 
HETATM   21  C   UNL     1      43.630 -17.573   3.867  1.00  0.00     0.010 A 
HETATM   22  C   UNL     1      43.694 -18.390   4.998  1.00  0.00     0.024 A 
HETATM   23  C   UNL     1      44.060 -19.728   4.865  1.00  0.00     0.034 A 
HETATM   24 CL   UNL     1      44.142 -20.735   6.258  1.00  0.00    -0.084 Cl
HETATM   25  C   UNL     1      44.367 -20.253   3.611  1.00  0.00     0.024 A 
HETATM   26  C   UNL     1      44.302 -19.436   2.481  1.00  0.00     0.010 A 
ENDBRANCH  19  20
ENDBRANCH  16  19
ENDBRANCH   2  15
BRANCH   1  27
HETATM   27  C   UNL     1      40.491 -13.870  -0.912  1.00  0.00     0.045 A 
HETATM   28  C   UNL     1      39.465 -12.985  -1.293  1.00  0.00     0.066 A 
HETATM   29  C   UNL     1      38.890 -13.010  -2.571  1.00  0.00     0.070 A 
HETATM   30  C   UNL     1      39.334 -13.942  -3.503  1.00  0.00     0.037 A 
HETATM   31  C   UNL     1      40.342 -14.836  -3.151  1.00  0.00     0.005 A 
HETATM   32  C   UNL     1      40.910 -14.803  -1.872  1.00  0.00     0.030 A 
BRANCH  29  33
HETATM   33  O   UNL     1      37.901 -12.084  -2.771  1.00  0.00    -0.356 OA
HETATM   34  C   UNL     1      37.043 -11.808  -1.671  1.00  0.00     0.210 C 
ENDBRANCH  29  33
ENDBRANCH   1  27
TORSDOF 6
ENDMDL
MODEL 7
REMARK VINA RESULT:      -8.3      3.073      6.157
REMARK  6 active torsions:
REMARK  status: ('A' for Active; 'I' for Inactive)
REMARK    1  A    between atoms: O_2  and  C_3 
REMARK    2  A    between atoms: C_5  and  N_6 
REMARK    3  A    between atoms: C_7  and  O_8 
REMARK    4  A    between atoms: C_7  and  C_9 
REMARK       I    between atoms: C_9  and  N_10 
REMARK    5  A    between atoms: N_10  and  C_11 
REMARK    6  A    between atoms: C_11  and  C_12 
ROOT
HETATM    1  N   UNL     1      41.818 -15.982   5.682  1.00  0.00    -0.254 N 
HETATM    2  C   UNL     1      42.359 -15.363   4.459  1.00  0.00     0.256 C 
HETATM    3  C   UNL     1      41.604 -14.119   4.025  1.00  0.00     0.034 A 
HETATM    4  C   UNL     1      40.284 -13.979   4.427  1.00  0.00     0.048 A 
HETATM    5  N   UNL     1      39.749 -14.925   5.284  1.00  0.00    -0.308 N 
HETATM    6  C   UNL     1      40.452 -15.892   5.937  1.00  0.00     0.330 C 
HETATM    7  O   UNL     1      39.809 -16.638   6.676  1.00  0.00    -0.246 OA
HETATM    8  C   UNL     1      42.145 -13.157   3.154  1.00  0.00     0.015 A 
HETATM    9  C   UNL     1      41.371 -12.081   2.715  1.00  0.00     0.001 A 
HETATM   10  C   UNL     1      40.045 -11.964   3.126  1.00  0.00     0.002 A 
HETATM   11  C   UNL     1      39.496 -12.918   3.980  1.00  0.00     0.030 A 
HETATM   12  H   UNL     1      38.776 -14.862   5.563  1.00  0.00     0.170 HD
ENDROOT
BRANCH   2  13
HETATM   13  O   UNL     1      43.697 -14.918   4.714  1.00  0.00    -0.359 OA
HETATM   14  H   UNL     1      43.904 -14.308   3.980  1.00  0.00     0.213 HD
ENDBRANCH   2  13
BRANCH   2  15
HETATM   15  C   UNL     1      42.346 -16.396   3.256  1.00  0.00     0.279 C 
HETATM   16  N   UNL     1      43.543 -16.640   2.619  1.00  0.00    -0.352 N 
HETATM   17  H   UNL     1      44.305 -15.987   2.750  1.00  0.00     0.162 HD
HETATM   18  O   UNL     1      41.310 -17.004   2.971  1.00  0.00    -0.268 OA
BRANCH  16  19
HETATM   19  C   UNL     1      43.634 -17.551   1.506  1.00  0.00     0.161 C 
BRANCH  19  20
HETATM   20  C   UNL     1      43.933 -18.943   1.995  1.00  0.00    -0.040 A 
HETATM   21  C   UNL     1      43.222 -20.039   1.482  1.00  0.00     0.010 A 
HETATM   22  C   UNL     1      43.469 -21.329   1.957  1.00  0.00     0.024 A 
HETATM   23  C   UNL     1      44.421 -21.528   2.955  1.00  0.00     0.034 A 
HETATM   24 CL   UNL     1      44.723 -23.116   3.544  1.00  0.00    -0.084 Cl
HETATM   25  C   UNL     1      45.124 -20.448   3.484  1.00  0.00     0.024 A 
HETATM   26  C   UNL     1      44.878 -19.159   3.008  1.00  0.00     0.010 A 
ENDBRANCH  19  20
ENDBRANCH  16  19
ENDBRANCH   2  15
BRANCH   1  27
HETATM   27  C   UNL     1      42.646 -16.854   6.492  1.00  0.00     0.045 A 
HETATM   28  C   UNL     1      42.945 -18.158   6.056  1.00  0.00     0.066 A 
HETATM   29  C   UNL     1      43.723 -19.042   6.816  1.00  0.00     0.070 A 
HETATM   30  C   UNL     1      44.216 -18.632   8.050  1.00  0.00     0.037 A 
HETATM   31  C   UNL     1      43.929 -17.349   8.511  1.00  0.00     0.005 A 
HETATM   32  C   UNL     1      43.152 -16.473   7.743  1.00  0.00     0.030 A 
BRANCH  29  33
HETATM   33  O   UNL     1      43.910 -20.273   6.247  1.00  0.00    -0.356 OA
HETATM   34  C   UNL     1      43.612 -21.409   7.048  1.00  0.00     0.210 C 
ENDBRANCH  29  33
ENDBRANCH   1  27
TORSDOF 6
ENDMDL
MODEL 8
REMARK VINA RESULT:      -8.3      3.693      7.449
REMARK  6 active torsions:
REMARK  status: ('A' for Active; 'I' for Inactive)
REMARK    1  A    between atoms: O_2  and  C_3 
REMARK    2  A    between atoms: C_5  and  N_6 
REMARK    3  A    between atoms: C_7  and  O_8 
REMARK    4  A    between atoms: C_7  and  C_9 
REMARK       I    between atoms: C_9  and  N_10 
REMARK    5  A    between atoms: N_10  and  C_11 
REMARK    6  A    between atoms: C_11  and  C_12 
ROOT
HETATM    1  N   UNL     1      42.026 -15.667   5.463  1.00  0.00    -0.254 N 
HETATM    2  C   UNL     1      42.216 -14.453   4.651  1.00  0.00     0.256 C 
HETATM    3  C   UNL     1      41.299 -13.310   5.045  1.00  0.00     0.034 A 
HETATM    4  C   UNL     1      40.107 -13.616   5.685  1.00  0.00     0.048 A 
HETATM    5  N   UNL     1      39.856 -14.935   6.022  1.00  0.00    -0.308 N 
HETATM    6  C   UNL     1      40.759 -15.955   5.961  1.00  0.00     0.330 C 
HETATM    7  O   UNL     1      40.362 -17.064   6.319  1.00  0.00    -0.246 OA
HETATM    8  C   UNL     1      41.551 -11.970   4.703  1.00  0.00     0.015 A 
HETATM    9  C   UNL     1      40.624 -10.971   5.012  1.00  0.00     0.001 A 
HETATM   10  C   UNL     1      39.430 -11.303   5.649  1.00  0.00     0.002 A 
HETATM   11  C   UNL     1      39.166 -12.629   5.982  1.00  0.00     0.030 A 
HETATM   12  H   UNL     1      38.977 -15.187   6.459  1.00  0.00     0.170 HD
ENDROOT
BRANCH   2  13
HETATM   13  O   UNL     1      43.544 -13.956   4.859  1.00  0.00    -0.359 OA
HETATM   14  H   UNL     1      43.914 -13.842   3.962  1.00  0.00     0.213 HD
ENDBRANCH   2  13
BRANCH   2  15
HETATM   15  C   UNL     1      41.985 -14.767   3.114  1.00  0.00     0.279 C 
HETATM   16  N   UNL     1      40.877 -15.514   2.780  1.00  0.00    -0.352 N 
HETATM   17  H   UNL     1      40.412 -16.046   3.505  1.00  0.00     0.162 HD
HETATM   18  O   UNL     1      42.738 -14.284   2.261  1.00  0.00    -0.268 OA
BRANCH  16  19
HETATM   19  C   UNL     1      40.587 -15.865   1.412  1.00  0.00     0.161 C 
BRANCH  19  20
HETATM   20  C   UNL     1      39.646 -14.860   0.804  1.00  0.00    -0.040 A 
HETATM   21  C   UNL     1      40.015 -14.159  -0.354  1.00  0.00     0.010 A 
HETATM   22  C   UNL     1      39.162 -13.198  -0.902  1.00  0.00     0.024 A 
HETATM   23  C   UNL     1      37.940 -12.928  -0.290  1.00  0.00     0.034 A 
HETATM   24 CL   UNL     1      36.890 -11.742  -0.963  1.00  0.00    -0.084 Cl
HETATM   25  C   UNL     1      37.566 -13.606   0.868  1.00  0.00     0.024 A 
HETATM   26  C   UNL     1      38.419 -14.567   1.416  1.00  0.00     0.010 A 
ENDBRANCH  19  20
ENDBRANCH  16  19
ENDBRANCH   2  15
BRANCH   1  27
HETATM   27  C   UNL     1      43.080 -16.658   5.562  1.00  0.00     0.045 A 
HETATM   28  C   UNL     1      43.241 -17.629   4.555  1.00  0.00     0.066 A 
HETATM   29  C   UNL     1      44.232 -18.618   4.619  1.00  0.00     0.070 A 
HETATM   30  C   UNL     1      45.087 -18.658   5.714  1.00  0.00     0.037 A 
HETATM   31  C   UNL     1      44.946 -17.717   6.730  1.00  0.00     0.005 A 
HETATM   32  C   UNL     1      43.954 -16.731   6.656  1.00  0.00     0.030 A 
BRANCH  29  33
HETATM   33  O   UNL     1      44.243 -19.485   3.559  1.00  0.00    -0.356 OA
HETATM   34  C   UNL     1      44.768 -20.785   3.794  1.00  0.00     0.210 C 
ENDBRANCH  29  33
ENDBRANCH   1  27
TORSDOF 6
ENDMDL
MODEL 9
REMARK VINA RESULT:      -8.2      3.383      6.142
REMARK  6 active torsions:
REMARK  status: ('A' for Active; 'I' for Inactive)
REMARK    1  A    between atoms: O_2  and  C_3 
REMARK    2  A    between atoms: C_5  and  N_6 
REMARK    3  A    between atoms: C_7  and  O_8 
REMARK    4  A    between atoms: C_7  and  C_9 
REMARK       I    between atoms: C_9  and  N_10 
REMARK    5  A    between atoms: N_10  and  C_11 
REMARK    6  A    between atoms: C_11  and  C_12 
ROOT
HETATM    1  N   UNL     1      41.245 -13.069   4.797  1.00  0.00    -0.254 N 
HETATM    2  C   UNL     1      42.424 -13.800   4.299  1.00  0.00     0.256 C 
HETATM    3  C   UNL     1      42.088 -14.863   3.270  1.00  0.00     0.034 A 
HETATM    4  C   UNL     1      40.809 -15.400   3.275  1.00  0.00     0.048 A 
HETATM    5  N   UNL     1      39.873 -14.873   4.147  1.00  0.00    -0.308 N 
HETATM    6  C   UNL     1      40.025 -13.734   4.881  1.00  0.00     0.330 C 
HETATM    7  O   UNL     1      39.076 -13.407   5.593  1.00  0.00    -0.246 OA
HETATM    8  C   UNL     1      43.037 -15.401   2.383  1.00  0.00     0.015 A 
HETATM    9  C   UNL     1      42.693 -16.444   1.521  1.00  0.00     0.001 A 
HETATM   10  C   UNL     1      41.404 -16.973   1.547  1.00  0.00     0.002 A 
HETATM   11  C   UNL     1      40.459 -16.455   2.430  1.00  0.00     0.030 A 
HETATM   12  H   UNL     1      38.943 -15.273   4.193  1.00  0.00     0.170 HD
ENDROOT
BRANCH   2  13
HETATM   13  O   UNL     1      43.288 -12.881   3.618  1.00  0.00    -0.359 OA
HETATM   14  H   UNL     1      42.812 -12.649   2.797  1.00  0.00     0.213 HD
ENDBRANCH   2  13
BRANCH   2  15
HETATM   15  C   UNL     1      43.198 -14.494   5.496  1.00  0.00     0.279 C 
HETATM   16  N   UNL     1      42.740 -15.722   5.919  1.00  0.00    -0.352 N 
HETATM   17  H   UNL     1      41.807 -16.011   5.652  1.00  0.00     0.162 HD
HETATM   18  O   UNL     1      44.216 -13.972   5.963  1.00  0.00    -0.268 OA
BRANCH  16  19
HETATM   19  C   UNL     1      43.366 -16.428   7.008  1.00  0.00     0.161 C 
BRANCH  19  20
HETATM   20  C   UNL     1      43.736 -17.823   6.582  1.00  0.00    -0.040 A 
HETATM   21  C   UNL     1      44.192 -18.065   5.277  1.00  0.00     0.010 A 
HETATM   22  C   UNL     1      44.502 -19.363   4.864  1.00  0.00     0.024 A 
HETATM   23  C   UNL     1      44.349 -20.426   5.751  1.00  0.00     0.034 A 
HETATM   24 CL   UNL     1      44.727 -22.025   5.242  1.00  0.00    -0.084 Cl
HETATM   25  C   UNL     1      43.885 -20.203   7.046  1.00  0.00     0.024 A 
HETATM   26  C   UNL     1      43.576 -18.905   7.459  1.00  0.00     0.010 A 
ENDBRANCH  19  20
ENDBRANCH  16  19
ENDBRANCH   2  15
BRANCH   1  27
HETATM   27  C   UNL     1      41.391 -11.757   5.394  1.00  0.00     0.045 A 
HETATM   28  C   UNL     1      41.697 -11.626   6.762  1.00  0.00     0.066 A 
HETATM   29  C   UNL     1      41.826 -10.377   7.385  1.00  0.00     0.070 A 
HETATM   30  C   UNL     1      41.642  -9.219   6.639  1.00  0.00     0.037 A 
HETATM   31  C   UNL     1      41.330  -9.316   5.286  1.00  0.00     0.005 A 
HETATM   32  C   UNL     1      41.204 -10.569   4.672  1.00  0.00     0.030 A 
BRANCH  29  33
HETATM   33  O   UNL     1      42.119 -10.434   8.721  1.00  0.00    -0.356 OA
HETATM   34  C   UNL     1      41.021 -10.484   9.622  1.00  0.00     0.210 C 
ENDBRANCH  29  33
ENDBRANCH   1  27
TORSDOF 6
ENDMDL
MODEL 10
REMARK VINA RESULT:      -8.1      1.838      2.283
REMARK  6 active torsions:
REMARK  status: ('A' for Active; 'I' for Inactive)
REMARK    1  A    between atoms: O_2  and  C_3 
REMARK    2  A    between atoms: C_5  and  N_6 
REMARK    3  A    between atoms: C_7  and  O_8 
REMARK    4  A    between atoms: C_7  and  C_9 
REMARK       I    between atoms: C_9  and  N_10 
REMARK    5  A    between atoms: N_10  and  C_11 
REMARK    6  A    between atoms: C_11  and  C_12 
ROOT
HETATM    1  N   UNL     1      40.327 -13.048   0.548  1.00  0.00    -0.254 N 
HETATM    2  C   UNL     1      40.152 -14.133   1.529  1.00  0.00     0.256 C 
HETATM    3  C   UNL     1      40.523 -13.736   2.946  1.00  0.00     0.034 A 
HETATM    4  C   UNL     1      41.419 -12.693   3.121  1.00  0.00     0.048 A 
HETATM    5  N   UNL     1      41.856 -12.000   2.005  1.00  0.00    -0.308 N 
HETATM    6  C   UNL     1      41.340 -12.115   0.748  1.00  0.00     0.330 C 
HETATM    7  O   UNL     1      41.844 -11.404  -0.121  1.00  0.00    -0.246 OA
HETATM    8  C   UNL     1      40.081 -14.438   4.081  1.00  0.00     0.015 A 
HETATM    9  C   UNL     1      40.530 -14.083   5.355  1.00  0.00     0.001 A 
HETATM   10  C   UNL     1      41.437 -13.036   5.507  1.00  0.00     0.002 A 
HETATM   11  C   UNL     1      41.889 -12.340   4.387  1.00  0.00     0.030 A 
HETATM   12  H   UNL     1      42.538 -11.257   2.105  1.00  0.00     0.170 HD
ENDROOT
BRANCH   2  13
HETATM   13  O   UNL     1      38.764 -14.486   1.591  1.00  0.00    -0.359 OA
HETATM   14  H   UNL     1      38.584 -14.950   0.751  1.00  0.00     0.213 HD
ENDBRANCH   2  13
BRANCH   2  15
HETATM   15  C   UNL     1      41.019 -15.398   1.125  1.00  0.00     0.279 C 
HETATM   16  N   UNL     1      40.473 -16.641   1.359  1.00  0.00    -0.352 N 
HETATM   17  H   UNL     1      39.690 -16.716   1.997  1.00  0.00     0.162 HD
HETATM   18  O   UNL     1      42.104 -15.250   0.553  1.00  0.00    -0.268 OA
BRANCH  16  19
HETATM   19  C   UNL     1      41.187 -17.852   1.040  1.00  0.00     0.161 C 
BRANCH  19  20
HETATM   20  C   UNL     1      42.126 -18.213   2.161  1.00  0.00    -0.040 A 
HETATM   21  C   UNL     1      43.172 -19.122   1.939  1.00  0.00     0.010 A 
HETATM   22  C   UNL     1      44.024 -19.490   2.984  1.00  0.00     0.024 A 
HETATM   23  C   UNL     1      43.829 -18.956   4.256  1.00  0.00     0.034 A 
HETATM   24 CL   UNL     1      44.876 -19.411   5.543  1.00  0.00    -0.084 Cl
HETATM   25  C   UNL     1      42.786 -18.063   4.493  1.00  0.00     0.024 A 
HETATM   26  C   UNL     1      41.935 -17.695   3.449  1.00  0.00     0.010 A 
ENDBRANCH  19  20
ENDBRANCH  16  19
ENDBRANCH   2  15
BRANCH   1  27
HETATM   27  C   UNL     1      39.609 -13.072  -0.711  1.00  0.00     0.045 A 
HETATM   28  C   UNL     1      40.022 -13.928  -1.750  1.00  0.00     0.066 A 
HETATM   29  C   UNL     1      39.371 -13.969  -2.990  1.00  0.00     0.070 A 
HETATM   30  C   UNL     1      38.283 -13.134  -3.219  1.00  0.00     0.037 A 
HETATM   31  C   UNL     1      37.858 -12.270  -2.214  1.00  0.00     0.005 A 
HETATM   32  C   UNL     1      38.514 -12.238  -0.977  1.00  0.00     0.030 A 
BRANCH  29  33
HETATM   33  O   UNL     1      39.907 -14.853  -3.888  1.00  0.00    -0.356 OA
HETATM   34  C   UNL     1      39.934 -16.223  -3.508  1.00  0.00     0.210 C 
ENDBRANCH  29  33
ENDBRANCH   1  27
TORSDOF 6
ENDMDL
