MODEL 1
REMARK VINA RESULT:      -9.5      0.000      0.000
REMARK  6 active torsions:
REMARK  status: ('A' for Active; 'I' for Inactive)
REMARK    1  A    between atoms: C_4  and  N_5 
REMARK    2  A    between atoms: N_8  and  C_10 
REMARK    3  A    between atoms: C_10  and  C_11 
REMARK    4  A    between atoms: C_14  and  C_15 
REMARK    5  A    between atoms: C_15  and  N_16 
REMARK       I    between atoms: N_16  and  C_17 
REMARK    6  A    between atoms: C_17  and  C_18 
ROOT
HETATM    1  C   UNL     1      40.854 -14.385   3.897  1.00  0.00     0.041 C 
HETATM    2  C   UNL     1      42.224 -13.661   3.790  1.00  0.00    -0.004 C 
HETATM    3  C   UNL     1      43.322 -14.464   4.527  1.00  0.00     0.040 C 
HETATM    4  C   UNL     1      42.978 -14.631   6.027  1.00  0.00     0.206 C 
HETATM    5  N   UNL     1      41.629 -13.949   6.221  1.00  0.00    -0.065 N 
HETATM    6  H   UNL     1      41.359 -14.107   7.220  1.00  0.00     0.280 HD
HETATM    7  C   UNL     1      40.505 -14.524   5.400  1.00  0.00     0.242 C 
HETATM    8  C   UNL     1      42.102 -12.285   4.498  1.00  0.00     0.032 C 
HETATM    9  C   UNL     1      41.753 -12.463   5.980  1.00  0.00     0.236 C 
ENDROOT
BRANCH   1  10
HETATM   10  C   UNL     1      40.719 -15.775   3.235  1.00  0.00     0.241 C 
BRANCH  10  11
HETATM   11  N   UNL     1      40.364 -15.742   1.765  1.00  0.00    -0.068 N 
HETATM   12  C   UNL     1      39.716 -14.418   1.302  1.00  0.00     0.254 C 
HETATM   13  C   UNL     1      39.440 -14.440  -0.216  1.00  0.00     0.150 C 
HETATM   14  N   UNL     1      40.699 -14.665  -0.949  1.00  0.00    -0.378 N 
HETATM   15  C   UNL     1      41.355 -15.935  -0.601  1.00  0.00     0.150 C 
HETATM   16  C   UNL     1      41.644 -16.012   0.911  1.00  0.00     0.254 C 
HETATM   17  H   UNL     1      39.713 -16.501   1.523  1.00  0.00     0.280 HD
BRANCH  14  18
HETATM   18  C   UNL     1      41.459 -13.531  -1.259  1.00  0.00     0.030 A 
HETATM   19  C   UNL     1      41.897 -12.603  -0.298  1.00  0.00     0.029 A 
HETATM   20  C   UNL     1      42.638 -11.467  -0.652  1.00  0.00     0.002 A 
HETATM   21  C   UNL     1      42.985 -11.241  -1.978  1.00  0.00     0.000 A 
HETATM   22  C   UNL     1      42.607 -12.160  -2.945  1.00  0.00     0.002 A 
HETATM   23  C   UNL     1      41.863 -13.290  -2.585  1.00  0.00     0.029 A 
ENDBRANCH  14  18
ENDBRANCH  10  11
ENDBRANCH   1  10
BRANCH   4  24
HETATM   24  C   UNL     1      43.003 -16.123   6.461  1.00  0.00     0.156 C 
BRANCH  24  25
HETATM   25  N   UNL     1      43.423 -17.125   5.490  1.00  0.00    -0.355 N 
HETATM   26  C   UNL     1      44.443 -18.028   5.716  1.00  0.00     0.251 C 
HETATM   27  O   UNL     1      45.302 -17.820   6.570  1.00  0.00    -0.268 OA
HETATM   28  H   UNL     1      42.689 -17.436   4.861  1.00  0.00     0.162 HD
BRANCH  26  29
HETATM   29  C   UNL     1      44.420 -19.312   4.963  1.00  0.00     0.034 A 
HETATM   30  C   UNL     1      44.041 -19.251   3.612  1.00  0.00     0.056 A 
HETATM   31  C   UNL     1      44.098 -20.411   2.870  1.00  0.00     0.106 A 
HETATM   32  C   UNL     1      44.500 -21.603   3.420  1.00  0.00     0.105 A 
HETATM   33  O   UNL     1      43.797 -20.521   1.550  1.00  0.00    -0.323 OA
HETATM   34  O   UNL     1      44.502 -22.614   2.514  1.00  0.00    -0.323 OA
HETATM   35  C   UNL     1      44.853 -21.706   4.747  1.00  0.00     0.041 A 
HETATM   36  C   UNL     1      44.043 -21.928   1.329  1.00  0.00     0.352 A 
HETATM   37  C   UNL     1      44.807 -20.546   5.532  1.00  0.00     0.020 A 
ENDBRANCH  26  29
ENDBRANCH  24  25
ENDBRANCH   4  24
TORSDOF 6
ENDMDL
MODEL 2
REMARK VINA RESULT:      -9.2      1.650      2.656
REMARK  6 active torsions:
REMARK  status: ('A' for Active; 'I' for Inactive)
REMARK    1  A    between atoms: C_4  and  N_5 
REMARK    2  A    between atoms: N_8  and  C_10 
REMARK    3  A    between atoms: C_10  and  C_11 
REMARK    4  A    between atoms: C_14  and  C_15 
REMARK    5  A    between atoms: C_15  and  N_16 
REMARK       I    between atoms: N_16  and  C_17 
REMARK    6  A    between atoms: C_17  and  C_18 
ROOT
HETATM    1  C   UNL     1      40.213 -13.270   3.835  1.00  0.00     0.041 C 
HETATM    2  C   UNL     1      41.531 -12.447   3.837  1.00  0.00    -0.004 C 
HETATM    3  C   UNL     1      42.690 -13.279   4.436  1.00  0.00     0.040 C 
HETATM    4  C   UNL     1      42.379 -13.697   5.894  1.00  0.00     0.206 C 
HETATM    5  N   UNL     1      40.991 -13.146   6.196  1.00  0.00    -0.065 N 
HETATM    6  H   UNL     1      40.745 -13.473   7.160  1.00  0.00     0.280 HD
HETATM    7  C   UNL     1      39.895 -13.662   5.300  1.00  0.00     0.242 C 
HETATM    8  C   UNL     1      41.328 -11.209   4.749  1.00  0.00     0.032 C 
HETATM    9  C   UNL     1      41.013 -11.635   6.187  1.00  0.00     0.236 C 
ENDROOT
BRANCH   1  10
HETATM   10  C   UNL     1      40.160 -14.547   2.967  1.00  0.00     0.241 C 
BRANCH  10  11
HETATM   11  N   UNL     1      40.973 -14.479   1.694  1.00  0.00    -0.068 N 
HETATM   12  C   UNL     1      40.941 -15.775   0.855  1.00  0.00     0.254 C 
HETATM   13  C   UNL     1      41.742 -15.606  -0.453  1.00  0.00     0.150 C 
HETATM   14  N   UNL     1      41.186 -14.488  -1.237  1.00  0.00    -0.378 N 
HETATM   15  C   UNL     1      41.228 -13.202  -0.525  1.00  0.00     0.150 C 
HETATM   16  C   UNL     1      40.472 -13.288   0.816  1.00  0.00     0.254 C 
HETATM   17  H   UNL     1      41.960 -14.269   1.895  1.00  0.00     0.280 HD
BRANCH  14  18
HETATM   18  C   UNL     1      40.129 -14.791  -2.103  1.00  0.00     0.030 A 
HETATM   19  C   UNL     1      38.910 -14.092  -2.115  1.00  0.00     0.029 A 
HETATM   20  C   UNL     1      37.866 -14.440  -2.984  1.00  0.00     0.002 A 
HETATM   21  C   UNL     1      38.024 -15.484  -3.887  1.00  0.00     0.000 A 
HETATM   22  C   UNL     1      39.231 -16.165  -3.932  1.00  0.00     0.002 A 
HETATM   23  C   UNL     1      40.267 -15.816  -3.058  1.00  0.00     0.029 A 
ENDBRANCH  14  18
ENDBRANCH  10  11
ENDBRANCH   1  10
BRANCH   4  24
HETATM   24  C   UNL     1      42.509 -15.233   6.093  1.00  0.00     0.156 C 
BRANCH  24  25
HETATM   25  N   UNL     1      43.073 -16.031   5.011  1.00  0.00    -0.355 N 
HETATM   26  C   UNL     1      43.857 -17.150   5.217  1.00  0.00     0.251 C 
HETATM   27  O   UNL     1      44.437 -17.335   6.285  1.00  0.00    -0.268 OA
HETATM   28  H   UNL     1      42.531 -16.023   4.153  1.00  0.00     0.162 HD
BRANCH  26  29
HETATM   29  C   UNL     1      43.903 -18.178   4.141  1.00  0.00     0.034 A 
HETATM   30  C   UNL     1      44.393 -19.446   4.493  1.00  0.00     0.056 A 
HETATM   31  C   UNL     1      44.362 -20.440   3.539  1.00  0.00     0.106 A 
HETATM   32  C   UNL     1      43.881 -20.213   2.273  1.00  0.00     0.105 A 
HETATM   33  O   UNL     1      44.767 -21.724   3.720  1.00  0.00    -0.323 OA
HETATM   34  O   UNL     1      43.922 -21.328   1.498  1.00  0.00    -0.323 OA
HETATM   35  C   UNL     1      43.417 -18.975   1.885  1.00  0.00     0.041 A 
HETATM   36  C   UNL     1      44.497 -22.283   2.415  1.00  0.00     0.352 A 
HETATM   37  C   UNL     1      43.434 -17.941   2.830  1.00  0.00     0.020 A 
ENDBRANCH  26  29
ENDBRANCH  24  25
ENDBRANCH   4  24
TORSDOF 6
ENDMDL
MODEL 3
REMARK VINA RESULT:      -9.0      3.260      7.249
REMARK  6 active torsions:
REMARK  status: ('A' for Active; 'I' for Inactive)
REMARK    1  A    between atoms: C_4  and  N_5 
REMARK    2  A    between atoms: N_8  and  C_10 
REMARK    3  A    between atoms: C_10  and  C_11 
REMARK    4  A    between atoms: C_14  and  C_15 
REMARK    5  A    between atoms: C_15  and  N_16 
REMARK       I    between atoms: N_16  and  C_17 
REMARK    6  A    between atoms: C_17  and  C_18 
ROOT
HETATM    1  C   UNL     1      41.066 -12.271   4.392  1.00  0.00     0.041 C 
HETATM    2  C   UNL     1      40.098 -12.462   3.192  1.00  0.00    -0.004 C 
HETATM    3  C   UNL     1      39.776 -13.961   2.987  1.00  0.00     0.040 C 
HETATM    4  C   UNL     1      41.063 -14.774   2.705  1.00  0.00     0.206 C 
HETATM    5  N   UNL     1      42.208 -13.771   2.768  1.00  0.00    -0.065 N 
HETATM    6  H   UNL     1      43.090 -14.320   2.637  1.00  0.00     0.280 HD
HETATM    7  C   UNL     1      42.361 -13.066   4.090  1.00  0.00     0.242 C 
HETATM    8  C   UNL     1      40.813 -11.962   1.908  1.00  0.00     0.032 C 
HETATM    9  C   UNL     1      42.090 -12.767   1.645  1.00  0.00     0.236 C 
ENDROOT
BRANCH   1  10
HETATM   10  C   UNL     1      40.563 -12.675   5.796  1.00  0.00     0.241 C 
BRANCH  10  11
HETATM   11  N   UNL     1      40.212 -11.513   6.699  1.00  0.00    -0.068 N 
HETATM   12  C   UNL     1      39.514 -11.925   8.014  1.00  0.00     0.254 C 
HETATM   13  C   UNL     1      39.244 -10.694   8.904  1.00  0.00     0.150 C 
HETATM   14  N   UNL     1      40.513 -10.007   9.204  1.00  0.00    -0.378 N 
HETATM   15  C   UNL     1      41.217  -9.536   8.002  1.00  0.00     0.150 C 
HETATM   16  C   UNL     1      41.504 -10.703   7.037  1.00  0.00     0.254 C 
HETATM   17  H   UNL     1      39.593 -10.845   6.220  1.00  0.00     0.280 HD
BRANCH  14  18
HETATM   18  C   UNL     1      41.228 -10.465  10.318  1.00  0.00     0.030 A 
HETATM   19  C   UNL     1      42.632 -10.457  10.396  1.00  0.00     0.029 A 
HETATM   20  C   UNL     1      43.312 -10.944  11.521  1.00  0.00     0.002 A 
HETATM   21  C   UNL     1      42.603 -11.430  12.613  1.00  0.00     0.000 A 
HETATM   22  C   UNL     1      41.217 -11.409  12.586  1.00  0.00     0.002 A 
HETATM   23  C   UNL     1      40.545 -10.926  11.457  1.00  0.00     0.029 A 
ENDBRANCH  14  18
ENDBRANCH  10  11
ENDBRANCH   1  10
BRANCH   4  24
HETATM   24  C   UNL     1      41.214 -15.972   3.684  1.00  0.00     0.156 C 
BRANCH  24  25
HETATM   25  N   UNL     1      41.704 -17.241   3.162  1.00  0.00    -0.355 N 
HETATM   26  C   UNL     1      43.030 -17.480   2.856  1.00  0.00     0.251 C 
HETATM   27  O   UNL     1      43.813 -16.556   2.644  1.00  0.00    -0.268 OA
HETATM   28  H   UNL     1      41.164 -18.052   3.448  1.00  0.00     0.162 HD
BRANCH  26  29
HETATM   29  C   UNL     1      43.510 -18.889   2.884  1.00  0.00     0.034 A 
HETATM   30  C   UNL     1      44.056 -19.352   4.092  1.00  0.00     0.056 A 
HETATM   31  C   UNL     1      44.425 -20.677   4.171  1.00  0.00     0.106 A 
HETATM   32  C   UNL     1      44.283 -21.532   3.106  1.00  0.00     0.105 A 
HETATM   33  O   UNL     1      44.938 -21.291   5.268  1.00  0.00    -0.323 OA
HETATM   34  O   UNL     1      44.689 -22.794   3.400  1.00  0.00    -0.323 OA
HETATM   35  C   UNL     1      43.777 -21.107   1.898  1.00  0.00     0.041 A 
HETATM   36  C   UNL     1      45.117 -22.637   4.771  1.00  0.00     0.352 A 
HETATM   37  C   UNL     1      43.391 -19.765   1.782  1.00  0.00     0.020 A 
ENDBRANCH  26  29
ENDBRANCH  24  25
ENDBRANCH   4  24
TORSDOF 6
ENDMDL
MODEL 4
REMARK VINA RESULT:      -9.0      2.098      3.353
REMARK  6 active torsions:
REMARK  status: ('A' for Active; 'I' for Inactive)
REMARK    1  A    between atoms: C_4  and  N_5 
REMARK    2  A    between atoms: N_8  and  C_10 
REMARK    3  A    between atoms: C_10  and  C_11 
REMARK    4  A    between atoms: C_14  and  C_15 
REMARK    5  A    between atoms: C_15  and  N_16 
REMARK       I    between atoms: N_16  and  C_17 
REMARK    6  A    between atoms: C_17  and  C_18 
ROOT
HETATM    1  C   UNL     1      40.810 -13.211   2.845  1.00  0.00     0.041 C 
HETATM    2  C   UNL     1      41.059 -12.464   4.184  1.00  0.00    -0.004 C 
HETATM    3  C   UNL     1      42.342 -12.991   4.869  1.00  0.00     0.040 C 
HETATM    4  C   UNL     1      42.229 -14.504   5.174  1.00  0.00     0.206 C 
HETATM    5  N   UNL     1      40.868 -14.934   4.640  1.00  0.00    -0.065 N 
HETATM    6  H   UNL     1      40.805 -15.968   4.787  1.00  0.00     0.280 HD
HETATM    7  C   UNL     1      40.672 -14.721   3.161  1.00  0.00     0.242 C 
HETATM    8  C   UNL     1      39.869 -12.762   5.134  1.00  0.00     0.032 C 
HETATM    9  C   UNL     1      39.762 -14.263   5.421  1.00  0.00     0.236 C 
ENDROOT
BRANCH   1  10
HETATM   10  C   UNL     1      41.855 -13.044   1.719  1.00  0.00     0.241 C 
BRANCH  10  11
HETATM   11  N   UNL     1      41.337 -12.359   0.474  1.00  0.00    -0.068 N 
HETATM   12  C   UNL     1      41.945 -12.898  -0.840  1.00  0.00     0.254 C 
HETATM   13  C   UNL     1      41.324 -12.192  -2.064  1.00  0.00     0.150 C 
HETATM   14  N   UNL     1      39.864 -12.393  -2.068  1.00  0.00    -0.378 N 
HETATM   15  C   UNL     1      39.201 -11.859  -0.869  1.00  0.00     0.150 C 
HETATM   16  C   UNL     1      39.783 -12.491   0.411  1.00  0.00     0.254 C 
HETATM   17  H   UNL     1      41.521 -11.347   0.504  1.00  0.00     0.280 HD
BRANCH  14  18
HETATM   18  C   UNL     1      39.389 -13.555  -2.689  1.00  0.00     0.030 A 
HETATM   19  C   UNL     1      40.227 -14.533  -3.251  1.00  0.00     0.029 A 
HETATM   20  C   UNL     1      39.712 -15.673  -3.883  1.00  0.00     0.002 A 
HETATM   21  C   UNL     1      38.339 -15.879  -3.948  1.00  0.00     0.000 A 
HETATM   22  C   UNL     1      37.486 -14.955  -3.364  1.00  0.00     0.002 A 
HETATM   23  C   UNL     1      38.008 -13.816  -2.739  1.00  0.00     0.029 A 
ENDBRANCH  14  18
ENDBRANCH  10  11
ENDBRANCH   1  10
BRANCH   4  24
HETATM   24  C   UNL     1      43.423 -15.302   4.581  1.00  0.00     0.156 C 
BRANCH  24  25
HETATM   25  N   UNL     1      43.238 -16.718   4.286  1.00  0.00    -0.355 N 
HETATM   26  C   UNL     1      43.486 -17.278   3.048  1.00  0.00     0.251 C 
HETATM   27  O   UNL     1      43.514 -16.590   2.030  1.00  0.00    -0.268 OA
HETATM   28  H   UNL     1      43.362 -17.334   5.083  1.00  0.00     0.162 HD
BRANCH  26  29
HETATM   29  C   UNL     1      43.815 -18.729   2.991  1.00  0.00     0.034 A 
HETATM   30  C   UNL     1      44.293 -19.320   4.172  1.00  0.00     0.056 A 
HETATM   31  C   UNL     1      44.520 -20.680   4.169  1.00  0.00     0.106 A 
HETATM   32  C   UNL     1      44.301 -21.448   3.053  1.00  0.00     0.105 A 
HETATM   33  O   UNL     1      44.952 -21.411   5.229  1.00  0.00    -0.323 OA
HETATM   34  O   UNL     1      44.568 -22.762   3.270  1.00  0.00    -0.323 OA
HETATM   35  C   UNL     1      43.858 -20.898   1.870  1.00  0.00     0.041 A 
HETATM   36  C   UNL     1      44.994 -22.735   4.650  1.00  0.00     0.352 A 
HETATM   37  C   UNL     1      43.617 -19.518   1.836  1.00  0.00     0.020 A 
ENDBRANCH  26  29
ENDBRANCH  24  25
ENDBRANCH   4  24
TORSDOF 6
ENDMDL
MODEL 5
REMARK VINA RESULT:      -8.9      1.835      2.805
REMARK  6 active torsions:
REMARK  status: ('A' for Active; 'I' for Inactive)
REMARK    1  A    between atoms: C_4  and  N_5 
REMARK    2  A    between atoms: N_8  and  C_10 
REMARK    3  A    between atoms: C_10  and  C_11 
REMARK    4  A    between atoms: C_14  and  C_15 
REMARK    5  A    between atoms: C_15  and  N_16 
REMARK       I    between atoms: N_16  and  C_17 
REMARK    6  A    between atoms: C_17  and  C_18 
ROOT
HETATM    1  C   UNL     1      40.101 -12.936   3.422  1.00  0.00     0.041 C 
HETATM    2  C   UNL     1      40.995 -12.801   4.685  1.00  0.00    -0.004 C 
HETATM    3  C   UNL     1      42.301 -13.613   4.516  1.00  0.00     0.040 C 
HETATM    4  C   UNL     1      41.997 -15.115   4.297  1.00  0.00     0.206 C 
HETATM    5  N   UNL     1      40.478 -15.235   4.297  1.00  0.00    -0.065 N 
HETATM    6  H   UNL     1      40.260 -16.238   4.090  1.00  0.00     0.280 HD
HETATM    7  C   UNL     1      39.780 -14.439   3.225  1.00  0.00     0.242 C 
HETATM    8  C   UNL     1      40.226 -13.404   5.890  1.00  0.00     0.032 C 
HETATM    9  C   UNL     1      39.923 -14.888   5.658  1.00  0.00     0.236 C 
ENDROOT
BRANCH   1  10
HETATM   10  C   UNL     1      40.645 -12.376   2.089  1.00  0.00     0.241 C 
BRANCH  10  11
HETATM   11  N   UNL     1      40.334 -13.223   0.874  1.00  0.00    -0.068 N 
HETATM   12  C   UNL     1      39.298 -12.593  -0.084  1.00  0.00     0.254 C 
HETATM   13  C   UNL     1      39.080 -13.487  -1.323  1.00  0.00     0.150 C 
HETATM   14  N   UNL     1      40.359 -13.684  -2.027  1.00  0.00    -0.378 N 
HETATM   15  C   UNL     1      41.387 -14.328  -1.195  1.00  0.00     0.150 C 
HETATM   16  C   UNL     1      41.650 -13.514   0.087  1.00  0.00     0.254 C 
HETATM   17  H   UNL     1      39.974 -14.147   1.150  1.00  0.00     0.280 HD
BRANCH  14  18
HETATM   18  C   UNL     1      40.712 -12.717  -2.976  1.00  0.00     0.030 A 
HETATM   19  C   UNL     1      42.039 -12.445  -3.353  1.00  0.00     0.029 A 
HETATM   20  C   UNL     1      42.352 -11.453  -4.292  1.00  0.00     0.002 A 
HETATM   21  C   UNL     1      41.342 -10.720  -4.901  1.00  0.00     0.000 A 
HETATM   22  C   UNL     1      40.019 -10.994  -4.585  1.00  0.00     0.002 A 
HETATM   23  C   UNL     1      39.714 -11.982  -3.643  1.00  0.00     0.029 A 
ENDBRANCH  14  18
ENDBRANCH  10  11
ENDBRANCH   1  10
BRANCH   4  24
HETATM   24  C   UNL     1      42.677 -15.659   3.010  1.00  0.00     0.156 C 
BRANCH  24  25
HETATM   25  N   UNL     1      42.719 -17.101   2.799  1.00  0.00    -0.355 N 
HETATM   26  C   UNL     1      43.711 -17.738   2.079  1.00  0.00     0.251 C 
HETATM   27  O   UNL     1      44.402 -17.128   1.266  1.00  0.00    -0.268 OA
HETATM   28  H   UNL     1      42.288 -17.648   3.538  1.00  0.00     0.162 HD
BRANCH  26  29
HETATM   29  C   UNL     1      43.987 -19.168   2.386  1.00  0.00     0.034 A 
HETATM   30  C   UNL     1      44.468 -19.463   3.672  1.00  0.00     0.056 A 
HETATM   31  C   UNL     1      44.646 -20.787   4.009  1.00  0.00     0.106 A 
HETATM   32  C   UNL     1      44.378 -21.802   3.124  1.00  0.00     0.105 A 
HETATM   33  O   UNL     1      45.072 -21.246   5.215  1.00  0.00    -0.323 OA
HETATM   34  O   UNL     1      44.602 -23.029   3.662  1.00  0.00    -0.323 OA
HETATM   35  C   UNL     1      43.931 -21.550   1.846  1.00  0.00     0.041 A 
HETATM   36  C   UNL     1      45.056 -22.673   4.987  1.00  0.00     0.352 A 
HETATM   37  C   UNL     1      43.738 -20.214   1.468  1.00  0.00     0.020 A 
ENDBRANCH  26  29
ENDBRANCH  24  25
ENDBRANCH   4  24
TORSDOF 6
ENDMDL
MODEL 6
REMARK VINA RESULT:      -8.8      3.448      7.906
REMARK  6 active torsions:
REMARK  status: ('A' for Active; 'I' for Inactive)
REMARK    1  A    between atoms: C_4  and  N_5 
REMARK    2  A    between atoms: N_8  and  C_10 
REMARK    3  A    between atoms: C_10  and  C_11 
REMARK    4  A    between atoms: C_14  and  C_15 
REMARK    5  A    between atoms: C_15  and  N_16 
REMARK       I    between atoms: N_16  and  C_17 
REMARK    6  A    between atoms: C_17  and  C_18 
ROOT
HETATM    1  C   UNL     1      40.539 -13.255   3.937  1.00  0.00     0.041 C 
HETATM    2  C   UNL     1      39.307 -12.585   3.266  1.00  0.00    -0.004 C 
HETATM    3  C   UNL     1      39.603 -12.271   1.780  1.00  0.00     0.040 C 
HETATM    4  C   UNL     1      40.809 -11.311   1.644  1.00  0.00     0.206 C 
HETATM    5  N   UNL     1      41.294 -11.050   3.065  1.00  0.00    -0.065 N 
HETATM    6  H   UNL     1      42.147 -10.448   2.981  1.00  0.00     0.280 HD
HETATM    7  C   UNL     1      41.735 -12.277   3.819  1.00  0.00     0.242 C 
HETATM    8  C   UNL     1      39.040 -11.235   3.982  1.00  0.00     0.032 C 
HETATM    9  C   UNL     1      40.244 -10.297   3.848  1.00  0.00     0.236 C 
ENDROOT
BRANCH   1  10
HETATM   10  C   UNL     1      40.986 -14.636   3.409  1.00  0.00     0.241 C 
BRANCH  10  11
HETATM   11  N   UNL     1      41.502 -15.581   4.472  1.00  0.00    -0.068 N 
HETATM   12  C   UNL     1      40.943 -17.017   4.365  1.00  0.00     0.254 C 
HETATM   13  C   UNL     1      41.561 -17.931   5.444  1.00  0.00     0.150 C 
HETATM   14  N   UNL     1      43.028 -17.952   5.299  1.00  0.00    -0.378 N 
HETATM   15  C   UNL     1      43.645 -16.624   5.440  1.00  0.00     0.150 C 
HETATM   16  C   UNL     1      43.062 -15.633   4.413  1.00  0.00     0.254 C 
HETATM   17  H   UNL     1      41.279 -15.235   5.415  1.00  0.00     0.280 HD
BRANCH  14  18
HETATM   18  C   UNL     1      43.559 -18.896   4.412  1.00  0.00     0.030 A 
HETATM   19  C   UNL     1      43.224 -18.956   3.048  1.00  0.00     0.029 A 
HETATM   20  C   UNL     1      43.763 -19.931   2.197  1.00  0.00     0.002 A 
HETATM   21  C   UNL     1      44.674 -20.860   2.682  1.00  0.00     0.000 A 
HETATM   22  C   UNL     1      45.060 -20.800   4.013  1.00  0.00     0.002 A 
HETATM   23  C   UNL     1      44.515 -19.827   4.858  1.00  0.00     0.029 A 
ENDBRANCH  14  18
ENDBRANCH  10  11
ENDBRANCH   1  10
BRANCH   4  24
HETATM   24  C   UNL     1      41.899 -11.886   0.697  1.00  0.00     0.156 C 
BRANCH  24  25
HETATM   25  N   UNL     1      41.477 -12.549  -0.531  1.00  0.00    -0.355 N 
HETATM   26  C   UNL     1      41.408 -13.921  -0.672  1.00  0.00     0.251 C 
HETATM   27  O   UNL     1      42.037 -14.672   0.070  1.00  0.00    -0.268 OA
HETATM   28  H   UNL     1      40.829 -12.012  -1.098  1.00  0.00     0.162 HD
BRANCH  26  29
HETATM   29  C   UNL     1      40.471 -14.471  -1.690  1.00  0.00     0.034 A 
HETATM   30  C   UNL     1      39.263 -13.782  -1.883  1.00  0.00     0.056 A 
HETATM   31  C   UNL     1      38.419 -14.219  -2.881  1.00  0.00     0.106 A 
HETATM   32  C   UNL     1      38.728 -15.302  -3.666  1.00  0.00     0.105 A 
HETATM   33  O   UNL     1      37.233 -13.651  -3.219  1.00  0.00    -0.323 OA
HETATM   34  O   UNL     1      37.773 -15.552  -4.599  1.00  0.00    -0.323 OA
HETATM   35  C   UNL     1      39.891 -16.018  -3.488  1.00  0.00     0.041 A 
HETATM   36  C   UNL     1      36.817 -14.510  -4.305  1.00  0.00     0.352 A 
HETATM   37  C   UNL     1      40.773 -15.602  -2.482  1.00  0.00     0.020 A 
ENDBRANCH  26  29
ENDBRANCH  24  25
ENDBRANCH   4  24
TORSDOF 6
ENDMDL
MODEL 7
REMARK VINA RESULT:      -8.7      4.178      8.735
REMARK  6 active torsions:
REMARK  status: ('A' for Active; 'I' for Inactive)
REMARK    1  A    between atoms: C_4  and  N_5 
REMARK    2  A    between atoms: N_8  and  C_10 
REMARK    3  A    between atoms: C_10  and  C_11 
REMARK    4  A    between atoms: C_14  and  C_15 
REMARK    5  A    between atoms: C_15  and  N_16 
REMARK       I    between atoms: N_16  and  C_17 
REMARK    6  A    between atoms: C_17  and  C_18 
ROOT
HETATM    1  C   UNL     1      41.371 -14.063   4.397  1.00  0.00     0.041 C 
HETATM    2  C   UNL     1      41.911 -13.089   3.314  1.00  0.00    -0.004 C 
HETATM    3  C   UNL     1      41.391 -11.654   3.566  1.00  0.00     0.040 C 
HETATM    4  C   UNL     1      39.844 -11.609   3.529  1.00  0.00     0.206 C 
HETATM    5  N   UNL     1      39.393 -13.043   3.283  1.00  0.00    -0.065 N 
HETATM    6  H   UNL     1      38.346 -13.034   3.315  1.00  0.00     0.280 HD
HETATM    7  C   UNL     1      39.823 -14.032   4.336  1.00  0.00     0.242 C 
HETATM    8  C   UNL     1      41.365 -13.546   1.935  1.00  0.00     0.032 C 
HETATM    9  C   UNL     1      39.834 -13.505   1.913  1.00  0.00     0.236 C 
ENDROOT
BRANCH   1  10
HETATM   10  C   UNL     1      41.805 -13.828   5.861  1.00  0.00     0.241 C 
BRANCH  10  11
HETATM   11  N   UNL     1      42.408 -15.036   6.543  1.00  0.00    -0.068 N 
HETATM   12  C   UNL     1      41.654 -16.356   6.268  1.00  0.00     0.254 C 
HETATM   13  C   UNL     1      42.363 -17.547   6.948  1.00  0.00     0.150 C 
HETATM   14  N   UNL     1      43.749 -17.649   6.455  1.00  0.00    -0.378 N 
HETATM   15  C   UNL     1      44.551 -16.446   6.725  1.00  0.00     0.150 C 
HETATM   16  C   UNL     1      43.898 -15.196   6.104  1.00  0.00     0.254 C 
HETATM   17  H   UNL     1      42.439 -14.908   7.563  1.00  0.00     0.280 HD
BRANCH  14  18
HETATM   18  C   UNL     1      43.949 -18.394   5.287  1.00  0.00     0.030 A 
HETATM   19  C   UNL     1      43.453 -18.012   4.028  1.00  0.00     0.029 A 
HETATM   20  C   UNL     1      43.657 -18.797   2.885  1.00  0.00     0.002 A 
HETATM   21  C   UNL     1      44.387 -19.976   2.964  1.00  0.00     0.000 A 
HETATM   22  C   UNL     1      44.928 -20.358   4.183  1.00  0.00     0.002 A 
HETATM   23  C   UNL     1      44.716 -19.572   5.321  1.00  0.00     0.029 A 
ENDBRANCH  14  18
ENDBRANCH  10  11
ENDBRANCH   1  10
BRANCH   4  24
HETATM   24  C   UNL     1      39.255 -10.970   4.817  1.00  0.00     0.156 C 
BRANCH  24  25
HETATM   25  N   UNL     1      40.154 -10.693   5.931  1.00  0.00    -0.355 N 
HETATM   26  C   UNL     1      39.721 -10.290   7.179  1.00  0.00     0.251 C 
HETATM   27  O   UNL     1      38.612  -9.782   7.338  1.00  0.00    -0.268 OA
HETATM   28  H   UNL     1      41.023 -11.217   5.913  1.00  0.00     0.162 HD
BRANCH  26  29
HETATM   29  C   UNL     1      40.596 -10.576   8.349  1.00  0.00     0.034 A 
HETATM   30  C   UNL     1      41.983 -10.557   8.126  1.00  0.00     0.056 A 
HETATM   31  C   UNL     1      42.816 -10.730   9.210  1.00  0.00     0.106 A 
HETATM   32  C   UNL     1      42.323 -10.929  10.476  1.00  0.00     0.105 A 
HETATM   33  O   UNL     1      44.173 -10.709   9.176  1.00  0.00    -0.323 OA
HETATM   34  O   UNL     1      43.311 -11.058  11.400  1.00  0.00    -0.323 OA
HETATM   35  C   UNL     1      40.970 -10.980  10.728  1.00  0.00     0.041 A 
HETATM   36  C   UNL     1      44.486 -10.931  10.570  1.00  0.00     0.352 A 
HETATM   37  C   UNL     1      40.093 -10.808   9.648  1.00  0.00     0.020 A 
ENDBRANCH  26  29
ENDBRANCH  24  25
ENDBRANCH   4  24
TORSDOF 6
ENDMDL
MODEL 8
REMARK VINA RESULT:      -8.7      1.395      1.918
REMARK  6 active torsions:
REMARK  status: ('A' for Active; 'I' for Inactive)
REMARK    1  A    between atoms: C_4  and  N_5 
REMARK    2  A    between atoms: N_8  and  C_10 
REMARK    3  A    between atoms: C_10  and  C_11 
REMARK    4  A    between atoms: C_14  and  C_15 
REMARK    5  A    between atoms: C_15  and  N_16 
REMARK       I    between atoms: N_16  and  C_17 
REMARK    6  A    between atoms: C_17  and  C_18 
ROOT
HETATM    1  C   UNL     1      40.534 -13.903   2.609  1.00  0.00     0.041 C 
HETATM    2  C   UNL     1      41.810 -13.089   2.963  1.00  0.00    -0.004 C 
HETATM    3  C   UNL     1      42.700 -13.878   3.952  1.00  0.00     0.040 C 
HETATM    4  C   UNL     1      41.940 -14.181   5.266  1.00  0.00     0.206 C 
HETATM    5  N   UNL     1      40.543 -13.601   5.079  1.00  0.00    -0.065 N 
HETATM    6  H   UNL     1      40.001 -13.852   5.939  1.00  0.00     0.280 HD
HETATM    7  C   UNL     1      39.766 -14.180   3.926  1.00  0.00     0.242 C 
HETATM    8  C   UNL     1      41.369 -11.783   3.675  1.00  0.00     0.032 C 
HETATM    9  C   UNL     1      40.610 -12.095   4.969  1.00  0.00     0.236 C 
ENDROOT
BRANCH   1  10
HETATM   10  C   UNL     1      40.718 -15.243   1.862  1.00  0.00     0.241 C 
BRANCH  10  11
HETATM   11  N   UNL     1      40.141 -15.270   0.464  1.00  0.00    -0.068 N 
HETATM   12  C   UNL     1      39.347 -14.001   0.085  1.00  0.00     0.254 C 
HETATM   13  C   UNL     1      38.844 -14.080  -1.372  1.00  0.00     0.150 C 
HETATM   14  N   UNL     1      39.988 -14.248  -2.286  1.00  0.00    -0.378 N 
HETATM   15  C   UNL     1      40.768 -15.466  -2.023  1.00  0.00     0.150 C 
HETATM   16  C   UNL     1      41.289 -15.485  -0.572  1.00  0.00     0.254 C 
HETATM   17  H   UNL     1      39.511 -16.074   0.339  1.00  0.00     0.280 HD
BRANCH  14  18
HETATM   18  C   UNL     1      40.618 -13.078  -2.729  1.00  0.00     0.030 A 
HETATM   19  C   UNL     1      41.972 -13.017  -3.101  1.00  0.00     0.029 A 
HETATM   20  C   UNL     1      42.571 -11.821  -3.518  1.00  0.00     0.002 A 
HETATM   21  C   UNL     1      41.823 -10.653  -3.599  1.00  0.00     0.000 A 
HETATM   22  C   UNL     1      40.473 -10.688  -3.282  1.00  0.00     0.002 A 
HETATM   23  C   UNL     1      39.883 -11.885  -2.862  1.00  0.00     0.029 A 
ENDBRANCH  14  18
ENDBRANCH  10  11
ENDBRANCH   1  10
BRANCH   4  24
HETATM   24  C   UNL     1      41.957 -15.697   5.605  1.00  0.00     0.156 C 
BRANCH  24  25
HETATM   25  N   UNL     1      42.634 -16.609   4.690  1.00  0.00    -0.355 N 
HETATM   26  C   UNL     1      43.720 -17.382   5.049  1.00  0.00     0.251 C 
HETATM   27  O   UNL     1      44.418 -17.094   6.019  1.00  0.00    -0.268 OA
HETATM   28  H   UNL     1      42.041 -16.990   3.960  1.00  0.00     0.162 HD
BRANCH  26  29
HETATM   29  C   UNL     1      43.969 -18.635   4.283  1.00  0.00     0.034 A 
HETATM   30  C   UNL     1      44.408 -19.751   5.014  1.00  0.00     0.056 A 
HETATM   31  C   UNL     1      44.559 -20.946   4.343  1.00  0.00     0.106 A 
HETATM   32  C   UNL     1      44.303 -21.058   2.999  1.00  0.00     0.105 A 
HETATM   33  O   UNL     1      44.945 -22.122   4.901  1.00  0.00    -0.323 OA
HETATM   34  O   UNL     1      44.496 -22.322   2.541  1.00  0.00    -0.323 OA
HETATM   35  C   UNL     1      43.897 -19.979   2.246  1.00  0.00     0.041 A 
HETATM   36  C   UNL     1      44.916 -22.994   3.749  1.00  0.00     0.352 A 
HETATM   37  C   UNL     1      43.733 -18.748   2.895  1.00  0.00     0.020 A 
ENDBRANCH  26  29
ENDBRANCH  24  25
ENDBRANCH   4  24
TORSDOF 6
ENDMDL
MODEL 9
REMARK VINA RESULT:      -8.6      4.637      9.079
REMARK  6 active torsions:
REMARK  status: ('A' for Active; 'I' for Inactive)
REMARK    1  A    between atoms: C_4  and  N_5 
REMARK    2  A    between atoms: N_8  and  C_10 
REMARK    3  A    between atoms: C_10  and  C_11 
REMARK    4  A    between atoms: C_14  and  C_15 
REMARK    5  A    between atoms: C_15  and  N_16 
REMARK       I    between atoms: N_16  and  C_17 
REMARK    6  A    between atoms: C_17  and  C_18 
ROOT
HETATM    1  C   UNL     1      39.996 -14.203   4.112  1.00  0.00     0.041 C 
HETATM    2  C   UNL     1      40.547 -13.002   3.295  1.00  0.00    -0.004 C 
HETATM    3  C   UNL     1      41.695 -12.305   4.061  1.00  0.00     0.040 C 
HETATM    4  C   UNL     1      41.208 -11.774   5.431  1.00  0.00     0.206 C 
HETATM    5  N   UNL     1      39.742 -12.177   5.534  1.00  0.00    -0.065 N 
HETATM    6  H   UNL     1      39.417 -11.875   6.483  1.00  0.00     0.280 HD
HETATM    7  C   UNL     1      39.486 -13.660   5.471  1.00  0.00     0.242 C 
HETATM    8  C   UNL     1      39.404 -11.966   3.126  1.00  0.00     0.032 C 
HETATM    9  C   UNL     1      38.925 -11.455   4.488  1.00  0.00     0.236 C 
ENDROOT
BRANCH   1  10
HETATM   10  C   UNL     1      40.949 -15.387   4.388  1.00  0.00     0.241 C 
BRANCH  10  11
HETATM   11  N   UNL     1      41.699 -15.890   3.174  1.00  0.00    -0.068 N 
HETATM   12  C   UNL     1      43.202 -16.148   3.424  1.00  0.00     0.254 C 
HETATM   13  C   UNL     1      43.881 -16.713   2.159  1.00  0.00     0.150 C 
HETATM   14  N   UNL     1      43.218 -17.966   1.754  1.00  0.00    -0.378 N 
HETATM   15  C   UNL     1      41.789 -17.794   1.448  1.00  0.00     0.150 C 
HETATM   16  C   UNL     1      41.033 -17.203   2.654  1.00  0.00     0.254 C 
HETATM   17  H   UNL     1      41.629 -15.223   2.393  1.00  0.00     0.280 HD
BRANCH  14  18
HETATM   18  C   UNL     1      43.684 -19.146   2.347  1.00  0.00     0.030 A 
HETATM   19  C   UNL     1      44.286 -19.192   3.616  1.00  0.00     0.029 A 
HETATM   20  C   UNL     1      44.760 -20.392   4.165  1.00  0.00     0.002 A 
HETATM   21  C   UNL     1      44.621 -21.585   3.469  1.00  0.00     0.000 A 
HETATM   22  C   UNL     1      43.991 -21.581   2.233  1.00  0.00     0.002 A 
HETATM   23  C   UNL     1      43.525 -20.379   1.688  1.00  0.00     0.029 A 
ENDBRANCH  14  18
ENDBRANCH  10  11
ENDBRANCH   1  10
BRANCH   4  24
HETATM   24  C   UNL     1      42.092 -12.295   6.598  1.00  0.00     0.156 C 
BRANCH  24  25
HETATM   25  N   UNL     1      42.490 -11.359   7.643  1.00  0.00    -0.355 N 
HETATM   26  C   UNL     1      41.645 -10.931   8.647  1.00  0.00     0.251 C 
HETATM   27  O   UNL     1      40.423 -11.002   8.528  1.00  0.00    -0.268 OA
HETATM   28  H   UNL     1      43.478 -11.384   7.877  1.00  0.00     0.162 HD
BRANCH  26  29
HETATM   29  C   UNL     1      42.255 -10.468   9.924  1.00  0.00     0.034 A 
HETATM   30  C   UNL     1      41.476  -9.625  10.733  1.00  0.00     0.056 A 
HETATM   31  C   UNL     1      41.982  -9.255  11.960  1.00  0.00     0.106 A 
HETATM   32  C   UNL     1      43.215  -9.678  12.391  1.00  0.00     0.105 A 
HETATM   33  O   UNL     1      41.350  -8.473  12.874  1.00  0.00    -0.323 OA
HETATM   34  O   UNL     1      43.514  -9.216  13.633  1.00  0.00    -0.323 OA
HETATM   35  C   UNL     1      44.018 -10.484  11.614  1.00  0.00     0.041 A 
HETATM   36  C   UNL     1      42.333  -8.440  13.933  1.00  0.00     0.352 A 
HETATM   37  C   UNL     1      43.534 -10.879  10.359  1.00  0.00     0.020 A 
ENDBRANCH  26  29
ENDBRANCH  24  25
ENDBRANCH   4  24
TORSDOF 6
ENDMDL
MODEL 10
REMARK VINA RESULT:      -8.5      3.786      7.206
REMARK  6 active torsions:
REMARK  status: ('A' for Active; 'I' for Inactive)
REMARK    1  A    between atoms: C_4  and  N_5 
REMARK    2  A    between atoms: N_8  and  C_10 
REMARK    3  A    between atoms: C_10  and  C_11 
REMARK    4  A    between atoms: C_14  and  C_15 
REMARK    5  A    between atoms: C_15  and  N_16 
REMARK       I    between atoms: N_16  and  C_17 
REMARK    6  A    between atoms: C_17  and  C_18 
ROOT
HETATM    1  C   UNL     1      41.766 -15.743   3.706  1.00  0.00     0.041 C 
HETATM    2  C   UNL     1      41.060 -16.244   4.996  1.00  0.00    -0.004 C 
HETATM    3  C   UNL     1      41.765 -15.683   6.254  1.00  0.00     0.040 C 
HETATM    4  C   UNL     1      43.246 -16.129   6.308  1.00  0.00     0.206 C 
HETATM    5  N   UNL     1      43.476 -16.954   5.048  1.00  0.00    -0.065 N 
HETATM    6  H   UNL     1      44.491 -17.212   5.044  1.00  0.00     0.280 HD
HETATM    7  C   UNL     1      43.240 -16.216   3.756  1.00  0.00     0.242 C 
HETATM    8  C   UNL     1      41.183 -17.790   5.047  1.00  0.00     0.032 C 
HETATM    9  C   UNL     1      42.653 -18.220   5.091  1.00  0.00     0.236 C 
ENDROOT
BRANCH   1  10
HETATM   10  C   UNL     1      41.752 -14.225   3.419  1.00  0.00     0.241 C 
BRANCH  10  11
HETATM   11  N   UNL     1      40.533 -13.736   2.668  1.00  0.00    -0.068 N 
HETATM   12  C   UNL     1      40.857 -12.799   1.483  1.00  0.00     0.254 C 
HETATM   13  C   UNL     1      39.570 -12.392   0.734  1.00  0.00     0.150 C 
HETATM   14  N   UNL     1      38.877 -13.597   0.245  1.00  0.00    -0.378 N 
HETATM   15  C   UNL     1      38.487 -14.521   1.322  1.00  0.00     0.150 C 
HETATM   16  C   UNL     1      39.715 -14.958   2.145  1.00  0.00     0.254 C 
HETATM   17  H   UNL     1      39.892 -13.229   3.293  1.00  0.00     0.280 HD
BRANCH  14  18
HETATM   18  C   UNL     1      39.269 -14.085  -1.007  1.00  0.00     0.030 A 
HETATM   19  C   UNL     1      38.497 -13.943  -2.173  1.00  0.00     0.029 A 
HETATM   20  C   UNL     1      38.916 -14.465  -3.405  1.00  0.00     0.002 A 
HETATM   21  C   UNL     1      40.134 -15.124  -3.510  1.00  0.00     0.000 A 
HETATM   22  C   UNL     1      40.940 -15.242  -2.388  1.00  0.00     0.002 A 
HETATM   23  C   UNL     1      40.514 -14.723  -1.160  1.00  0.00     0.029 A 
ENDBRANCH  14  18
ENDBRANCH  10  11
ENDBRANCH   1  10
BRANCH   4  24
HETATM   24  C   UNL     1      44.208 -14.918   6.458  1.00  0.00     0.156 C 
BRANCH  24  25
HETATM   25  N   UNL     1      44.191 -14.164   7.706  1.00  0.00    -0.355 N 
HETATM   26  C   UNL     1      45.065 -13.133   7.986  1.00  0.00     0.251 C 
HETATM   27  O   UNL     1      46.135 -13.022   7.391  1.00  0.00    -0.268 OA
HETATM   28  H   UNL     1      43.280 -14.104   8.150  1.00  0.00     0.162 HD
BRANCH  26  29
HETATM   29  C   UNL     1      44.633 -12.098   8.966  1.00  0.00     0.034 A 
HETATM   30  C   UNL     1      43.424 -11.435   8.701  1.00  0.00     0.056 A 
HETATM   31  C   UNL     1      42.958 -10.538   9.637  1.00  0.00     0.106 A 
HETATM   32  C   UNL     1      43.648 -10.277  10.795  1.00  0.00     0.105 A 
HETATM   33  O   UNL     1      41.798  -9.837   9.552  1.00  0.00    -0.323 OA
HETATM   34  O   UNL     1      43.007  -9.378  11.586  1.00  0.00    -0.323 OA
HETATM   35  C   UNL     1      44.850 -10.888  11.076  1.00  0.00     0.041 A 
HETATM   36  C   UNL     1      41.838  -9.090  10.789  1.00  0.00     0.352 A 
HETATM   37  C   UNL     1      45.354 -11.807  10.146  1.00  0.00     0.020 A 
ENDBRANCH  26  29
ENDBRANCH  24  25
ENDBRANCH   4  24
TORSDOF 6
ENDMDL
