MODEL 1
REMARK VINA RESULT:      -8.3      0.000      0.000
REMARK  4 active torsions:
REMARK  status: ('A' for Active; 'I' for Inactive)
REMARK    1  A    between atoms: C_5  and  N_6 
REMARK       I    between atoms: N_6  and  C_7 
REMARK    2  A    between atoms: C_7  and  C_8 
REMARK    3  A    between atoms: C_12  and  C_13 
REMARK    4  A    between atoms: C_15  and  O_16 
ROOT
HETATM    1  C   UNL     1      44.340 -14.843   7.062  1.00  0.00     0.120 A 
HETATM    2  N   UNL     1      43.040 -15.040   6.692  1.00  0.00    -0.272 N 
HETATM    3  H   UNL     1      42.306 -14.338   6.657  1.00  0.00     0.189 HD
HETATM    4  N   UNL     1      42.754 -16.300   6.332  1.00  0.00    -0.174 NA
HETATM    5  C   UNL     1      43.900 -16.974   6.517  1.00  0.00     0.089 A 
HETATM    6  C   UNL     1      44.921 -16.091   6.968  1.00  0.00     0.071 A 
ENDROOT
BRANCH   1   7
HETATM    7  C   UNL     1      44.827 -13.547   7.452  1.00  0.00     0.270 C 
HETATM    8  N   UNL     1      44.087 -12.920   8.429  1.00  0.00    -0.351 N 
HETATM    9  H   UNL     1      43.379 -13.459   8.904  1.00  0.00     0.163 HD
HETATM   10  O   UNL     1      45.833 -13.052   6.955  1.00  0.00    -0.266 OA
BRANCH   8  11
HETATM   11  C   UNL     1      44.488 -11.645   9.014  1.00  0.00     0.084 C 
HETATM   12  C   UNL     1      43.259 -10.767   9.278  1.00  0.00     0.025 C 
HETATM   13  C   UNL     1      42.413 -11.263  10.455  1.00  0.00     0.006 C 
HETATM   14  C   UNL     1      43.230 -11.482  11.736  1.00  0.00    -0.019 C 
HETATM   15  C   UNL     1      43.617 -10.153  12.392  1.00  0.00     0.010 C 
HETATM   16  C   UNL     1      44.459 -12.358  11.461  1.00  0.00     0.006 C 
HETATM   17  C   UNL     1      45.309 -11.852  10.294  1.00  0.00     0.025 C 
ENDBRANCH   8  11
ENDBRANCH   1   7
BRANCH   5  18
HETATM   18  C   UNL     1      44.003 -18.413   6.257  1.00  0.00    -0.003 A 
HETATM   19  C   UNL     1      44.474 -18.877   5.015  1.00  0.00     0.050 A 
HETATM   20  C   UNL     1      44.589 -20.244   4.760  1.00  0.00     0.069 A 
HETATM   21  C   UNL     1      44.224 -21.159   5.750  1.00  0.00     0.037 A 
HETATM   22  C   UNL     1      43.747 -20.717   6.983  1.00  0.00     0.004 A 
HETATM   23  C   UNL     1      43.637 -19.349   7.236  1.00  0.00     0.014 A 
BRANCH  20  24
HETATM   24  O   UNL     1      45.042 -20.813   3.599  1.00  0.00    -0.356 OA
HETATM   25  C   UNL     1      44.157 -20.785   2.486  1.00  0.00     0.210 C 
ENDBRANCH  20  24
ENDBRANCH   5  18
TORSDOF 4
ENDMDL
MODEL 2
REMARK VINA RESULT:      -8.3      1.578      2.056
REMARK  4 active torsions:
REMARK  status: ('A' for Active; 'I' for Inactive)
REMARK    1  A    between atoms: C_5  and  N_6 
REMARK       I    between atoms: N_6  and  C_7 
REMARK    2  A    between atoms: C_7  and  C_8 
REMARK    3  A    between atoms: C_12  and  C_13 
REMARK    4  A    between atoms: C_15  and  O_16 
ROOT
HETATM    1  C   UNL     1      44.353 -14.380   7.158  1.00  0.00     0.120 A 
HETATM    2  N   UNL     1      43.776 -15.392   7.870  1.00  0.00    -0.272 N 
HETATM    3  H   UNL     1      43.682 -15.448   8.880  1.00  0.00     0.189 HD
HETATM    4  N   UNL     1      43.281 -16.386   7.116  1.00  0.00    -0.174 NA
HETATM    5  C   UNL     1      43.587 -16.039   5.855  1.00  0.00     0.089 A 
HETATM    6  C   UNL     1      44.254 -14.780   5.841  1.00  0.00     0.071 A 
ENDROOT
BRANCH   1   7
HETATM    7  C   UNL     1      44.909 -13.222   7.805  1.00  0.00     0.270 C 
HETATM    8  N   UNL     1      44.034 -12.537   8.618  1.00  0.00    -0.351 N 
HETATM    9  H   UNL     1      43.147 -12.970   8.828  1.00  0.00     0.163 HD
HETATM   10  O   UNL     1      46.078 -12.886   7.649  1.00  0.00    -0.266 OA
BRANCH   8  11
HETATM   11  C   UNL     1      44.451 -11.398   9.429  1.00  0.00     0.084 C 
HETATM   12  C   UNL     1      43.266 -10.459   9.681  1.00  0.00     0.025 C 
HETATM   13  C   UNL     1      42.246 -11.035  10.668  1.00  0.00     0.006 C 
HETATM   14  C   UNL     1      42.880 -11.504  11.986  1.00  0.00    -0.019 C 
HETATM   15  C   UNL     1      43.277 -10.320  12.872  1.00  0.00     0.010 C 
HETATM   16  C   UNL     1      44.067 -12.440  11.723  1.00  0.00     0.006 C 
HETATM   17  C   UNL     1      45.090 -11.854  10.748  1.00  0.00     0.025 C 
ENDBRANCH   8  11
ENDBRANCH   1   7
BRANCH   5  18
HETATM   18  C   UNL     1      43.238 -16.886   4.712  1.00  0.00    -0.003 A 
HETATM   19  C   UNL     1      44.008 -18.025   4.411  1.00  0.00     0.050 A 
HETATM   20  C   UNL     1      43.676 -18.848   3.333  1.00  0.00     0.069 A 
HETATM   21  C   UNL     1      42.571 -18.528   2.542  1.00  0.00     0.037 A 
HETATM   22  C   UNL     1      41.802 -17.399   2.820  1.00  0.00     0.004 A 
HETATM   23  C   UNL     1      42.134 -16.581   3.902  1.00  0.00     0.014 A 
BRANCH  20  24
HETATM   24  O   UNL     1      44.340 -19.982   2.951  1.00  0.00    -0.356 OA
HETATM   25  C   UNL     1      43.701 -20.801   1.980  1.00  0.00     0.210 C 
ENDBRANCH  20  24
ENDBRANCH   5  18
TORSDOF 4
ENDMDL
MODEL 3
REMARK VINA RESULT:      -8.3      2.300      2.734
REMARK  4 active torsions:
REMARK  status: ('A' for Active; 'I' for Inactive)
REMARK    1  A    between atoms: C_5  and  N_6 
REMARK       I    between atoms: N_6  and  C_7 
REMARK    2  A    between atoms: C_7  and  C_8 
REMARK    3  A    between atoms: C_12  and  C_13 
REMARK    4  A    between atoms: C_15  and  O_16 
ROOT
HETATM    1  C   UNL     1      44.333 -14.408   7.142  1.00  0.00     0.120 A 
HETATM    2  N   UNL     1      43.769 -15.422   7.863  1.00  0.00    -0.272 N 
HETATM    3  H   UNL     1      43.693 -15.478   8.874  1.00  0.00     0.189 HD
HETATM    4  N   UNL     1      43.263 -16.415   7.116  1.00  0.00    -0.174 NA
HETATM    5  C   UNL     1      43.548 -16.066   5.851  1.00  0.00     0.089 A 
HETATM    6  C   UNL     1      44.212 -14.807   5.827  1.00  0.00     0.071 A 
ENDROOT
BRANCH   1   7
HETATM    7  C   UNL     1      44.898 -13.250   7.782  1.00  0.00     0.270 C 
HETATM    8  N   UNL     1      44.035 -12.566   8.608  1.00  0.00    -0.351 N 
HETATM    9  H   UNL     1      43.152 -12.999   8.831  1.00  0.00     0.163 HD
HETATM   10  O   UNL     1      46.064 -12.913   7.608  1.00  0.00    -0.266 OA
BRANCH   8  11
HETATM   11  C   UNL     1      44.464 -11.427   9.413  1.00  0.00     0.084 C 
HETATM   12  C   UNL     1      43.290 -10.470   9.652  1.00  0.00     0.025 C 
HETATM   13  C   UNL     1      42.259 -11.025  10.639  1.00  0.00     0.006 C 
HETATM   14  C   UNL     1      42.879 -11.493  11.963  1.00  0.00    -0.019 C 
HETATM   15  C   UNL     1      43.289 -10.308  12.842  1.00  0.00     0.010 C 
HETATM   16  C   UNL     1      44.054 -12.447  11.712  1.00  0.00     0.006 C 
HETATM   17  C   UNL     1      45.090 -11.883  10.738  1.00  0.00     0.025 C 
ENDBRANCH   8  11
ENDBRANCH   1   7
BRANCH   5  18
HETATM   18  C   UNL     1      43.180 -16.913   4.713  1.00  0.00    -0.003 A 
HETATM   19  C   UNL     1      42.063 -16.590   3.920  1.00  0.00     0.050 A 
HETATM   20  C   UNL     1      41.711 -17.381   2.825  1.00  0.00     0.069 A 
HETATM   21  C   UNL     1      42.475 -18.510   2.522  1.00  0.00     0.037 A 
HETATM   22  C   UNL     1      43.579 -18.850   3.301  1.00  0.00     0.004 A 
HETATM   23  C   UNL     1      43.931 -18.054   4.393  1.00  0.00     0.014 A 
BRANCH  20  24
HETATM   24  O   UNL     1      40.658 -17.162   1.978  1.00  0.00    -0.356 OA
HETATM   25  C   UNL     1      40.059 -15.873   2.021  1.00  0.00     0.210 C 
ENDBRANCH  20  24
ENDBRANCH   5  18
TORSDOF 4
ENDMDL
MODEL 4
REMARK VINA RESULT:      -8.1      6.775      9.768
REMARK  4 active torsions:
REMARK  status: ('A' for Active; 'I' for Inactive)
REMARK    1  A    between atoms: C_5  and  N_6 
REMARK       I    between atoms: N_6  and  C_7 
REMARK    2  A    between atoms: C_7  and  C_8 
REMARK    3  A    between atoms: C_12  and  C_13 
REMARK    4  A    between atoms: C_15  and  O_16 
ROOT
HETATM    1  C   UNL     1      41.628 -16.151   0.432  1.00  0.00     0.120 A 
HETATM    2  N   UNL     1      40.614 -16.691   1.170  1.00  0.00    -0.272 N 
HETATM    3  H   UNL     1      39.638 -16.408   1.160  1.00  0.00     0.189 HD
HETATM    4  N   UNL     1      40.988 -17.707   1.963  1.00  0.00    -0.174 NA
HETATM    5  C   UNL     1      42.314 -17.810   1.778  1.00  0.00     0.089 A 
HETATM    6  C   UNL     1      42.751 -16.855   0.816  1.00  0.00     0.071 A 
ENDROOT
BRANCH   1   7
HETATM    7  C   UNL     1      41.399 -15.073  -0.492  1.00  0.00     0.270 C 
HETATM    8  N   UNL     1      40.606 -15.393  -1.571  1.00  0.00    -0.351 N 
HETATM    9  H   UNL     1      40.123 -16.279  -1.555  1.00  0.00     0.163 HD
HETATM   10  O   UNL     1      41.868 -13.953  -0.317  1.00  0.00    -0.266 OA
BRANCH   8  11
HETATM   11  C   UNL     1      40.190 -14.401  -2.555  1.00  0.00     0.084 C 
HETATM   12  C   UNL     1      39.850 -15.079  -3.888  1.00  0.00     0.025 C 
HETATM   13  C   UNL     1      38.537 -15.866  -3.840  1.00  0.00     0.006 C 
HETATM   14  C   UNL     1      37.355 -15.038  -3.316  1.00  0.00    -0.019 C 
HETATM   15  C   UNL     1      36.872 -14.025  -4.357  1.00  0.00     0.010 C 
HETATM   16  C   UNL     1      37.706 -14.362  -1.984  1.00  0.00     0.006 C 
HETATM   17  C   UNL     1      39.010 -13.564  -2.040  1.00  0.00     0.025 C 
ENDBRANCH   8  11
ENDBRANCH   1   7
BRANCH   5  18
HETATM   18  C   UNL     1      43.121 -18.802   2.494  1.00  0.00    -0.003 A 
HETATM   19  C   UNL     1      43.509 -18.572   3.827  1.00  0.00     0.050 A 
HETATM   20  C   UNL     1      44.265 -19.516   4.524  1.00  0.00     0.069 A 
HETATM   21  C   UNL     1      44.647 -20.697   3.884  1.00  0.00     0.037 A 
HETATM   22  C   UNL     1      44.279 -20.937   2.561  1.00  0.00     0.004 A 
HETATM   23  C   UNL     1      43.518 -19.993   1.868  1.00  0.00     0.014 A 
BRANCH  20  24
HETATM   24  O   UNL     1      44.692 -19.409   5.820  1.00  0.00    -0.356 OA
HETATM   25  C   UNL     1      45.092 -18.116   6.257  1.00  0.00     0.210 C 
ENDBRANCH  20  24
ENDBRANCH   5  18
TORSDOF 4
ENDMDL
MODEL 5
REMARK VINA RESULT:      -7.8      6.197      8.782
REMARK  4 active torsions:
REMARK  status: ('A' for Active; 'I' for Inactive)
REMARK    1  A    between atoms: C_5  and  N_6 
REMARK       I    between atoms: N_6  and  C_7 
REMARK    2  A    between atoms: C_7  and  C_8 
REMARK    3  A    between atoms: C_12  and  C_13 
REMARK    4  A    between atoms: C_15  and  O_16 
ROOT
HETATM    1  C   UNL     1      42.048 -16.739   1.347  1.00  0.00     0.120 A 
HETATM    2  N   UNL     1      43.199 -17.055   0.683  1.00  0.00    -0.272 N 
HETATM    3  H   UNL     1      43.511 -16.675  -0.205  1.00  0.00     0.189 HD
HETATM    4  N   UNL     1      43.971 -17.951   1.315  1.00  0.00    -0.174 NA
HETATM    5  C   UNL     1      43.280 -18.277   2.419  1.00  0.00     0.089 A 
HETATM    6  C   UNL     1      42.069 -17.529   2.478  1.00  0.00     0.071 A 
ENDROOT
BRANCH   1   7
HETATM    7  C   UNL     1      41.116 -15.774   0.827  1.00  0.00     0.270 C 
HETATM    8  N   UNL     1      41.517 -15.149  -0.332  1.00  0.00    -0.351 N 
HETATM    9  H   UNL     1      42.327 -15.514  -0.810  1.00  0.00     0.163 HD
HETATM   10  O   UNL     1      40.043 -15.542   1.374  1.00  0.00    -0.266 OA
BRANCH   8  11
HETATM   11  C   UNL     1      40.658 -14.215  -1.052  1.00  0.00     0.084 C 
HETATM   12  C   UNL     1      41.163 -12.778  -0.876  1.00  0.00     0.025 C 
HETATM   13  C   UNL     1      42.450 -12.498  -1.658  1.00  0.00     0.006 C 
HETATM   14  C   UNL     1      42.351 -12.879  -3.141  1.00  0.00    -0.019 C 
HETATM   15  C   UNL     1      41.494 -11.879  -3.923  1.00  0.00     0.010 C 
HETATM   16  C   UNL     1      41.842 -14.316  -3.307  1.00  0.00     0.006 C 
HETATM   17  C   UNL     1      40.548 -14.588  -2.537  1.00  0.00     0.025 C 
ENDBRANCH   8  11
ENDBRANCH   1   7
BRANCH   5  18
HETATM   18  C   UNL     1      43.777 -19.263   3.382  1.00  0.00    -0.003 A 
HETATM   19  C   UNL     1      43.632 -19.041   4.764  1.00  0.00     0.050 A 
HETATM   20  C   UNL     1      44.089 -19.979   5.691  1.00  0.00     0.069 A 
HETATM   21  C   UNL     1      44.706 -21.147   5.237  1.00  0.00     0.037 A 
HETATM   22  C   UNL     1      44.866 -21.379   3.871  1.00  0.00     0.004 A 
HETATM   23  C   UNL     1      44.403 -20.441   2.947  1.00  0.00     0.014 A 
BRANCH  20  24
HETATM   24  O   UNL     1      43.995 -19.879   7.053  1.00  0.00    -0.356 OA
HETATM   25  C   UNL     1      43.955 -18.565   7.596  1.00  0.00     0.210 C 
ENDBRANCH  20  24
ENDBRANCH   5  18
TORSDOF 4
ENDMDL
MODEL 6
REMARK VINA RESULT:      -7.8      6.094      8.413
REMARK  4 active torsions:
REMARK  status: ('A' for Active; 'I' for Inactive)
REMARK    1  A    between atoms: C_5  and  N_6 
REMARK       I    between atoms: N_6  and  C_7 
REMARK    2  A    between atoms: C_7  and  C_8 
REMARK    3  A    between atoms: C_12  and  C_13 
REMARK    4  A    between atoms: C_15  and  O_16 
ROOT
HETATM    1  C   UNL     1      40.611 -16.003   2.336  1.00  0.00     0.120 A 
HETATM    2  N   UNL     1      40.369 -16.043   3.679  1.00  0.00    -0.272 N 
HETATM    3  H   UNL     1      39.666 -15.514   4.186  1.00  0.00     0.189 HD
HETATM    4  N   UNL     1      41.157 -16.893   4.356  1.00  0.00    -0.174 NA
HETATM    5  C   UNL     1      41.985 -17.400   3.429  1.00  0.00     0.089 A 
HETATM    6  C   UNL     1      41.666 -16.871   2.146  1.00  0.00     0.071 A 
ENDROOT
BRANCH   1   7
HETATM    7  C   UNL     1      39.840 -15.168   1.454  1.00  0.00     0.270 C 
HETATM    8  N   UNL     1      40.549 -14.622   0.407  1.00  0.00    -0.351 N 
HETATM    9  H   UNL     1      41.483 -14.964   0.241  1.00  0.00     0.163 HD
HETATM   10  O   UNL     1      38.641 -14.973   1.623  1.00  0.00    -0.266 OA
BRANCH   8  11
HETATM   11  C   UNL     1      39.910 -13.830  -0.638  1.00  0.00     0.084 C 
HETATM   12  C   UNL     1      40.567 -12.448  -0.739  1.00  0.00     0.025 C 
HETATM   13  C   UNL     1      41.966 -12.495  -1.360  1.00  0.00     0.006 C 
HETATM   14  C   UNL     1      42.005 -13.233  -2.705  1.00  0.00    -0.019 C 
HETATM   15  C   UNL     1      41.385 -12.393  -3.826  1.00  0.00     0.010 C 
HETATM   16  C   UNL     1      41.343 -14.612  -2.595  1.00  0.00     0.006 C 
HETATM   17  C   UNL     1      39.940 -14.559  -1.989  1.00  0.00     0.025 C 
ENDBRANCH   8  11
ENDBRANCH   1   7
BRANCH   5  18
HETATM   18  C   UNL     1      43.032 -18.366   3.771  1.00  0.00    -0.003 A 
HETATM   19  C   UNL     1      43.404 -19.364   2.852  1.00  0.00     0.050 A 
HETATM   20  C   UNL     1      44.411 -20.281   3.160  1.00  0.00     0.069 A 
HETATM   21  C   UNL     1      45.046 -20.209   4.402  1.00  0.00     0.037 A 
HETATM   22  C   UNL     1      44.683 -19.233   5.329  1.00  0.00     0.004 A 
HETATM   23  C   UNL     1      43.680 -18.314   5.014  1.00  0.00     0.014 A 
BRANCH  20  24
HETATM   24  O   UNL     1      44.864 -21.284   2.347  1.00  0.00    -0.356 OA
HETATM   25  C   UNL     1      43.897 -21.932   1.530  1.00  0.00     0.210 C 
ENDBRANCH  20  24
ENDBRANCH   5  18
TORSDOF 4
ENDMDL
MODEL 7
REMARK VINA RESULT:      -7.6      6.262      8.388
REMARK  4 active torsions:
REMARK  status: ('A' for Active; 'I' for Inactive)
REMARK    1  A    between atoms: C_5  and  N_6 
REMARK       I    between atoms: N_6  and  C_7 
REMARK    2  A    between atoms: C_7  and  C_8 
REMARK    3  A    between atoms: C_12  and  C_13 
REMARK    4  A    between atoms: C_15  and  O_16 
ROOT
HETATM    1  C   UNL     1      42.376 -15.288   1.996  1.00  0.00     0.120 A 
HETATM    2  N   UNL     1      41.534 -15.744   2.970  1.00  0.00    -0.272 N 
HETATM    3  H   UNL     1      40.794 -15.219   3.427  1.00  0.00     0.189 HD
HETATM    4  N   UNL     1      41.731 -17.025   3.314  1.00  0.00    -0.174 NA
HETATM    5  C   UNL     1      42.779 -17.419   2.572  1.00  0.00     0.089 A 
HETATM    6  C   UNL     1      43.206 -16.356   1.725  1.00  0.00     0.071 A 
ENDROOT
BRANCH   1   7
HETATM    7  C   UNL     1      42.286 -13.946   1.487  1.00  0.00     0.270 C 
HETATM    8  N   UNL     1      41.717 -13.837   0.238  1.00  0.00    -0.351 N 
HETATM    9  H   UNL     1      41.269 -14.654  -0.150  1.00  0.00     0.163 HD
HETATM   10  O   UNL     1      42.677 -12.977   2.129  1.00  0.00    -0.266 OA
BRANCH   8  11
HETATM   11  C   UNL     1      41.456 -12.547  -0.391  1.00  0.00     0.084 C 
HETATM   12  C   UNL     1      42.652 -12.120  -1.251  1.00  0.00     0.025 C 
HETATM   13  C   UNL     1      42.786 -12.939  -2.538  1.00  0.00     0.006 C 
HETATM   14  C   UNL     1      41.491 -12.984  -3.362  1.00  0.00    -0.019 C 
HETATM   15  C   UNL     1      41.229 -11.652  -4.072  1.00  0.00     0.010 C 
HETATM   16  C   UNL     1      40.301 -13.409  -2.493  1.00  0.00     0.006 C 
HETATM   17  C   UNL     1      40.162 -12.579  -1.216  1.00  0.00     0.025 C 
ENDBRANCH   8  11
ENDBRANCH   1   7
BRANCH   5  18
HETATM   18  C   UNL     1      43.334 -18.771   2.671  1.00  0.00    -0.003 A 
HETATM   19  C   UNL     1      44.054 -19.160   3.815  1.00  0.00     0.050 A 
HETATM   20  C   UNL     1      44.576 -20.450   3.927  1.00  0.00     0.069 A 
HETATM   21  C   UNL     1      44.385 -21.360   2.884  1.00  0.00     0.037 A 
HETATM   22  C   UNL     1      43.681 -20.988   1.740  1.00  0.00     0.004 A 
HETATM   23  C   UNL     1      43.157 -19.699   1.633  1.00  0.00     0.014 A 
BRANCH  20  24
HETATM   24  O   UNL     1      45.281 -20.945   4.991  1.00  0.00    -0.356 OA
HETATM   25  C   UNL     1      45.157 -22.338   5.250  1.00  0.00     0.210 C 
ENDBRANCH  20  24
ENDBRANCH   5  18
TORSDOF 4
ENDMDL
MODEL 8
REMARK VINA RESULT:      -7.6      2.889      9.339
REMARK  4 active torsions:
REMARK  status: ('A' for Active; 'I' for Inactive)
REMARK    1  A    between atoms: C_5  and  N_6 
REMARK       I    between atoms: N_6  and  C_7 
REMARK    2  A    between atoms: C_7  and  C_8 
REMARK    3  A    between atoms: C_12  and  C_13 
REMARK    4  A    between atoms: C_15  and  O_16 
ROOT
HETATM    1  C   UNL     1      44.778 -12.397   8.846  1.00  0.00     0.120 A 
HETATM    2  N   UNL     1      45.767 -12.147   9.754  1.00  0.00    -0.272 N 
HETATM    3  H   UNL     1      46.708 -12.530   9.746  1.00  0.00     0.189 HD
HETATM    4  N   UNL     1      45.421 -11.291  10.727  1.00  0.00    -0.174 NA
HETATM    5  C   UNL     1      44.133 -11.000  10.479  1.00  0.00     0.089 A 
HETATM    6  C   UNL     1      43.697 -11.670   9.301  1.00  0.00     0.071 A 
ENDROOT
BRANCH   1   7
HETATM    7  C   UNL     1      44.986 -13.269   7.722  1.00  0.00     0.270 C 
HETATM    8  N   UNL     1      43.911 -14.067   7.401  1.00  0.00    -0.351 N 
HETATM    9  H   UNL     1      43.029 -13.876   7.853  1.00  0.00     0.163 HD
HETATM   10  O   UNL     1      46.040 -13.284   7.095  1.00  0.00    -0.266 OA
BRANCH   8  11
HETATM   11  C   UNL     1      43.909 -14.941   6.233  1.00  0.00     0.084 C 
HETATM   12  C   UNL     1      44.053 -16.406   6.661  1.00  0.00     0.025 C 
HETATM   13  C   UNL     1      42.787 -16.963   7.320  1.00  0.00     0.006 C 
HETATM   14  C   UNL     1      41.522 -16.747   6.477  1.00  0.00    -0.019 C 
HETATM   15  C   UNL     1      41.479 -17.693   5.274  1.00  0.00     0.010 C 
HETATM   16  C   UNL     1      41.389 -15.279   6.052  1.00  0.00     0.006 C 
HETATM   17  C   UNL     1      42.650 -14.731   5.380  1.00  0.00     0.025 C 
ENDBRANCH   8  11
ENDBRANCH   1   7
BRANCH   5  18
HETATM   18  C   UNL     1      43.363 -10.101  11.343  1.00  0.00    -0.003 A 
HETATM   19  C   UNL     1      42.260  -9.394  10.828  1.00  0.00     0.050 A 
HETATM   20  C   UNL     1      41.510  -8.546  11.644  1.00  0.00     0.069 A 
HETATM   21  C   UNL     1      41.867  -8.393  12.985  1.00  0.00     0.037 A 
HETATM   22  C   UNL     1      42.962  -9.078  13.510  1.00  0.00     0.004 A 
HETATM   23  C   UNL     1      43.707  -9.930  12.692  1.00  0.00     0.014 A 
BRANCH  20  24
HETATM   24  O   UNL     1      40.416  -7.818  11.260  1.00  0.00    -0.356 OA
HETATM   25  C   UNL     1      39.530  -7.402  12.292  1.00  0.00     0.210 C 
ENDBRANCH  20  24
ENDBRANCH   5  18
TORSDOF 4
ENDMDL
MODEL 9
REMARK VINA RESULT:      -7.4      6.398      8.386
REMARK  4 active torsions:
REMARK  status: ('A' for Active; 'I' for Inactive)
REMARK    1  A    between atoms: C_5  and  N_6 
REMARK       I    between atoms: N_6  and  C_7 
REMARK    2  A    between atoms: C_7  and  C_8 
REMARK    3  A    between atoms: C_12  and  C_13 
REMARK    4  A    between atoms: C_15  and  O_16 
ROOT
HETATM    1  C   UNL     1      41.591 -16.327   0.219  1.00  0.00     0.120 A 
HETATM    2  N   UNL     1      40.647 -16.579   1.174  1.00  0.00    -0.272 N 
HETATM    3  H   UNL     1      39.707 -16.197   1.214  1.00  0.00     0.189 HD
HETATM    4  N   UNL     1      41.041 -17.438   2.126  1.00  0.00    -0.174 NA
HETATM    5  C   UNL     1      42.315 -17.728   1.814  1.00  0.00     0.089 A 
HETATM    6  C   UNL     1      42.693 -17.055   0.618  1.00  0.00     0.071 A 
ENDROOT
BRANCH   1   7
HETATM    7  C   UNL     1      41.327 -15.451  -0.891  1.00  0.00     0.270 C 
HETATM    8  N   UNL     1      41.782 -14.162  -0.732  1.00  0.00    -0.351 N 
HETATM    9  H   UNL     1      42.391 -13.968   0.049  1.00  0.00     0.163 HD
HETATM   10  O   UNL     1      40.751 -15.836  -1.903  1.00  0.00    -0.266 OA
BRANCH   8  11
HETATM   11  C   UNL     1      41.690 -13.165  -1.794  1.00  0.00     0.084 C 
HETATM   12  C   UNL     1      40.317 -12.482  -1.768  1.00  0.00     0.025 C 
HETATM   13  C   UNL     1      40.150 -11.521  -0.587  1.00  0.00     0.006 C 
HETATM   14  C   UNL     1      41.288 -10.497  -0.476  1.00  0.00    -0.019 C 
HETATM   15  C   UNL     1      41.177  -9.414  -1.553  1.00  0.00     0.010 C 
HETATM   16  C   UNL     1      42.657 -11.190  -0.506  1.00  0.00     0.006 C 
HETATM   17  C   UNL     1      42.825 -12.137  -1.696  1.00  0.00     0.025 C 
ENDBRANCH   8  11
ENDBRANCH   1   7
BRANCH   5  18
HETATM   18  C   UNL     1      43.127 -18.630   2.636  1.00  0.00    -0.003 A 
HETATM   19  C   UNL     1      43.313 -18.367   4.006  1.00  0.00     0.050 A 
HETATM   20  C   UNL     1      44.072 -19.226   4.802  1.00  0.00     0.069 A 
HETATM   21  C   UNL     1      44.661 -20.354   4.225  1.00  0.00     0.037 A 
HETATM   22  C   UNL     1      44.495 -20.624   2.868  1.00  0.00     0.004 A 
HETATM   23  C   UNL     1      43.731 -19.766   2.076  1.00  0.00     0.014 A 
BRANCH  20  24
HETATM   24  O   UNL     1      44.314 -19.081   6.142  1.00  0.00    -0.356 OA
HETATM   25  C   UNL     1      45.141 -17.991   6.529  1.00  0.00     0.210 C 
ENDBRANCH  20  24
ENDBRANCH   5  18
TORSDOF 4
ENDMDL
MODEL 10
REMARK VINA RESULT:      -7.3      2.530      3.289
REMARK  4 active torsions:
REMARK  status: ('A' for Active; 'I' for Inactive)
REMARK    1  A    between atoms: C_5  and  N_6 
REMARK       I    between atoms: N_6  and  C_7 
REMARK    2  A    between atoms: C_7  and  C_8 
REMARK    3  A    between atoms: C_12  and  C_13 
REMARK    4  A    between atoms: C_15  and  O_16 
ROOT
HETATM    1  C   UNL     1      42.538 -14.131   5.460  1.00  0.00     0.120 A 
HETATM    2  N   UNL     1      42.982 -14.725   6.607  1.00  0.00    -0.272 N 
HETATM    3  H   UNL     1      43.011 -14.309   7.534  1.00  0.00     0.189 HD
HETATM    4  N   UNL     1      43.398 -15.990   6.449  1.00  0.00    -0.174 NA
HETATM    5  C   UNL     1      43.268 -16.228   5.133  1.00  0.00     0.089 A 
HETATM    6  C   UNL     1      42.723 -15.086   4.481  1.00  0.00     0.071 A 
ENDROOT
BRANCH   1   7
HETATM    7  C   UNL     1      42.030 -12.786   5.453  1.00  0.00     0.270 C 
HETATM    8  N   UNL     1      41.582 -12.330   6.672  1.00  0.00    -0.351 N 
HETATM    9  H   UNL     1      41.786 -12.887   7.489  1.00  0.00     0.163 HD
HETATM   10  O   UNL     1      42.013 -12.100   4.436  1.00  0.00    -0.266 OA
BRANCH   8  11
HETATM   11  C   UNL     1      41.126 -10.959   6.873  1.00  0.00     0.084 C 
HETATM   12  C   UNL     1      39.626 -10.936   7.190  1.00  0.00     0.025 C 
HETATM   13  C   UNL     1      39.305 -11.453   8.596  1.00  0.00     0.006 C 
HETATM   14  C   UNL     1      40.121 -10.760   9.696  1.00  0.00    -0.019 C 
HETATM   15  C   UNL     1      39.621  -9.336   9.955  1.00  0.00     0.010 C 
HETATM   16  C   UNL     1      41.619 -10.785   9.367  1.00  0.00     0.006 C 
HETATM   17  C   UNL     1      41.937 -10.254   7.968  1.00  0.00     0.025 C 
ENDBRANCH   8  11
ENDBRANCH   1   7
BRANCH   5  18
HETATM   18  C   UNL     1      43.646 -17.512   4.537  1.00  0.00    -0.003 A 
HETATM   19  C   UNL     1      44.025 -18.591   5.357  1.00  0.00     0.050 A 
HETATM   20  C   UNL     1      44.373 -19.823   4.801  1.00  0.00     0.069 A 
HETATM   21  C   UNL     1      44.352 -19.980   3.414  1.00  0.00     0.037 A 
HETATM   22  C   UNL     1      43.989 -18.919   2.586  1.00  0.00     0.004 A 
HETATM   23  C   UNL     1      43.636 -17.689   3.145  1.00  0.00     0.014 A 
BRANCH  20  24
HETATM   24  O   UNL     1      44.746 -20.943   5.494  1.00  0.00    -0.356 OA
HETATM   25  C   UNL     1      44.854 -22.150   4.750  1.00  0.00     0.210 C 
ENDBRANCH  20  24
ENDBRANCH   5  18
TORSDOF 4
ENDMDL
