MODEL 1
REMARK VINA RESULT:      -8.2      0.000      0.000
REMARK  4 active torsions:
REMARK  status: ('A' for Active; 'I' for Inactive)
REMARK    1  A    between atoms: C_5  and  C_6 
REMARK    2  A    between atoms: C_16  and  C_17 
REMARK       I    between atoms: C_17  and  N_18 
REMARK    3  A    between atoms: N_18  and  C_19 
REMARK    4  A    between atoms: C_20  and  O_21 
ROOT
HETATM    1  C   UNL     1      41.698 -13.923  -0.000  1.00  0.00     0.202 C 
HETATM    2  N   UNL     1      42.047 -12.506  -0.144  1.00  0.00    -0.083 N 
HETATM    3  C   UNL     1      41.613 -11.526   0.708  1.00  0.00     0.726 A 
HETATM    4  N   UNL     1      42.105 -10.373   0.335  1.00  0.00    -0.046 NA
HETATM    5  C   UNL     1      42.891 -10.711  -0.745  1.00  0.00     0.162 A 
HETATM    6  C   UNL     1      43.703  -9.716  -1.472  1.00  0.00     0.096 C 
HETATM    7  N   UNL     1      42.898 -12.013  -1.067  1.00  0.00    -0.141 NA
HETATM    8  N   UNL     1      40.851 -11.864   1.771  1.00  0.00    -0.192 N 
HETATM    9  C   UNL     1      40.730 -13.185   2.203  1.00  0.00     0.037 C 
HETATM   10  C   UNL     1      40.251 -13.367   3.622  1.00  0.00     0.070 C 
HETATM   11  C   UNL     1      41.129 -14.194   1.386  1.00  0.00     0.062 C 
HETATM   12  H   UNL     1      40.671 -11.137   2.460  1.00  0.00     0.184 HD
ENDROOT
BRANCH  11  13
HETATM   13  C   UNL     1      41.242 -15.605   1.830  1.00  0.00     0.256 C 
HETATM   14  N   UNL     1      42.479 -15.945   2.314  1.00  0.00    -0.321 N 
HETATM   15  H   UNL     1      43.156 -15.207   2.487  1.00  0.00     0.169 HD
HETATM   16  O   UNL     1      40.253 -16.323   1.752  1.00  0.00    -0.267 OA
BRANCH  14  17
HETATM   17  C   UNL     1      42.968 -17.246   2.584  1.00  0.00     0.068 A 
HETATM   18  C   UNL     1      43.073 -17.630   3.937  1.00  0.00     0.095 A 
HETATM   19  C   UNL     1      43.610 -18.880   4.263  1.00  0.00     0.039 A 
HETATM   20  C   UNL     1      44.034 -19.748   3.255  1.00  0.00     0.003 A 
HETATM   21  C   UNL     1      43.921 -19.374   1.920  1.00  0.00     0.002 A 
HETATM   22  C   UNL     1      43.390 -18.127   1.584  1.00  0.00     0.032 A 
BRANCH  18  23
HETATM   23  O   UNL     1      42.646 -16.698   4.856  1.00  0.00    -0.354 OA
HETATM   24  C   UNL     1      41.433 -16.992   5.539  1.00  0.00     0.210 C 
ENDBRANCH  18  23
ENDBRANCH  14  17
ENDBRANCH  11  13
BRANCH   1  25
HETATM   25  C   UNL     1      40.728 -14.336  -1.107  1.00  0.00    -0.028 A 
HETATM   26  C   UNL     1      41.122 -15.282  -2.065  1.00  0.00     0.010 A 
HETATM   27  C   UNL     1      40.259 -15.649  -3.103  1.00  0.00     0.007 A 
HETATM   28  C   UNL     1      38.986 -15.080  -3.205  1.00  0.00    -0.062 A 
HETATM   29  C   UNL     1      38.057 -15.455  -4.322  1.00  0.00     0.048 C 
HETATM   30  C   UNL     1      38.574 -14.161  -2.235  1.00  0.00     0.007 A 
HETATM   31  C   UNL     1      39.433 -13.794  -1.196  1.00  0.00     0.010 A 
ENDBRANCH   1  25
TORSDOF 4
ENDMDL
MODEL 2
REMARK VINA RESULT:      -8.2      2.804      4.218
REMARK  4 active torsions:
REMARK  status: ('A' for Active; 'I' for Inactive)
REMARK    1  A    between atoms: C_5  and  C_6 
REMARK    2  A    between atoms: C_16  and  C_17 
REMARK       I    between atoms: C_17  and  N_18 
REMARK    3  A    between atoms: N_18  and  C_19 
REMARK    4  A    between atoms: C_20  and  O_21 
ROOT
HETATM    1  C   UNL     1      41.340 -13.929   3.865  1.00  0.00     0.202 C 
HETATM    2  N   UNL     1      40.755 -12.975   4.814  1.00  0.00    -0.083 N 
HETATM    3  C   UNL     1      40.097 -13.346   5.955  1.00  0.00     0.726 A 
HETATM    4  N   UNL     1      39.709 -12.277   6.602  1.00  0.00    -0.046 NA
HETATM    5  C   UNL     1      40.207 -11.253   5.827  1.00  0.00     0.162 A 
HETATM    6  C   UNL     1      40.057  -9.834   6.204  1.00  0.00     0.096 C 
HETATM    7  N   UNL     1      40.870 -11.634   4.725  1.00  0.00    -0.141 NA
HETATM    8  N   UNL     1      40.001 -14.656   6.267  1.00  0.00    -0.192 N 
HETATM    9  C   UNL     1      40.787 -15.624   5.641  1.00  0.00     0.037 C 
HETATM   10  C   UNL     1      40.919 -16.935   6.377  1.00  0.00     0.070 C 
HETATM   11  C   UNL     1      41.445 -15.311   4.496  1.00  0.00     0.062 C 
HETATM   12  H   UNL     1      39.638 -14.886   7.189  1.00  0.00     0.184 HD
ENDROOT
BRANCH  11  13
HETATM   13  C   UNL     1      42.466 -16.191   3.876  1.00  0.00     0.256 C 
HETATM   14  N   UNL     1      42.075 -17.499   3.743  1.00  0.00    -0.321 N 
HETATM   15  H   UNL     1      41.102 -17.737   3.913  1.00  0.00     0.169 HD
HETATM   16  O   UNL     1      43.530 -15.696   3.524  1.00  0.00    -0.267 OA
BRANCH  14  17
HETATM   17  C   UNL     1      42.890 -18.610   3.420  1.00  0.00     0.068 A 
HETATM   18  C   UNL     1      43.789 -19.062   4.409  1.00  0.00     0.095 A 
HETATM   19  C   UNL     1      44.663 -20.116   4.122  1.00  0.00     0.039 A 
HETATM   20  C   UNL     1      44.642 -20.725   2.865  1.00  0.00     0.003 A 
HETATM   21  C   UNL     1      43.749 -20.286   1.894  1.00  0.00     0.002 A 
HETATM   22  C   UNL     1      42.875 -19.233   2.168  1.00  0.00     0.032 A 
BRANCH  18  23
HETATM   23  O   UNL     1      43.745 -18.387   5.607  1.00  0.00    -0.354 OA
HETATM   24  C   UNL     1      44.996 -18.127   6.234  1.00  0.00     0.210 C 
ENDBRANCH  18  23
ENDBRANCH  14  17
ENDBRANCH  11  13
BRANCH   1  25
HETATM   25  C   UNL     1      40.522 -13.950   2.574  1.00  0.00    -0.028 A 
HETATM   26  C   UNL     1      41.096 -13.504   1.375  1.00  0.00     0.010 A 
HETATM   27  C   UNL     1      40.353 -13.487   0.190  1.00  0.00     0.007 A 
HETATM   28  C   UNL     1      39.022 -13.914   0.179  1.00  0.00    -0.062 A 
HETATM   29  C   UNL     1      38.210 -13.887  -1.082  1.00  0.00     0.048 C 
HETATM   30  C   UNL     1      38.453 -14.391   1.364  1.00  0.00     0.007 A 
HETATM   31  C   UNL     1      39.194 -14.411   2.548  1.00  0.00     0.010 A 
ENDBRANCH   1  25
TORSDOF 4
ENDMDL
MODEL 3
REMARK VINA RESULT:      -8.1      2.754      4.449
REMARK  4 active torsions:
REMARK  status: ('A' for Active; 'I' for Inactive)
REMARK    1  A    between atoms: C_5  and  C_6 
REMARK    2  A    between atoms: C_16  and  C_17 
REMARK       I    between atoms: C_17  and  N_18 
REMARK    3  A    between atoms: N_18  and  C_19 
REMARK    4  A    between atoms: C_20  and  O_21 
ROOT
HETATM    1  C   UNL     1      41.201 -13.626   4.044  1.00  0.00     0.202 C 
HETATM    2  N   UNL     1      40.506 -12.679   4.920  1.00  0.00    -0.083 N 
HETATM    3  C   UNL     1      39.792 -13.050   6.028  1.00  0.00     0.726 A 
HETATM    4  N   UNL     1      39.308 -11.985   6.614  1.00  0.00    -0.046 NA
HETATM    5  C   UNL     1      39.804 -10.959   5.840  1.00  0.00     0.162 A 
HETATM    6  C   UNL     1      39.558  -9.539   6.161  1.00  0.00     0.096 C 
HETATM    7  N   UNL     1      40.558 -11.337   4.797  1.00  0.00    -0.141 NA
HETATM    8  N   UNL     1      39.743 -14.355   6.375  1.00  0.00    -0.192 N 
HETATM    9  C   UNL     1      40.617 -15.297   5.833  1.00  0.00     0.037 C 
HETATM   10  C   UNL     1      40.766 -16.577   6.618  1.00  0.00     0.070 C 
HETATM   11  C   UNL     1      41.333 -14.983   4.724  1.00  0.00     0.062 C 
HETATM   12  H   UNL     1      39.330 -14.577   7.279  1.00  0.00     0.184 HD
ENDROOT
BRANCH  11  13
HETATM   13  C   UNL     1      42.437 -15.826   4.200  1.00  0.00     0.256 C 
HETATM   14  N   UNL     1      42.050 -17.086   3.823  1.00  0.00    -0.321 N 
HETATM   15  H   UNL     1      41.058 -17.298   3.771  1.00  0.00     0.169 HD
HETATM   16  O   UNL     1      43.559 -15.341   4.128  1.00  0.00    -0.267 OA
BRANCH  14  17
HETATM   17  C   UNL     1      42.888 -18.186   3.519  1.00  0.00     0.068 A 
HETATM   18  C   UNL     1      42.805 -18.720   2.216  1.00  0.00     0.095 A 
HETATM   19  C   UNL     1      43.564 -19.847   1.879  1.00  0.00     0.039 A 
HETATM   20  C   UNL     1      44.405 -20.437   2.825  1.00  0.00     0.003 A 
HETATM   21  C   UNL     1      44.494 -19.903   4.107  1.00  0.00     0.002 A 
HETATM   22  C   UNL     1      43.739 -18.782   4.454  1.00  0.00     0.032 A 
BRANCH  18  23
HETATM   23  O   UNL     1      41.935 -18.080   1.363  1.00  0.00    -0.354 OA
HETATM   24  C   UNL     1      42.455 -16.965   0.648  1.00  0.00     0.210 C 
ENDBRANCH  18  23
ENDBRANCH  14  17
ENDBRANCH  11  13
BRANCH   1  25
HETATM   25  C   UNL     1      40.473 -13.728   2.704  1.00  0.00    -0.028 A 
HETATM   26  C   UNL     1      41.073 -13.223   1.541  1.00  0.00     0.010 A 
HETATM   27  C   UNL     1      40.409 -13.279   0.311  1.00  0.00     0.007 A 
HETATM   28  C   UNL     1      39.131 -13.840   0.218  1.00  0.00    -0.062 A 
HETATM   29  C   UNL     1      38.403 -13.893  -1.093  1.00  0.00     0.048 C 
HETATM   30  C   UNL     1      38.540 -14.375   1.366  1.00  0.00     0.007 A 
HETATM   31  C   UNL     1      39.202 -14.322   2.595  1.00  0.00     0.010 A 
ENDBRANCH   1  25
TORSDOF 4
ENDMDL
MODEL 4
REMARK VINA RESULT:      -7.9      3.317      6.092
REMARK  4 active torsions:
REMARK  status: ('A' for Active; 'I' for Inactive)
REMARK    1  A    between atoms: C_5  and  C_6 
REMARK    2  A    between atoms: C_16  and  C_17 
REMARK       I    between atoms: C_17  and  N_18 
REMARK    3  A    between atoms: N_18  and  C_19 
REMARK    4  A    between atoms: C_20  and  O_21 
ROOT
HETATM    1  C   UNL     1      41.574 -15.633   4.033  1.00  0.00     0.202 C 
HETATM    2  N   UNL     1      40.955 -14.563   3.245  1.00  0.00    -0.083 N 
HETATM    3  C   UNL     1      41.272 -14.299   1.940  1.00  0.00     0.726 A 
HETATM    4  N   UNL     1      40.542 -13.305   1.505  1.00  0.00    -0.046 NA
HETATM    5  C   UNL     1      39.740 -13.018   2.588  1.00  0.00     0.162 A 
HETATM    6  C   UNL     1      38.694 -11.977   2.541  1.00  0.00     0.096 C 
HETATM    7  N   UNL     1      39.948 -13.775   3.675  1.00  0.00    -0.141 NA
HETATM    8  N   UNL     1      42.176 -15.080   1.309  1.00  0.00    -0.192 N 
HETATM    9  C   UNL     1      42.580 -16.310   1.828  1.00  0.00     0.037 C 
HETATM   10  C   UNL     1      43.209 -17.261   0.840  1.00  0.00     0.070 C 
HETATM   11  C   UNL     1      42.305 -16.611   3.123  1.00  0.00     0.062 C 
HETATM   12  H   UNL     1      42.278 -14.949   0.305  1.00  0.00     0.184 HD
ENDROOT
BRANCH  11  13
HETATM   13  C   UNL     1      42.498 -17.962   3.705  1.00  0.00     0.256 C 
HETATM   14  N   UNL     1      43.687 -18.556   3.364  1.00  0.00    -0.321 N 
HETATM   15  H   UNL     1      44.396 -17.997   2.898  1.00  0.00     0.169 HD
HETATM   16  O   UNL     1      41.625 -18.416   4.433  1.00  0.00    -0.267 OA
BRANCH  14  17
HETATM   17  C   UNL     1      44.056 -19.909   3.554  1.00  0.00     0.068 A 
HETATM   18  C   UNL     1      44.569 -20.268   4.818  1.00  0.00     0.095 A 
HETATM   19  C   UNL     1      45.009 -21.577   5.041  1.00  0.00     0.039 A 
HETATM   20  C   UNL     1      44.935 -22.528   4.021  1.00  0.00     0.003 A 
HETATM   21  C   UNL     1      44.420 -22.177   2.778  1.00  0.00     0.002 A 
HETATM   22  C   UNL     1      43.981 -20.873   2.543  1.00  0.00     0.032 A 
BRANCH  18  23
HETATM   23  O   UNL     1      44.618 -19.257   5.750  1.00  0.00    -0.354 OA
HETATM   24  C   UNL     1      43.848 -19.447   6.932  1.00  0.00     0.210 C 
ENDBRANCH  18  23
ENDBRANCH  14  17
ENDBRANCH  11  13
BRANCH   1  25
HETATM   25  C   UNL     1      42.501 -15.034   5.090  1.00  0.00    -0.028 A 
HETATM   26  C   UNL     1      42.453 -13.659   5.365  1.00  0.00     0.010 A 
HETATM   27  C   UNL     1      43.316 -13.088   6.306  1.00  0.00     0.007 A 
HETATM   28  C   UNL     1      44.245 -13.878   6.991  1.00  0.00    -0.062 A 
HETATM   29  C   UNL     1      45.185 -13.274   7.993  1.00  0.00     0.048 C 
HETATM   30  C   UNL     1      44.277 -15.253   6.747  1.00  0.00     0.007 A 
HETATM   31  C   UNL     1      43.414 -15.827   5.808  1.00  0.00     0.010 A 
ENDBRANCH   1  25
TORSDOF 4
ENDMDL
MODEL 5
REMARK VINA RESULT:      -7.9      2.766      5.621
REMARK  4 active torsions:
REMARK  status: ('A' for Active; 'I' for Inactive)
REMARK    1  A    between atoms: C_5  and  C_6 
REMARK    2  A    between atoms: C_16  and  C_17 
REMARK       I    between atoms: C_17  and  N_18 
REMARK    3  A    between atoms: N_18  and  C_19 
REMARK    4  A    between atoms: C_20  and  O_21 
ROOT
HETATM    1  C   UNL     1      40.797 -15.789   2.871  1.00  0.00     0.202 C 
HETATM    2  N   UNL     1      40.404 -15.208   1.583  1.00  0.00    -0.083 N 
HETATM    3  C   UNL     1      41.215 -15.185   0.481  1.00  0.00     0.726 A 
HETATM    4  N   UNL     1      40.581 -14.624  -0.516  1.00  0.00    -0.046 NA
HETATM    5  C   UNL     1      39.340 -14.358   0.021  1.00  0.00     0.162 A 
HETATM    6  C   UNL     1      38.248 -13.762  -0.773  1.00  0.00     0.096 C 
HETATM    7  N   UNL     1      39.181 -14.714   1.304  1.00  0.00    -0.141 NA
HETATM    8  N   UNL     1      42.437 -15.758   0.547  1.00  0.00    -0.192 N 
HETATM    9  C   UNL     1      42.793 -16.621   1.584  1.00  0.00     0.037 C 
HETATM   10  C   UNL     1      43.968 -17.526   1.306  1.00  0.00     0.070 C 
HETATM   11  C   UNL     1      42.031 -16.666   2.706  1.00  0.00     0.062 C 
HETATM   12  H   UNL     1      42.950 -15.852  -0.326  1.00  0.00     0.184 HD
ENDROOT
BRANCH  11  13
HETATM   13  C   UNL     1      42.199 -17.693   3.764  1.00  0.00     0.256 C 
HETATM   14  N   UNL     1      43.461 -18.223   3.838  1.00  0.00    -0.321 N 
HETATM   15  H   UNL     1      44.207 -17.784   3.305  1.00  0.00     0.169 HD
HETATM   16  O   UNL     1      41.239 -17.961   4.476  1.00  0.00    -0.267 OA
BRANCH  14  17
HETATM   17  C   UNL     1      43.871 -19.368   4.561  1.00  0.00     0.068 A 
HETATM   18  C   UNL     1      44.366 -20.460   3.818  1.00  0.00     0.095 A 
HETATM   19  C   UNL     1      44.725 -21.641   4.476  1.00  0.00     0.039 A 
HETATM   20  C   UNL     1      44.602 -21.739   5.864  1.00  0.00     0.003 A 
HETATM   21  C   UNL     1      44.122 -20.659   6.598  1.00  0.00     0.002 A 
HETATM   22  C   UNL     1      43.758 -19.477   5.951  1.00  0.00     0.032 A 
BRANCH  18  23
HETATM   23  O   UNL     1      44.434 -20.272   2.456  1.00  0.00    -0.354 OA
HETATM   24  C   UNL     1      43.852 -21.288   1.647  1.00  0.00     0.210 C 
ENDBRANCH  18  23
ENDBRANCH  14  17
ENDBRANCH  11  13
BRANCH   1  25
HETATM   25  C   UNL     1      41.018 -14.679   3.898  1.00  0.00    -0.028 A 
HETATM   26  C   UNL     1      40.068 -14.457   4.906  1.00  0.00     0.010 A 
HETATM   27  C   UNL     1      40.238 -13.426   5.835  1.00  0.00     0.007 A 
HETATM   28  C   UNL     1      41.361 -12.595   5.777  1.00  0.00    -0.062 A 
HETATM   29  C   UNL     1      41.548 -11.477   6.760  1.00  0.00     0.048 C 
HETATM   30  C   UNL     1      42.329 -12.829   4.797  1.00  0.00     0.007 A 
HETATM   31  C   UNL     1      42.162 -13.861   3.868  1.00  0.00     0.010 A 
ENDBRANCH   1  25
TORSDOF 4
ENDMDL
MODEL 6
REMARK VINA RESULT:      -7.7      1.273      2.073
REMARK  4 active torsions:
REMARK  status: ('A' for Active; 'I' for Inactive)
REMARK    1  A    between atoms: C_5  and  C_6 
REMARK    2  A    between atoms: C_16  and  C_17 
REMARK       I    between atoms: C_17  and  N_18 
REMARK    3  A    between atoms: N_18  and  C_19 
REMARK    4  A    between atoms: C_20  and  O_21 
ROOT
HETATM    1  C   UNL     1      41.281 -13.266   0.422  1.00  0.00     0.202 C 
HETATM    2  N   UNL     1      41.751 -11.931   0.041  1.00  0.00    -0.083 N 
HETATM    3  C   UNL     1      41.150 -10.769   0.444  1.00  0.00     0.726 A 
HETATM    4  N   UNL     1      41.807  -9.746  -0.039  1.00  0.00    -0.046 NA
HETATM    5  C   UNL     1      42.856 -10.344  -0.705  1.00  0.00     0.162 A 
HETATM    6  C   UNL     1      43.913  -9.561  -1.374  1.00  0.00     0.096 C 
HETATM    7  N   UNL     1      42.870 -11.684  -0.670  1.00  0.00    -0.141 NA
HETATM    8  N   UNL     1      40.085 -10.829   1.272  1.00  0.00    -0.192 N 
HETATM    9  C   UNL     1      39.751 -11.994   1.964  1.00  0.00     0.037 C 
HETATM   10  C   UNL     1      38.860 -11.807   3.167  1.00  0.00     0.070 C 
HETATM   11  C   UNL     1      40.307 -13.175   1.590  1.00  0.00     0.062 C 
HETATM   12  H   UNL     1      39.756  -9.951   1.667  1.00  0.00     0.184 HD
ENDROOT
BRANCH  11  13
HETATM   13  C   UNL     1      40.187 -14.421   2.387  1.00  0.00     0.256 C 
HETATM   14  N   UNL     1      41.249 -14.658   3.222  1.00  0.00    -0.321 N 
HETATM   15  H   UNL     1      41.935 -13.923   3.361  1.00  0.00     0.169 HD
HETATM   16  O   UNL     1      39.178 -15.102   2.258  1.00  0.00    -0.267 OA
BRANCH  14  17
HETATM   17  C   UNL     1      41.543 -15.855   3.917  1.00  0.00     0.068 A 
HETATM   18  C   UNL     1      42.304 -16.828   3.237  1.00  0.00     0.095 A 
HETATM   19  C   UNL     1      42.570 -18.056   3.852  1.00  0.00     0.039 A 
HETATM   20  C   UNL     1      42.090 -18.317   5.138  1.00  0.00     0.003 A 
HETATM   21  C   UNL     1      41.348 -17.354   5.813  1.00  0.00     0.002 A 
HETATM   22  C   UNL     1      41.074 -16.127   5.206  1.00  0.00     0.032 A 
BRANCH  18  23
HETATM   23  O   UNL     1      42.716 -16.484   1.969  1.00  0.00    -0.354 OA
HETATM   24  C   UNL     1      43.924 -17.079   1.512  1.00  0.00     0.210 C 
ENDBRANCH  18  23
ENDBRANCH  14  17
ENDBRANCH  11  13
BRANCH   1  25
HETATM   25  C   UNL     1      40.660 -13.966  -0.786  1.00  0.00    -0.028 A 
HETATM   26  C   UNL     1      41.330 -15.036  -1.396  1.00  0.00     0.010 A 
HETATM   27  C   UNL     1      40.793 -15.669  -2.521  1.00  0.00     0.007 A 
HETATM   28  C   UNL     1      39.574 -15.245  -3.061  1.00  0.00    -0.062 A 
HETATM   29  C   UNL     1      38.994 -15.906  -4.277  1.00  0.00     0.048 C 
HETATM   30  C   UNL     1      38.884 -14.200  -2.440  1.00  0.00     0.007 A 
HETATM   31  C   UNL     1      39.418 -13.568  -1.314  1.00  0.00     0.010 A 
ENDBRANCH   1  25
TORSDOF 4
ENDMDL
MODEL 7
REMARK VINA RESULT:      -7.4      2.659      5.140
REMARK  4 active torsions:
REMARK  status: ('A' for Active; 'I' for Inactive)
REMARK    1  A    between atoms: C_5  and  C_6 
REMARK    2  A    between atoms: C_16  and  C_17 
REMARK       I    between atoms: C_17  and  N_18 
REMARK    3  A    between atoms: N_18  and  C_19 
REMARK    4  A    between atoms: C_20  and  O_21 
ROOT
HETATM    1  C   UNL     1      40.494 -15.540   2.538  1.00  0.00     0.202 C 
HETATM    2  N   UNL     1      40.108 -14.903   1.275  1.00  0.00    -0.083 N 
HETATM    3  C   UNL     1      40.910 -14.867   0.166  1.00  0.00     0.726 A 
HETATM    4  N   UNL     1      40.286 -14.251  -0.804  1.00  0.00    -0.046 NA
HETATM    5  C   UNL     1      39.059 -13.964  -0.245  1.00  0.00     0.162 A 
HETATM    6  C   UNL     1      37.980 -13.306  -1.007  1.00  0.00     0.096 C 
HETATM    7  N   UNL     1      38.899 -14.359   1.026  1.00  0.00    -0.141 NA
HETATM    8  N   UNL     1      42.113 -15.481   0.200  1.00  0.00    -0.192 N 
HETATM    9  C   UNL     1      42.450 -16.390   1.202  1.00  0.00     0.037 C 
HETATM   10  C   UNL     1      43.592 -17.322   0.881  1.00  0.00     0.070 C 
HETATM   11  C   UNL     1      41.697 -16.451   2.330  1.00  0.00     0.062 C 
HETATM   12  H   UNL     1      42.615 -15.561  -0.682  1.00  0.00     0.184 HD
ENDROOT
BRANCH  11  13
HETATM   13  C   UNL     1      41.841 -17.519   3.350  1.00  0.00     0.256 C 
HETATM   14  N   UNL     1      43.141 -17.837   3.651  1.00  0.00    -0.321 N 
HETATM   15  H   UNL     1      43.884 -17.238   3.301  1.00  0.00     0.169 HD
HETATM   16  O   UNL     1      40.827 -18.000   3.840  1.00  0.00    -0.267 OA
BRANCH  14  17
HETATM   17  C   UNL     1      43.603 -18.954   4.387  1.00  0.00     0.068 A 
HETATM   18  C   UNL     1      43.496 -18.891   5.792  1.00  0.00     0.095 A 
HETATM   19  C   UNL     1      43.996 -19.940   6.573  1.00  0.00     0.039 A 
HETATM   20  C   UNL     1      44.591 -21.048   5.965  1.00  0.00     0.003 A 
HETATM   21  C   UNL     1      44.686 -21.114   4.579  1.00  0.00     0.002 A 
HETATM   22  C   UNL     1      44.195 -20.072   3.791  1.00  0.00     0.032 A 
BRANCH  18  23
HETATM   23  O   UNL     1      42.912 -17.752   6.296  1.00  0.00    -0.354 OA
HETATM   24  C   UNL     1      42.943 -17.595   7.710  1.00  0.00     0.210 C 
ENDBRANCH  18  23
ENDBRANCH  14  17
ENDBRANCH  11  13
BRANCH   1  25
HETATM   25  C   UNL     1      40.761 -14.475   3.601  1.00  0.00    -0.028 A 
HETATM   26  C   UNL     1      41.802 -13.553   3.422  1.00  0.00     0.010 A 
HETATM   27  C   UNL     1      42.081 -12.591   4.397  1.00  0.00     0.007 A 
HETATM   28  C   UNL     1      41.326 -12.530   5.573  1.00  0.00    -0.062 A 
HETATM   29  C   UNL     1      41.625 -11.512   6.633  1.00  0.00     0.048 C 
HETATM   30  C   UNL     1      40.266 -13.425   5.745  1.00  0.00     0.007 A 
HETATM   31  C   UNL     1      39.984 -14.385   4.770  1.00  0.00     0.010 A 
ENDBRANCH   1  25
TORSDOF 4
ENDMDL
MODEL 8
REMARK VINA RESULT:      -7.3      2.398      4.896
REMARK  4 active torsions:
REMARK  status: ('A' for Active; 'I' for Inactive)
REMARK    1  A    between atoms: C_5  and  C_6 
REMARK    2  A    between atoms: C_16  and  C_17 
REMARK       I    between atoms: C_17  and  N_18 
REMARK    3  A    between atoms: N_18  and  C_19 
REMARK    4  A    between atoms: C_20  and  O_21 
ROOT
HETATM    1  C   UNL     1      39.333 -14.388   2.044  1.00  0.00     0.202 C 
HETATM    2  N   UNL     1      38.622 -13.456   1.163  1.00  0.00    -0.083 N 
HETATM    3  C   UNL     1      39.048 -13.125  -0.095  1.00  0.00     0.726 A 
HETATM    4  N   UNL     1      38.198 -12.292  -0.639  1.00  0.00    -0.046 NA
HETATM    5  C   UNL     1      37.221 -12.179   0.326  1.00  0.00     0.162 A 
HETATM    6  C   UNL     1      36.005 -11.367   0.126  1.00  0.00     0.096 C 
HETATM    7  N   UNL     1      37.432 -12.889   1.445  1.00  0.00    -0.141 NA
HETATM    8  N   UNL     1      40.162 -13.706  -0.590  1.00  0.00    -0.192 N 
HETATM    9  C   UNL     1      40.731 -14.835  -0.001  1.00  0.00     0.037 C 
HETATM   10  C   UNL     1      41.659 -15.634  -0.882  1.00  0.00     0.070 C 
HETATM   11  C   UNL     1      40.355 -15.194   1.253  1.00  0.00     0.062 C 
HETATM   12  H   UNL     1      40.366 -13.549  -1.575  1.00  0.00     0.184 HD
ENDROOT
BRANCH  11  13
HETATM   13  C   UNL     1      40.735 -16.485   1.880  1.00  0.00     0.256 C 
HETATM   14  N   UNL     1      42.020 -16.520   2.359  1.00  0.00    -0.321 N 
HETATM   15  H   UNL     1      42.548 -15.654   2.405  1.00  0.00     0.169 HD
HETATM   16  O   UNL     1      39.897 -17.376   1.937  1.00  0.00    -0.267 OA
BRANCH  14  17
HETATM   17  C   UNL     1      42.747 -17.658   2.783  1.00  0.00     0.068 A 
HETATM   18  C   UNL     1      43.005 -17.781   4.165  1.00  0.00     0.095 A 
HETATM   19  C   UNL     1      43.774 -18.853   4.633  1.00  0.00     0.039 A 
HETATM   20  C   UNL     1      44.278 -19.801   3.740  1.00  0.00     0.003 A 
HETATM   21  C   UNL     1      44.014 -19.684   2.379  1.00  0.00     0.002 A 
HETATM   22  C   UNL     1      43.252 -18.617   1.901  1.00  0.00     0.032 A 
BRANCH  18  23
HETATM   23  O   UNL     1      42.481 -16.789   4.961  1.00  0.00    -0.354 OA
HETATM   24  C   UNL     1      41.447 -17.176   5.858  1.00  0.00     0.210 C 
ENDBRANCH  18  23
ENDBRANCH  14  17
ENDBRANCH  11  13
BRANCH   1  25
HETATM   25  C   UNL     1      39.978 -13.625   3.200  1.00  0.00    -0.028 A 
HETATM   26  C   UNL     1      39.816 -14.081   4.517  1.00  0.00     0.010 A 
HETATM   27  C   UNL     1      40.373 -13.378   5.590  1.00  0.00     0.007 A 
HETATM   28  C   UNL     1      41.101 -12.205   5.371  1.00  0.00    -0.062 A 
HETATM   29  C   UNL     1      41.691 -11.435   6.515  1.00  0.00     0.048 C 
HETATM   30  C   UNL     1      41.294 -11.761   4.060  1.00  0.00     0.007 A 
HETATM   31  C   UNL     1      40.741 -12.463   2.985  1.00  0.00     0.010 A 
ENDBRANCH   1  25
TORSDOF 4
ENDMDL
MODEL 9
REMARK VINA RESULT:      -7.2      1.617      2.118
REMARK  4 active torsions:
REMARK  status: ('A' for Active; 'I' for Inactive)
REMARK    1  A    between atoms: C_5  and  C_6 
REMARK    2  A    between atoms: C_16  and  C_17 
REMARK       I    between atoms: C_17  and  N_18 
REMARK    3  A    between atoms: N_18  and  C_19 
REMARK    4  A    between atoms: C_20  and  O_21 
ROOT
HETATM    1  C   UNL     1      41.937 -12.159   0.829  1.00  0.00     0.202 C 
HETATM    2  N   UNL     1      41.408 -10.792   0.876  1.00  0.00    -0.083 N 
HETATM    3  C   UNL     1      40.525 -10.351   1.825  1.00  0.00     0.726 A 
HETATM    4  N   UNL     1      40.255  -9.088   1.617  1.00  0.00    -0.046 NA
HETATM    5  C   UNL     1      41.053  -8.779   0.537  1.00  0.00     0.162 A 
HETATM    6  C   UNL     1      41.123  -7.416  -0.027  1.00  0.00     0.096 C 
HETATM    7  N   UNL     1      41.790  -9.791   0.057  1.00  0.00    -0.141 NA
HETATM    8  N   UNL     1      40.133 -11.194   2.805  1.00  0.00    -0.192 N 
HETATM    9  C   UNL     1      40.805 -12.389   3.065  1.00  0.00     0.037 C 
HETATM   10  C   UNL     1      40.569 -12.987   4.430  1.00  0.00     0.070 C 
HETATM   11  C   UNL     1      41.677 -12.877   2.147  1.00  0.00     0.062 C 
HETATM   12  H   UNL     1      39.596 -10.793   3.571  1.00  0.00     0.184 HD
ENDROOT
BRANCH  11  13
HETATM   13  C   UNL     1      42.593 -14.013   2.416  1.00  0.00     0.256 C 
HETATM   14  N   UNL     1      42.132 -15.224   1.966  1.00  0.00    -0.321 N 
HETATM   15  H   UNL     1      41.317 -15.243   1.361  1.00  0.00     0.169 HD
HETATM   16  O   UNL     1      43.657 -13.786   2.978  1.00  0.00    -0.267 OA
BRANCH  14  17
HETATM   17  C   UNL     1      42.646 -16.506   2.276  1.00  0.00     0.068 A 
HETATM   18  C   UNL     1      42.120 -17.157   3.412  1.00  0.00     0.095 A 
HETATM   19  C   UNL     1      42.636 -18.398   3.801  1.00  0.00     0.039 A 
HETATM   20  C   UNL     1      43.662 -18.995   3.066  1.00  0.00     0.003 A 
HETATM   21  C   UNL     1      44.174 -18.358   1.940  1.00  0.00     0.002 A 
HETATM   22  C   UNL     1      43.669 -17.119   1.545  1.00  0.00     0.032 A 
BRANCH  18  23
HETATM   23  O   UNL     1      41.125 -16.480   4.079  1.00  0.00    -0.354 OA
HETATM   24  C   UNL     1      41.106 -16.614   5.495  1.00  0.00     0.210 C 
ENDBRANCH  18  23
ENDBRANCH  14  17
ENDBRANCH  11  13
BRANCH   1  25
HETATM   25  C   UNL     1      41.337 -12.910  -0.359  1.00  0.00    -0.028 A 
HETATM   26  C   UNL     1      39.987 -13.291  -0.336  1.00  0.00     0.010 A 
HETATM   27  C   UNL     1      39.429 -14.006  -1.400  1.00  0.00     0.007 A 
HETATM   28  C   UNL     1      40.206 -14.357  -2.508  1.00  0.00    -0.062 A 
HETATM   29  C   UNL     1      39.622 -15.136  -3.649  1.00  0.00     0.048 C 
HETATM   30  C   UNL     1      41.544 -13.953  -2.553  1.00  0.00     0.007 A 
HETATM   31  C   UNL     1      42.104 -13.236  -1.492  1.00  0.00     0.010 A 
ENDBRANCH   1  25
TORSDOF 4
ENDMDL
MODEL 10
REMARK VINA RESULT:      -7.1      4.868      7.986
REMARK  4 active torsions:
REMARK  status: ('A' for Active; 'I' for Inactive)
REMARK    1  A    between atoms: C_5  and  C_6 
REMARK    2  A    between atoms: C_16  and  C_17 
REMARK       I    between atoms: C_17  and  N_18 
REMARK    3  A    between atoms: N_18  and  C_19 
REMARK    4  A    between atoms: C_20  and  O_21 
ROOT
HETATM    1  C   UNL     1      42.289 -12.468   4.730  1.00  0.00     0.202 C 
HETATM    2  N   UNL     1      41.763 -12.814   3.406  1.00  0.00    -0.083 N 
HETATM    3  C   UNL     1      40.447 -12.684   3.052  1.00  0.00     0.726 A 
HETATM    4  N   UNL     1      40.291 -13.051   1.807  1.00  0.00    -0.046 NA
HETATM    5  C   UNL     1      41.576 -13.358   1.415  1.00  0.00     0.162 A 
HETATM    6  C   UNL     1      41.901 -13.776   0.037  1.00  0.00     0.096 C 
HETATM    7  N   UNL     1      42.516 -13.213   2.360  1.00  0.00    -0.141 NA
HETATM    8  N   UNL     1      39.571 -12.173   3.944  1.00  0.00    -0.192 N 
HETATM    9  C   UNL     1      39.992 -11.506   5.095  1.00  0.00     0.037 C 
HETATM   10  C   UNL     1      38.966 -10.609   5.743  1.00  0.00     0.070 C 
HETATM   11  C   UNL     1      41.284 -11.619   5.497  1.00  0.00     0.062 C 
HETATM   12  H   UNL     1      38.638 -11.954   3.602  1.00  0.00     0.184 HD
ENDROOT
BRANCH  11  13
HETATM   13  C   UNL     1      41.878 -10.787   6.572  1.00  0.00     0.256 C 
HETATM   14  N   UNL     1      42.199 -11.484   7.709  1.00  0.00    -0.321 N 
HETATM   15  H   UNL     1      42.168 -12.499   7.686  1.00  0.00     0.169 HD
HETATM   16  O   UNL     1      42.050  -9.594   6.361  1.00  0.00    -0.267 OA
BRANCH  14  17
HETATM   17  C   UNL     1      42.550 -10.951   8.973  1.00  0.00     0.068 A 
HETATM   18  C   UNL     1      43.813 -11.301   9.495  1.00  0.00     0.095 A 
HETATM   19  C   UNL     1      44.185 -10.854  10.767  1.00  0.00     0.039 A 
HETATM   20  C   UNL     1      43.315 -10.059  11.516  1.00  0.00     0.003 A 
HETATM   21  C   UNL     1      42.073  -9.706  10.997  1.00  0.00     0.002 A 
HETATM   22  C   UNL     1      41.691 -10.149   9.730  1.00  0.00     0.032 A 
BRANCH  18  23
HETATM   23  O   UNL     1      44.590 -12.101   8.689  1.00  0.00    -0.354 OA
HETATM   24  C   UNL     1      45.996 -11.891   8.754  1.00  0.00     0.210 C 
ENDBRANCH  18  23
ENDBRANCH  14  17
ENDBRANCH  11  13
BRANCH   1  25
HETATM   25  C   UNL     1      42.663 -13.739   5.492  1.00  0.00    -0.028 A 
HETATM   26  C   UNL     1      41.700 -14.736   5.705  1.00  0.00     0.010 A 
HETATM   27  C   UNL     1      42.015 -15.892   6.427  1.00  0.00     0.007 A 
HETATM   28  C   UNL     1      43.298 -16.075   6.951  1.00  0.00    -0.062 A 
HETATM   29  C   UNL     1      43.645 -17.304   7.739  1.00  0.00     0.048 C 
HETATM   30  C   UNL     1      44.273 -15.101   6.715  1.00  0.00     0.007 A 
HETATM   31  C   UNL     1      43.961 -13.947   5.992  1.00  0.00     0.010 A 
ENDBRANCH   1  25
TORSDOF 4
ENDMDL
