MODEL 1
REMARK VINA RESULT:      -9.0      0.000      0.000
REMARK  9 active torsions:
REMARK  status: ('A' for Active; 'I' for Inactive)
REMARK    1  A    between atoms: C_2  and  C_3 
REMARK    2  A    between atoms: C_3  and  C_4 
REMARK       I    between atoms: C_4  and  N_6 
REMARK    3  A    between atoms: N_6  and  C_7 
REMARK    4  A    between atoms: C_11  and  C_13 
REMARK    5  A    between atoms: C_15  and  N_16 
REMARK    6  A    between atoms: N_16  and  C_17 
REMARK    7  A    between atoms: C_29  and  O_30 
REMARK    8  A    between atoms: O_30  and  C_31 
REMARK    9  A    between atoms: C_31  and  C_32 
ROOT
HETATM    1  C   UNL     1      41.978 -12.379   5.647  1.00  0.00     0.162 A 
HETATM    2  N   UNL     1      42.905 -13.253   6.058  1.00  0.00    -0.210 NA
HETATM    3  C   UNL     1      43.236 -14.258   5.229  1.00  0.00     0.143 A 
HETATM    4  C   UNL     1      42.654 -14.389   3.958  1.00  0.00     0.041 A 
HETATM    5  C   UNL     1      42.968 -15.404   3.017  1.00  0.00     0.054 A 
HETATM    6  C   UNL     1      42.356 -15.447   1.766  1.00  0.00     0.069 A 
HETATM    7  C   UNL     1      41.394 -14.494   1.459  1.00  0.00     0.039 A 
HETATM    8  C   UNL     1      41.070 -13.504   2.396  1.00  0.00     0.035 A 
HETATM    9  C   UNL     1      41.687 -13.430   3.638  1.00  0.00     0.073 A 
HETATM   10  N   UNL     1      41.338 -12.443   4.469  1.00  0.00    -0.228 NA
ENDROOT
BRANCH   1  11
HETATM   11  C   UNL     1      41.685 -11.246   6.539  1.00  0.00     0.014 A 
HETATM   12  C   UNL     1      40.931 -10.150   6.084  1.00  0.00     0.015 A 
HETATM   13  C   UNL     1      40.628  -9.081   6.925  1.00  0.00     0.003 A 
HETATM   14  C   UNL     1      41.089  -9.076   8.242  1.00  0.00     0.029 A 
HETATM   15  C   UNL     1      41.857 -10.135   8.724  1.00  0.00     0.035 A 
HETATM   16  C   UNL     1      42.142 -11.214   7.872  1.00  0.00     0.044 A 
BRANCH  15  17
HETATM   17  N   UNL     1      42.403 -10.173  10.024  1.00  0.00    -0.327 N 
HETATM   18  C   UNL     1      43.731 -10.359  10.370  1.00  0.00     0.222 C 
HETATM   19  O   UNL     1      44.688 -10.425   9.607  1.00  0.00    -0.273 OA
HETATM   20  H   UNL     1      41.748 -10.037  10.784  1.00  0.00     0.169 HD
BRANCH  18  21
HETATM   21  C   UNL     1      43.929 -10.534  11.864  1.00  0.00     0.103 C 
BRANCH  21  22
HETATM   22  C   UNL     1      42.852  -9.773  12.631  1.00  0.00     0.005 C 
HETATM   23  C   UNL     1      43.377  -9.236  13.951  1.00  0.00     0.005 C 
ENDBRANCH  21  22
ENDBRANCH  18  21
ENDBRANCH  15  17
ENDBRANCH   1  11
BRANCH   3  24
HETATM   24  N   UNL     1      44.220 -15.191   5.650  1.00  0.00    -0.340 N 
HETATM   25  H   UNL     1      45.014 -14.691   6.033  1.00  0.00     0.167 HD
BRANCH  24  26
HETATM   26  C   UNL     1      43.996 -16.427   6.303  1.00  0.00     0.034 A 
HETATM   27  C   UNL     1      43.685 -16.435   7.672  1.00  0.00     0.032 A 
HETATM   28  C   UNL     1      43.500 -17.627   8.390  1.00  0.00     0.034 A 
HETATM   29  C   UNL     1      43.666 -18.822   7.687  1.00  0.00     0.062 A 
HETATM   30  N   UNL     1      43.566 -20.133   8.072  1.00  0.00    -0.278 N 
HETATM   31  C   UNL     1      44.005 -18.861   6.342  1.00  0.00     0.013 A 
HETATM   32  H   UNL     1      43.331 -20.491   8.989  1.00  0.00     0.189 HD
HETATM   33  N   UNL     1      43.823 -21.016   7.089  1.00  0.00    -0.186 NA
HETATM   34  C   UNL     1      44.089 -20.237   6.036  1.00  0.00     0.152 A 
HETATM   35  C   UNL     1      44.184 -17.655   5.642  1.00  0.00     0.044 A 
ENDBRANCH  24  26
ENDBRANCH   3  24
BRANCH   6  36
HETATM   36  O   UNL     1      42.782 -16.458   0.953  1.00  0.00    -0.351 OA
BRANCH  36  37
HETATM   37  C   UNL     1      43.957 -17.162   1.352  1.00  0.00     0.180 C 
BRANCH  37  38
HETATM   38  C   UNL     1      43.628 -18.624   1.395  1.00  0.00     0.010 A 
HETATM   39  C   UNL     1      44.273 -19.527   2.415  1.00  0.00     0.007 A 
HETATM   40  C   UNL     1      42.810 -19.191   2.527  1.00  0.00     0.007 A 
ENDBRANCH  37  38
ENDBRANCH  36  37
ENDBRANCH   6  36
TORSDOF 9
ENDMDL
MODEL 2
REMARK VINA RESULT:      -8.9      2.123      2.430
REMARK  9 active torsions:
REMARK  status: ('A' for Active; 'I' for Inactive)
REMARK    1  A    between atoms: C_2  and  C_3 
REMARK    2  A    between atoms: C_3  and  C_4 
REMARK       I    between atoms: C_4  and  N_6 
REMARK    3  A    between atoms: N_6  and  C_7 
REMARK    4  A    between atoms: C_11  and  C_13 
REMARK    5  A    between atoms: C_15  and  N_16 
REMARK    6  A    between atoms: N_16  and  C_17 
REMARK    7  A    between atoms: C_29  and  O_30 
REMARK    8  A    between atoms: O_30  and  C_31 
REMARK    9  A    between atoms: C_31  and  C_32 
ROOT
HETATM    1  C   UNL     1      39.625 -12.344   5.713  1.00  0.00     0.162 A 
HETATM    2  N   UNL     1      39.866 -13.565   6.208  1.00  0.00    -0.210 NA
HETATM    3  C   UNL     1      40.071 -14.569   5.339  1.00  0.00     0.143 A 
HETATM    4  C   UNL     1      40.061 -14.359   3.951  1.00  0.00     0.041 A 
HETATM    5  C   UNL     1      40.295 -15.359   2.972  1.00  0.00     0.054 A 
HETATM    6  C   UNL     1      40.288 -15.057   1.611  1.00  0.00     0.069 A 
HETATM    7  C   UNL     1      40.008 -13.756   1.216  1.00  0.00     0.039 A 
HETATM    8  C   UNL     1      39.759 -12.773   2.183  1.00  0.00     0.035 A 
HETATM    9  C   UNL     1      39.786 -13.048   3.544  1.00  0.00     0.073 A 
HETATM   10  N   UNL     1      39.557 -12.051   4.405  1.00  0.00    -0.228 NA
ENDROOT
BRANCH   1  11
HETATM   11  C   UNL     1      39.477 -11.247   6.681  1.00  0.00     0.014 A 
HETATM   12  C   UNL     1      39.249  -9.930   6.244  1.00  0.00     0.015 A 
HETATM   13  C   UNL     1      39.085  -8.885   7.152  1.00  0.00     0.003 A 
HETATM   14  C   UNL     1      39.161  -9.131   8.523  1.00  0.00     0.029 A 
HETATM   15  C   UNL     1      39.406 -10.421   8.994  1.00  0.00     0.035 A 
HETATM   16  C   UNL     1      39.554 -11.468   8.071  1.00  0.00     0.044 A 
BRANCH  15  17
HETATM   17  N   UNL     1      39.552 -10.736  10.362  1.00  0.00    -0.327 N 
HETATM   18  C   UNL     1      40.729 -11.015  11.037  1.00  0.00     0.222 C 
HETATM   19  O   UNL     1      41.868 -10.941  10.590  1.00  0.00    -0.273 OA
HETATM   20  H   UNL     1      38.699 -10.747  10.907  1.00  0.00     0.169 HD
BRANCH  18  21
HETATM   21  C   UNL     1      40.490 -11.497  12.455  1.00  0.00     0.103 C 
BRANCH  21  22
HETATM   22  C   UNL     1      40.938 -10.436  13.455  1.00  0.00     0.005 C 
HETATM   23  C   UNL     1      42.409 -10.579  13.803  1.00  0.00     0.005 C 
ENDBRANCH  21  22
ENDBRANCH  18  21
ENDBRANCH  15  17
ENDBRANCH   1  11
BRANCH   3  24
HETATM   24  N   UNL     1      40.329 -15.868   5.850  1.00  0.00    -0.340 N 
HETATM   25  H   UNL     1      39.584 -16.495   5.566  1.00  0.00     0.167 HD
BRANCH  24  26
HETATM   26  C   UNL     1      41.584 -16.521   5.920  1.00  0.00     0.034 A 
HETATM   27  C   UNL     1      42.648 -15.895   6.590  1.00  0.00     0.032 A 
HETATM   28  C   UNL     1      43.929 -16.464   6.656  1.00  0.00     0.034 A 
HETATM   29  C   UNL     1      44.116 -17.680   5.996  1.00  0.00     0.062 A 
HETATM   30  N   UNL     1      45.213 -18.489   5.857  1.00  0.00    -0.278 N 
HETATM   31  C   UNL     1      43.102 -18.317   5.294  1.00  0.00     0.013 A 
HETATM   32  H   UNL     1      46.139 -18.344   6.239  1.00  0.00     0.189 HD
HETATM   33  N   UNL     1      44.995 -19.590   5.116  1.00  0.00    -0.186 NA
HETATM   34  C   UNL     1      43.707 -19.483   4.775  1.00  0.00     0.152 A 
HETATM   35  C   UNL     1      41.825 -17.730   5.244  1.00  0.00     0.044 A 
ENDBRANCH  24  26
ENDBRANCH   3  24
BRANCH   6  36
HETATM   36  O   UNL     1      40.562 -16.111   0.788  1.00  0.00    -0.351 OA
BRANCH  36  37
HETATM   37  C   UNL     1      41.285 -17.206   1.352  1.00  0.00     0.180 C 
BRANCH  37  38
HETATM   38  C   UNL     1      42.718 -17.078   0.930  1.00  0.00     0.010 A 
HETATM   39  C   UNL     1      43.795 -16.799   1.947  1.00  0.00     0.007 A 
HETATM   40  C   UNL     1      43.718 -18.148   1.285  1.00  0.00     0.007 A 
ENDBRANCH  37  38
ENDBRANCH  36  37
ENDBRANCH   6  36
TORSDOF 9
ENDMDL
MODEL 3
REMARK VINA RESULT:      -8.9      2.423      5.213
REMARK  9 active torsions:
REMARK  status: ('A' for Active; 'I' for Inactive)
REMARK    1  A    between atoms: C_2  and  C_3 
REMARK    2  A    between atoms: C_3  and  C_4 
REMARK       I    between atoms: C_4  and  N_6 
REMARK    3  A    between atoms: N_6  and  C_7 
REMARK    4  A    between atoms: C_11  and  C_13 
REMARK    5  A    between atoms: C_15  and  N_16 
REMARK    6  A    between atoms: N_16  and  C_17 
REMARK    7  A    between atoms: C_29  and  O_30 
REMARK    8  A    between atoms: O_30  and  C_31 
REMARK    9  A    between atoms: C_31  and  C_32 
ROOT
HETATM    1  C   UNL     1      44.570 -14.144   6.634  1.00  0.00     0.162 A 
HETATM    2  N   UNL     1      44.181 -13.649   5.451  1.00  0.00    -0.210 NA
HETATM    3  C   UNL     1      43.760 -14.513   4.513  1.00  0.00     0.143 A 
HETATM    4  C   UNL     1      43.700 -15.895   4.755  1.00  0.00     0.041 A 
HETATM    5  C   UNL     1      43.243 -16.867   3.828  1.00  0.00     0.054 A 
HETATM    6  C   UNL     1      43.197 -18.221   4.160  1.00  0.00     0.069 A 
HETATM    7  C   UNL     1      43.644 -18.617   5.413  1.00  0.00     0.039 A 
HETATM    8  C   UNL     1      44.113 -17.659   6.321  1.00  0.00     0.035 A 
HETATM    9  C   UNL     1      44.143 -16.304   6.018  1.00  0.00     0.073 A 
HETATM   10  N   UNL     1      44.586 -15.449   6.946  1.00  0.00    -0.228 NA
ENDROOT
BRANCH   1  11
HETATM   11  C   UNL     1      44.956 -13.174   7.670  1.00  0.00     0.014 A 
HETATM   12  C   UNL     1      46.210 -12.537   7.624  1.00  0.00     0.015 A 
HETATM   13  C   UNL     1      46.579 -11.600   8.587  1.00  0.00     0.003 A 
HETATM   14  C   UNL     1      45.708 -11.289   9.631  1.00  0.00     0.029 A 
HETATM   15  C   UNL     1      44.465 -11.914   9.722  1.00  0.00     0.035 A 
HETATM   16  C   UNL     1      44.097 -12.845   8.737  1.00  0.00     0.044 A 
BRANCH  15  17
HETATM   17  N   UNL     1      43.556 -11.693  10.777  1.00  0.00    -0.327 N 
HETATM   18  C   UNL     1      42.456 -10.851  10.773  1.00  0.00     0.222 C 
HETATM   19  O   UNL     1      42.014 -10.223   9.817  1.00  0.00    -0.273 OA
HETATM   20  H   UNL     1      43.725 -12.218  11.626  1.00  0.00     0.169 HD
BRANCH  18  21
HETATM   21  C   UNL     1      41.815 -10.717  12.141  1.00  0.00     0.103 C 
BRANCH  21  22
HETATM   22  C   UNL     1      42.878 -10.805  13.232  1.00  0.00     0.005 C 
HETATM   23  C   UNL     1      42.896  -9.558  14.099  1.00  0.00     0.005 C 
ENDBRANCH  21  22
ENDBRANCH  18  21
ENDBRANCH  15  17
ENDBRANCH   1  11
BRANCH   3  24
HETATM   24  N   UNL     1      43.342 -14.003   3.256  1.00  0.00    -0.340 N 
HETATM   25  H   UNL     1      43.990 -14.307   2.538  1.00  0.00     0.167 HD
BRANCH  24  26
HETATM   26  C   UNL     1      42.014 -13.905   2.776  1.00  0.00     0.034 A 
HETATM   27  C   UNL     1      40.956 -13.805   3.694  1.00  0.00     0.032 A 
HETATM   28  C   UNL     1      39.614 -13.754   3.288  1.00  0.00     0.034 A 
HETATM   29  C   UNL     1      39.365 -13.837   1.917  1.00  0.00     0.062 A 
HETATM   30  N   UNL     1      38.201 -13.824   1.194  1.00  0.00    -0.278 N 
HETATM   31  C   UNL     1      40.377 -13.972   0.976  1.00  0.00     0.013 A 
HETATM   32  H   UNL     1      37.256 -13.737   1.547  1.00  0.00     0.189 HD
HETATM   33  N   UNL     1      38.376 -13.948  -0.135  1.00  0.00    -0.186 NA
HETATM   34  C   UNL     1      39.703 -14.037  -0.264  1.00  0.00     0.152 A 
HETATM   35  C   UNL     1      41.715 -14.018   1.406  1.00  0.00     0.044 A 
ENDBRANCH  24  26
ENDBRANCH   3  24
BRANCH   6  36
HETATM   36  O   UNL     1      42.703 -19.034   3.181  1.00  0.00    -0.351 OA
BRANCH  36  37
HETATM   37  C   UNL     1      43.633 -19.539   2.224  1.00  0.00     0.180 C 
BRANCH  37  38
HETATM   38  C   UNL     1      43.402 -21.014   2.088  1.00  0.00     0.010 A 
HETATM   39  C   UNL     1      44.383 -21.879   1.339  1.00  0.00     0.007 A 
HETATM   40  C   UNL     1      44.267 -21.996   2.835  1.00  0.00     0.007 A 
ENDBRANCH  37  38
ENDBRANCH  36  37
ENDBRANCH   6  36
TORSDOF 9
ENDMDL
MODEL 4
REMARK VINA RESULT:      -8.8      2.411      5.451
REMARK  9 active torsions:
REMARK  status: ('A' for Active; 'I' for Inactive)
REMARK    1  A    between atoms: C_2  and  C_3 
REMARK    2  A    between atoms: C_3  and  C_4 
REMARK       I    between atoms: C_4  and  N_6 
REMARK    3  A    between atoms: N_6  and  C_7 
REMARK    4  A    between atoms: C_11  and  C_13 
REMARK    5  A    between atoms: C_15  and  N_16 
REMARK    6  A    between atoms: N_16  and  C_17 
REMARK    7  A    between atoms: C_29  and  O_30 
REMARK    8  A    between atoms: O_30  and  C_31 
REMARK    9  A    between atoms: C_31  and  C_32 
ROOT
HETATM    1  C   UNL     1      42.433 -14.129   5.378  1.00  0.00     0.162 A 
HETATM    2  N   UNL     1      41.777 -14.686   4.351  1.00  0.00    -0.210 NA
HETATM    3  C   UNL     1      42.046 -15.968   4.051  1.00  0.00     0.143 A 
HETATM    4  C   UNL     1      42.966 -16.723   4.794  1.00  0.00     0.041 A 
HETATM    5  C   UNL     1      43.285 -18.085   4.558  1.00  0.00     0.054 A 
HETATM    6  C   UNL     1      44.199 -18.767   5.361  1.00  0.00     0.069 A 
HETATM    7  C   UNL     1      44.830 -18.078   6.387  1.00  0.00     0.039 A 
HETATM    8  C   UNL     1      44.530 -16.727   6.608  1.00  0.00     0.035 A 
HETATM    9  C   UNL     1      43.605 -16.038   5.835  1.00  0.00     0.073 A 
HETATM   10  N   UNL     1      43.358 -14.756   6.121  1.00  0.00    -0.228 NA
ENDROOT
BRANCH   1  11
HETATM   11  C   UNL     1      42.069 -12.749   5.734  1.00  0.00     0.014 A 
HETATM   12  C   UNL     1      41.745 -11.812   4.736  1.00  0.00     0.015 A 
HETATM   13  C   UNL     1      41.377 -10.508   5.062  1.00  0.00     0.003 A 
HETATM   14  C   UNL     1      41.340 -10.105   6.396  1.00  0.00     0.029 A 
HETATM   15  C   UNL     1      41.673 -10.999   7.413  1.00  0.00     0.035 A 
HETATM   16  C   UNL     1      42.027 -12.315   7.074  1.00  0.00     0.044 A 
BRANCH  15  17
HETATM   17  N   UNL     1      41.712 -10.648   8.779  1.00  0.00    -0.327 N 
HETATM   18  C   UNL     1      42.834 -10.533   9.583  1.00  0.00     0.222 C 
HETATM   19  O   UNL     1      44.004 -10.617   9.229  1.00  0.00    -0.273 OA
HETATM   20  H   UNL     1      40.818 -10.449   9.210  1.00  0.00     0.169 HD
BRANCH  18  21
HETATM   21  C   UNL     1      42.487 -10.325  11.045  1.00  0.00     0.103 C 
BRANCH  21  22
HETATM   22  C   UNL     1      43.759 -10.164  11.871  1.00  0.00     0.005 C 
HETATM   23  C   UNL     1      43.471  -9.556  13.232  1.00  0.00     0.005 C 
ENDBRANCH  21  22
ENDBRANCH  18  21
ENDBRANCH  15  17
ENDBRANCH   1  11
BRANCH   3  24
HETATM   24  N   UNL     1      41.356 -16.572   2.968  1.00  0.00    -0.340 N 
HETATM   25  H   UNL     1      40.751 -17.305   3.321  1.00  0.00     0.167 HD
BRANCH  24  26
HETATM   26  C   UNL     1      40.804 -15.918   1.839  1.00  0.00     0.034 A 
HETATM   27  C   UNL     1      41.585 -15.768   0.682  1.00  0.00     0.032 A 
HETATM   28  C   UNL     1      41.118 -15.089  -0.454  1.00  0.00     0.034 A 
HETATM   29  C   UNL     1      39.839 -14.534  -0.377  1.00  0.00     0.062 A 
HETATM   30  N   UNL     1      39.094 -13.819  -1.278  1.00  0.00    -0.278 N 
HETATM   31  C   UNL     1      39.045 -14.628   0.758  1.00  0.00     0.013 A 
HETATM   32  H   UNL     1      39.352 -13.556  -2.221  1.00  0.00     0.189 HD
HETATM   33  N   UNL     1      37.890 -13.434  -0.816  1.00  0.00    -0.186 NA
HETATM   34  C   UNL     1      37.864 -13.930   0.425  1.00  0.00     0.152 A 
HETATM   35  C   UNL     1      39.534 -15.316   1.883  1.00  0.00     0.044 A 
ENDBRANCH  24  26
ENDBRANCH   3  24
BRANCH   6  36
HETATM   36  O   UNL     1      44.379 -20.080   5.037  1.00  0.00    -0.351 OA
BRANCH  36  37
HETATM   37  C   UNL     1      44.991 -20.362   3.779  1.00  0.00     0.180 C 
BRANCH  37  38
HETATM   38  C   UNL     1      44.129 -21.353   3.057  1.00  0.00     0.010 A 
HETATM   39  C   UNL     1      43.418 -20.969   1.784  1.00  0.00     0.007 A 
HETATM   40  C   UNL     1      44.570 -21.935   1.739  1.00  0.00     0.007 A 
ENDBRANCH  37  38
ENDBRANCH  36  37
ENDBRANCH   6  36
TORSDOF 9
ENDMDL
MODEL 5
REMARK VINA RESULT:      -8.8      2.564      5.376
REMARK  9 active torsions:
REMARK  status: ('A' for Active; 'I' for Inactive)
REMARK    1  A    between atoms: C_2  and  C_3 
REMARK    2  A    between atoms: C_3  and  C_4 
REMARK       I    between atoms: C_4  and  N_6 
REMARK    3  A    between atoms: N_6  and  C_7 
REMARK    4  A    between atoms: C_11  and  C_13 
REMARK    5  A    between atoms: C_15  and  N_16 
REMARK    6  A    between atoms: N_16  and  C_17 
REMARK    7  A    between atoms: C_29  and  O_30 
REMARK    8  A    between atoms: O_30  and  C_31 
REMARK    9  A    between atoms: C_31  and  C_32 
ROOT
HETATM    1  C   UNL     1      41.908 -13.092   5.231  1.00  0.00     0.162 A 
HETATM    2  N   UNL     1      41.180 -13.112   4.107  1.00  0.00    -0.210 NA
HETATM    3  C   UNL     1      41.199 -14.229   3.362  1.00  0.00     0.143 A 
HETATM    4  C   UNL     1      41.935 -15.361   3.746  1.00  0.00     0.041 A 
HETATM    5  C   UNL     1      41.985 -16.585   3.030  1.00  0.00     0.054 A 
HETATM    6  C   UNL     1      42.727 -17.669   3.497  1.00  0.00     0.069 A 
HETATM    7  C   UNL     1      43.457 -17.524   4.669  1.00  0.00     0.039 A 
HETATM    8  C   UNL     1      43.422 -16.310   5.366  1.00  0.00     0.035 A 
HETATM    9  C   UNL     1      42.670 -15.226   4.930  1.00  0.00     0.073 A 
HETATM   10  N   UNL     1      42.673 -14.107   5.661  1.00  0.00    -0.228 NA
ENDROOT
BRANCH   1  11
HETATM   11  C   UNL     1      41.814 -11.886   6.068  1.00  0.00     0.014 A 
HETATM   12  C   UNL     1      41.305 -10.685   5.541  1.00  0.00     0.015 A 
HETATM   13  C   UNL     1      41.190  -9.542   6.329  1.00  0.00     0.003 A 
HETATM   14  C   UNL     1      41.598  -9.568   7.663  1.00  0.00     0.029 A 
HETATM   15  C   UNL     1      42.127 -10.734   8.215  1.00  0.00     0.035 A 
HETATM   16  C   UNL     1      42.222 -11.884   7.416  1.00  0.00     0.044 A 
BRANCH  15  17
HETATM   17  N   UNL     1      42.610 -10.820   9.538  1.00  0.00    -0.327 N 
HETATM   18  C   UNL     1      43.933 -10.823   9.947  1.00  0.00     0.222 C 
HETATM   19  O   UNL     1      44.922 -10.651   9.243  1.00  0.00    -0.273 OA
HETATM   20  H   UNL     1      41.907 -10.874  10.264  1.00  0.00     0.169 HD
BRANCH  18  21
HETATM   21  C   UNL     1      44.088 -11.121  11.427  1.00  0.00     0.103 C 
BRANCH  21  22
HETATM   22  C   UNL     1      43.610  -9.934  12.256  1.00  0.00     0.005 C 
HETATM   23  C   UNL     1      42.840 -10.383  13.486  1.00  0.00     0.005 C 
ENDBRANCH  21  22
ENDBRANCH  18  21
ENDBRANCH  15  17
ENDBRANCH   1  11
BRANCH   3  24
HETATM   24  N   UNL     1      40.430 -14.265   2.169  1.00  0.00    -0.340 N 
HETATM   25  H   UNL     1      39.568 -13.749   2.310  1.00  0.00     0.167 HD
BRANCH  24  26
HETATM   26  C   UNL     1      40.912 -14.155   0.842  1.00  0.00     0.034 A 
HETATM   27  C   UNL     1      41.661 -13.026   0.474  1.00  0.00     0.032 A 
HETATM   28  C   UNL     1      42.127 -12.831  -0.835  1.00  0.00     0.034 A 
HETATM   29  C   UNL     1      41.789 -13.804  -1.778  1.00  0.00     0.062 A 
HETATM   30  N   UNL     1      42.068 -13.921  -3.115  1.00  0.00    -0.278 N 
HETATM   31  C   UNL     1      41.023 -14.918  -1.467  1.00  0.00     0.013 A 
HETATM   32  H   UNL     1      42.610 -13.289  -3.690  1.00  0.00     0.189 HD
HETATM   33  N   UNL     1      41.538 -15.014  -3.694  1.00  0.00    -0.186 NA
HETATM   34  C   UNL     1      40.902 -15.620  -2.686  1.00  0.00     0.152 A 
HETATM   35  C   UNL     1      40.569 -15.094  -0.147  1.00  0.00     0.044 A 
ENDBRANCH  24  26
ENDBRANCH   3  24
BRANCH   6  36
HETATM   36  O   UNL     1      42.653 -18.791   2.723  1.00  0.00    -0.351 OA
BRANCH  36  37
HETATM   37  C   UNL     1      43.872 -19.489   2.469  1.00  0.00     0.180 C 
BRANCH  37  38
HETATM   38  C   UNL     1      43.540 -20.935   2.255  1.00  0.00     0.010 A 
HETATM   39  C   UNL     1      44.438 -21.813   1.422  1.00  0.00     0.007 A 
HETATM   40  C   UNL     1      44.363 -22.013   2.911  1.00  0.00     0.007 A 
ENDBRANCH  37  38
ENDBRANCH  36  37
ENDBRANCH   6  36
TORSDOF 9
ENDMDL
MODEL 6
REMARK VINA RESULT:      -8.6      4.637      9.369
REMARK  9 active torsions:
REMARK  status: ('A' for Active; 'I' for Inactive)
REMARK    1  A    between atoms: C_2  and  C_3 
REMARK    2  A    between atoms: C_3  and  C_4 
REMARK       I    between atoms: C_4  and  N_6 
REMARK    3  A    between atoms: N_6  and  C_7 
REMARK    4  A    between atoms: C_11  and  C_13 
REMARK    5  A    between atoms: C_15  and  N_16 
REMARK    6  A    between atoms: N_16  and  C_17 
REMARK    7  A    between atoms: C_29  and  O_30 
REMARK    8  A    between atoms: O_30  and  C_31 
REMARK    9  A    between atoms: C_31  and  C_32 
ROOT
HETATM    1  C   UNL     1      40.943 -15.226   0.295  1.00  0.00     0.162 A 
HETATM    2  N   UNL     1      42.107 -15.846   0.526  1.00  0.00    -0.210 NA
HETATM    3  C   UNL     1      42.489 -16.015   1.803  1.00  0.00     0.143 A 
HETATM    4  C   UNL     1      41.694 -15.582   2.876  1.00  0.00     0.041 A 
HETATM    5  C   UNL     1      42.014 -15.746   4.248  1.00  0.00     0.054 A 
HETATM    6  C   UNL     1      41.154 -15.303   5.252  1.00  0.00     0.069 A 
HETATM    7  C   UNL     1      39.981 -14.656   4.889  1.00  0.00     0.039 A 
HETATM    8  C   UNL     1      39.674 -14.477   3.534  1.00  0.00     0.035 A 
HETATM    9  C   UNL     1      40.506 -14.933   2.520  1.00  0.00     0.073 A 
HETATM   10  N   UNL     1      40.134 -14.742   1.250  1.00  0.00    -0.228 NA
ENDROOT
BRANCH   1  11
HETATM   11  C   UNL     1      40.510 -15.118  -1.107  1.00  0.00     0.014 A 
HETATM   12  C   UNL     1      41.185 -15.818  -2.122  1.00  0.00     0.015 A 
HETATM   13  C   UNL     1      40.772 -15.742  -3.451  1.00  0.00     0.003 A 
HETATM   14  C   UNL     1      39.679 -14.949  -3.798  1.00  0.00     0.029 A 
HETATM   15  C   UNL     1      38.996 -14.223  -2.823  1.00  0.00     0.035 A 
HETATM   16  C   UNL     1      39.412 -14.320  -1.485  1.00  0.00     0.044 A 
BRANCH  15  17
HETATM   17  N   UNL     1      37.918 -13.357  -3.106  1.00  0.00    -0.327 N 
HETATM   18  C   UNL     1      36.807 -13.631  -3.885  1.00  0.00     0.222 C 
HETATM   19  O   UNL     1      36.507 -14.708  -4.388  1.00  0.00    -0.273 OA
HETATM   20  H   UNL     1      37.964 -12.440  -2.681  1.00  0.00     0.169 HD
BRANCH  18  21
HETATM   21  C   UNL     1      35.946 -12.405  -4.128  1.00  0.00     0.103 C 
BRANCH  21  22
HETATM   22  C   UNL     1      34.997 -12.650  -5.296  1.00  0.00     0.005 C 
HETATM   23  C   UNL     1      35.533 -12.059  -6.589  1.00  0.00     0.005 C 
ENDBRANCH  21  22
ENDBRANCH  18  21
ENDBRANCH  15  17
ENDBRANCH   1  11
BRANCH   3  24
HETATM   24  N   UNL     1      43.719 -16.674   2.063  1.00  0.00    -0.340 N 
HETATM   25  H   UNL     1      44.355 -16.029   2.520  1.00  0.00     0.167 HD
BRANCH  24  26
HETATM   26  C   UNL     1      43.894 -18.007   2.507  1.00  0.00     0.034 A 
HETATM   27  C   UNL     1      44.253 -18.245   3.844  1.00  0.00     0.032 A 
HETATM   28  C   UNL     1      44.489 -19.537   4.337  1.00  0.00     0.034 A 
HETATM   29  C   UNL     1      44.379 -20.591   3.427  1.00  0.00     0.062 A 
HETATM   30  N   UNL     1      44.543 -21.944   3.568  1.00  0.00    -0.278 N 
HETATM   31  C   UNL     1      44.059 -20.400   2.091  1.00  0.00     0.013 A 
HETATM   32  H   UNL     1      44.780 -22.453   4.410  1.00  0.00     0.189 HD
HETATM   33  N   UNL     1      44.366 -22.641   2.431  1.00  0.00    -0.186 NA
HETATM   34  C   UNL     1      44.070 -21.697   1.533  1.00  0.00     0.152 A 
HETATM   35  C   UNL     1      43.825 -19.095   1.619  1.00  0.00     0.044 A 
ENDBRANCH  24  26
ENDBRANCH   3  24
BRANCH   6  36
HETATM   36  O   UNL     1      41.577 -15.560   6.524  1.00  0.00    -0.351 OA
BRANCH  36  37
HETATM   37  C   UNL     1      41.741 -16.929   6.892  1.00  0.00     0.180 C 
BRANCH  37  38
HETATM   38  C   UNL     1      42.955 -17.031   7.765  1.00  0.00     0.010 A 
HETATM   39  C   UNL     1      43.843 -18.248   7.707  1.00  0.00     0.007 A 
HETATM   40  C   UNL     1      44.336 -16.932   7.170  1.00  0.00     0.007 A 
ENDBRANCH  37  38
ENDBRANCH  36  37
ENDBRANCH   6  36
TORSDOF 9
ENDMDL
MODEL 7
REMARK VINA RESULT:      -8.3      3.833      8.533
REMARK  9 active torsions:
REMARK  status: ('A' for Active; 'I' for Inactive)
REMARK    1  A    between atoms: C_2  and  C_3 
REMARK    2  A    between atoms: C_3  and  C_4 
REMARK       I    between atoms: C_4  and  N_6 
REMARK    3  A    between atoms: N_6  and  C_7 
REMARK    4  A    between atoms: C_11  and  C_13 
REMARK    5  A    between atoms: C_15  and  N_16 
REMARK    6  A    between atoms: N_16  and  C_17 
REMARK    7  A    between atoms: C_29  and  O_30 
REMARK    8  A    between atoms: O_30  and  C_31 
REMARK    9  A    between atoms: C_31  and  C_32 
ROOT
HETATM    1  C   UNL     1      41.546 -15.731   0.213  1.00  0.00     0.162 A 
HETATM    2  N   UNL     1      40.837 -15.305   1.266  1.00  0.00    -0.210 NA
HETATM    3  C   UNL     1      41.022 -15.924   2.444  1.00  0.00     0.143 A 
HETATM    4  C   UNL     1      41.943 -16.973   2.591  1.00  0.00     0.041 A 
HETATM    5  C   UNL     1      42.215 -17.658   3.803  1.00  0.00     0.054 A 
HETATM    6  C   UNL     1      43.166 -18.676   3.863  1.00  0.00     0.069 A 
HETATM    7  C   UNL     1      43.826 -19.044   2.700  1.00  0.00     0.039 A 
HETATM    8  C   UNL     1      43.544 -18.380   1.499  1.00  0.00     0.035 A 
HETATM    9  C   UNL     1      42.619 -17.346   1.423  1.00  0.00     0.073 A 
HETATM   10  N   UNL     1      42.420 -16.749   0.244  1.00  0.00    -0.228 NA
ENDROOT
BRANCH   1  11
HETATM   11  C   UNL     1      41.381 -14.991  -1.048  1.00  0.00     0.014 A 
HETATM   12  C   UNL     1      40.690 -15.563  -2.131  1.00  0.00     0.015 A 
HETATM   13  C   UNL     1      40.507 -14.864  -3.322  1.00  0.00     0.003 A 
HETATM   14  C   UNL     1      41.029 -13.578  -3.465  1.00  0.00     0.029 A 
HETATM   15  C   UNL     1      41.739 -12.985  -2.421  1.00  0.00     0.035 A 
HETATM   16  C   UNL     1      41.901 -13.693  -1.220  1.00  0.00     0.044 A 
BRANCH  15  17
HETATM   17  N   UNL     1      42.342 -11.713  -2.512  1.00  0.00    -0.327 N 
HETATM   18  C   UNL     1      41.787 -10.495  -2.154  1.00  0.00     0.222 C 
HETATM   19  O   UNL     1      40.710 -10.312  -1.600  1.00  0.00    -0.273 OA
HETATM   20  H   UNL     1      43.289 -11.696  -2.869  1.00  0.00     0.169 HD
BRANCH  18  21
HETATM   21  C   UNL     1      42.648  -9.316  -2.566  1.00  0.00     0.103 C 
BRANCH  21  22
HETATM   22  C   UNL     1      43.754  -9.087  -1.541  1.00  0.00     0.005 C 
HETATM   23  C   UNL     1      44.090  -7.612  -1.399  1.00  0.00     0.005 C 
ENDBRANCH  21  22
ENDBRANCH  18  21
ENDBRANCH  15  17
ENDBRANCH   1  11
BRANCH   3  24
HETATM   24  N   UNL     1      40.279 -15.481   3.569  1.00  0.00    -0.340 N 
HETATM   25  H   UNL     1      39.906 -16.285   4.063  1.00  0.00     0.167 HD
BRANCH  24  26
HETATM   26  C   UNL     1      40.611 -14.419   4.444  1.00  0.00     0.034 A 
HETATM   27  C   UNL     1      41.942 -13.977   4.514  1.00  0.00     0.032 A 
HETATM   28  C   UNL     1      42.348 -12.962   5.394  1.00  0.00     0.034 A 
HETATM   29  C   UNL     1      41.370 -12.420   6.230  1.00  0.00     0.062 A 
HETATM   30  N   UNL     1      41.422 -11.442   7.188  1.00  0.00    -0.278 N 
HETATM   31  C   UNL     1      40.050 -12.850   6.219  1.00  0.00     0.013 A 
HETATM   32  H   UNL     1      42.227 -10.898   7.472  1.00  0.00     0.189 HD
HETATM   33  N   UNL     1      40.248 -11.211   7.803  1.00  0.00    -0.186 NA
HETATM   34  C   UNL     1      39.414 -12.070   7.209  1.00  0.00     0.152 A 
HETATM   35  C   UNL     1      39.665 -13.866   5.326  1.00  0.00     0.044 A 
ENDBRANCH  24  26
ENDBRANCH   3  24
BRANCH   6  36
HETATM   36  O   UNL     1      43.345 -19.220   5.103  1.00  0.00    -0.351 OA
BRANCH  36  37
HETATM   37  C   UNL     1      42.717 -18.560   6.201  1.00  0.00     0.180 C 
BRANCH  37  38
HETATM   38  C   UNL     1      43.782 -17.860   6.989  1.00  0.00     0.010 A 
HETATM   39  C   UNL     1      43.853 -16.354   7.015  1.00  0.00     0.007 A 
HETATM   40  C   UNL     1      43.433 -17.108   8.248  1.00  0.00     0.007 A 
ENDBRANCH  37  38
ENDBRANCH  36  37
ENDBRANCH   6  36
TORSDOF 9
ENDMDL
MODEL 8
REMARK VINA RESULT:      -8.1      3.684      9.230
REMARK  9 active torsions:
REMARK  status: ('A' for Active; 'I' for Inactive)
REMARK    1  A    between atoms: C_2  and  C_3 
REMARK    2  A    between atoms: C_3  and  C_4 
REMARK       I    between atoms: C_4  and  N_6 
REMARK    3  A    between atoms: N_6  and  C_7 
REMARK    4  A    between atoms: C_11  and  C_13 
REMARK    5  A    between atoms: C_15  and  N_16 
REMARK    6  A    between atoms: N_16  and  C_17 
REMARK    7  A    between atoms: C_29  and  O_30 
REMARK    8  A    between atoms: O_30  and  C_31 
REMARK    9  A    between atoms: C_31  and  C_32 
ROOT
HETATM    1  C   UNL     1      41.960 -15.400   5.248  1.00  0.00     0.162 A 
HETATM    2  N   UNL     1      41.237 -15.684   4.157  1.00  0.00    -0.210 NA
HETATM    3  C   UNL     1      40.299 -14.801   3.775  1.00  0.00     0.143 A 
HETATM    4  C   UNL     1      40.085 -13.602   4.471  1.00  0.00     0.041 A 
HETATM    5  C   UNL     1      39.136 -12.609   4.117  1.00  0.00     0.054 A 
HETATM    6  C   UNL     1      39.004 -11.434   4.855  1.00  0.00     0.069 A 
HETATM    7  C   UNL     1      39.799 -11.259   5.979  1.00  0.00     0.039 A 
HETATM    8  C   UNL     1      40.723 -12.247   6.340  1.00  0.00     0.035 A 
HETATM    9  C   UNL     1      40.886 -13.414   5.604  1.00  0.00     0.073 A 
HETATM   10  N   UNL     1      41.804 -14.301   6.002  1.00  0.00    -0.228 NA
ENDROOT
BRANCH   1  11
HETATM   11  C   UNL     1      43.030 -16.344   5.606  1.00  0.00     0.014 A 
HETATM   12  C   UNL     1      43.918 -16.057   6.658  1.00  0.00     0.015 A 
HETATM   13  C   UNL     1      44.922 -16.953   7.021  1.00  0.00     0.003 A 
HETATM   14  C   UNL     1      45.072 -18.154   6.327  1.00  0.00     0.029 A 
HETATM   15  C   UNL     1      44.224 -18.465   5.264  1.00  0.00     0.035 A 
HETATM   16  C   UNL     1      43.206 -17.562   4.919  1.00  0.00     0.044 A 
BRANCH  15  17
HETATM   17  N   UNL     1      44.350 -19.632   4.482  1.00  0.00    -0.327 N 
HETATM   18  C   UNL     1      44.422 -20.939   4.933  1.00  0.00     0.222 C 
HETATM   19  O   UNL     1      44.289 -21.327   6.088  1.00  0.00    -0.273 OA
HETATM   20  H   UNL     1      44.379 -19.492   3.480  1.00  0.00     0.169 HD
BRANCH  18  21
HETATM   21  C   UNL     1      44.745 -21.924   3.826  1.00  0.00     0.103 C 
BRANCH  21  22
HETATM   22  C   UNL     1      44.741 -21.218   2.474  1.00  0.00     0.005 C 
HETATM   23  C   UNL     1      43.750 -21.853   1.513  1.00  0.00     0.005 C 
ENDBRANCH  21  22
ENDBRANCH  18  21
ENDBRANCH  15  17
ENDBRANCH   1  11
BRANCH   3  24
HETATM   24  N   UNL     1      39.527 -15.088   2.618  1.00  0.00    -0.340 N 
HETATM   25  H   UNL     1      38.639 -14.603   2.679  1.00  0.00     0.167 HD
BRANCH  24  26
HETATM   26  C   UNL     1      39.995 -15.189   1.286  1.00  0.00     0.034 A 
HETATM   27  C   UNL     1      40.920 -16.193   0.956  1.00  0.00     0.032 A 
HETATM   28  C   UNL     1      41.461 -16.318  -0.333  1.00  0.00     0.034 A 
HETATM   29  C   UNL     1      41.060 -15.375  -1.281  1.00  0.00     0.062 A 
HETATM   30  N   UNL     1      41.388 -15.206  -2.601  1.00  0.00    -0.278 N 
HETATM   31  C   UNL     1      40.175 -14.347  -0.991  1.00  0.00     0.013 A 
HETATM   32  H   UNL     1      42.013 -15.774  -3.159  1.00  0.00     0.189 HD
HETATM   33  N   UNL     1      40.797 -14.147  -3.184  1.00  0.00    -0.186 NA
HETATM   34  C   UNL     1      40.057 -13.627  -2.200  1.00  0.00     0.152 A 
HETATM   35  C   UNL     1      39.643 -14.242   0.307  1.00  0.00     0.044 A 
ENDBRANCH  24  26
ENDBRANCH   3  24
BRANCH   6  36
HETATM   36  O   UNL     1      38.075 -10.556   4.375  1.00  0.00    -0.351 OA
BRANCH  36  37
HETATM   37  C   UNL     1      38.478  -9.195   4.232  1.00  0.00     0.180 C 
BRANCH  37  38
HETATM   38  C   UNL     1      39.424  -9.112   3.073  1.00  0.00     0.010 A 
HETATM   39  C   UNL     1      39.565  -7.834   2.286  1.00  0.00     0.007 A 
HETATM   40  C   UNL     1      40.688  -8.298   3.173  1.00  0.00     0.007 A 
ENDBRANCH  37  38
ENDBRANCH  36  37
ENDBRANCH   6  36
TORSDOF 9
ENDMDL
MODEL 9
REMARK VINA RESULT:      -8.1      1.838      2.730
REMARK  9 active torsions:
REMARK  status: ('A' for Active; 'I' for Inactive)
REMARK    1  A    between atoms: C_2  and  C_3 
REMARK    2  A    between atoms: C_3  and  C_4 
REMARK       I    between atoms: C_4  and  N_6 
REMARK    3  A    between atoms: N_6  and  C_7 
REMARK    4  A    between atoms: C_11  and  C_13 
REMARK    5  A    between atoms: C_15  and  N_16 
REMARK    6  A    between atoms: N_16  and  C_17 
REMARK    7  A    between atoms: C_29  and  O_30 
REMARK    8  A    between atoms: O_30  and  C_31 
REMARK    9  A    between atoms: C_31  and  C_32 
ROOT
HETATM    1  C   UNL     1      43.754 -12.847   7.723  1.00  0.00     0.162 A 
HETATM    2  N   UNL     1      44.504 -13.954   7.651  1.00  0.00    -0.210 NA
HETATM    3  C   UNL     1      44.362 -14.745   6.575  1.00  0.00     0.143 A 
HETATM    4  C   UNL     1      43.476 -14.425   5.534  1.00  0.00     0.041 A 
HETATM    5  C   UNL     1      43.288 -15.191   4.356  1.00  0.00     0.054 A 
HETATM    6  C   UNL     1      42.400 -14.787   3.360  1.00  0.00     0.069 A 
HETATM    7  C   UNL     1      41.662 -13.628   3.554  1.00  0.00     0.039 A 
HETATM    8  C   UNL     1      41.833 -12.880   4.727  1.00  0.00     0.035 A 
HETATM    9  C   UNL     1      42.731 -13.254   5.719  1.00  0.00     0.073 A 
HETATM   10  N   UNL     1      42.852 -12.477   6.800  1.00  0.00    -0.228 NA
ENDROOT
BRANCH   1  11
HETATM   11  C   UNL     1      43.979 -11.959   8.874  1.00  0.00     0.014 A 
HETATM   12  C   UNL     1      45.281 -11.710   9.343  1.00  0.00     0.015 A 
HETATM   13  C   UNL     1      45.510 -10.854  10.418  1.00  0.00     0.003 A 
HETATM   14  C   UNL     1      44.437 -10.237  11.062  1.00  0.00     0.029 A 
HETATM   15  C   UNL     1      43.130 -10.475  10.638  1.00  0.00     0.035 A 
HETATM   16  C   UNL     1      42.913 -11.327   9.543  1.00  0.00     0.044 A 
BRANCH  15  17
HETATM   17  N   UNL     1      41.994  -9.932  11.273  1.00  0.00    -0.327 N 
HETATM   18  C   UNL     1      41.296  -8.791  10.911  1.00  0.00     0.222 C 
HETATM   19  O   UNL     1      41.480  -8.102   9.914  1.00  0.00    -0.273 OA
HETATM   20  H   UNL     1      41.648 -10.443  12.075  1.00  0.00     0.169 HD
BRANCH  18  21
HETATM   21  C   UNL     1      40.244  -8.400  11.931  1.00  0.00     0.103 C 
BRANCH  21  22
HETATM   22  C   UNL     1      39.321  -9.580  12.216  1.00  0.00     0.005 C 
HETATM   23  C   UNL     1      37.858  -9.189  12.093  1.00  0.00     0.005 C 
ENDBRANCH  21  22
ENDBRANCH  18  21
ENDBRANCH  15  17
ENDBRANCH   1  11
BRANCH   3  24
HETATM   24  N   UNL     1      45.153 -15.920   6.485  1.00  0.00    -0.340 N 
HETATM   25  H   UNL     1      46.038 -15.766   6.956  1.00  0.00     0.167 HD
BRANCH  24  26
HETATM   26  C   UNL     1      44.706 -17.258   6.604  1.00  0.00     0.034 A 
HETATM   27  C   UNL     1      43.987 -17.644   7.747  1.00  0.00     0.032 A 
HETATM   28  C   UNL     1      43.557 -18.964   7.951  1.00  0.00     0.034 A 
HETATM   29  C   UNL     1      43.901 -19.899   6.973  1.00  0.00     0.062 A 
HETATM   30  N   UNL     1      43.652 -21.242   6.861  1.00  0.00    -0.278 N 
HETATM   31  C   UNL     1      44.639 -19.570   5.844  1.00  0.00     0.013 A 
HETATM   32  H   UNL     1      43.136 -21.830   7.504  1.00  0.00     0.189 HD
HETATM   33  N   UNL     1      44.177 -21.810   5.759  1.00  0.00    -0.186 NA
HETATM   34  C   UNL     1      44.776 -20.787   5.142  1.00  0.00     0.152 A 
HETATM   35  C   UNL     1      45.057 -18.240   5.660  1.00  0.00     0.044 A 
ENDBRANCH  24  26
ENDBRANCH   3  24
BRANCH   6  36
HETATM   36  O   UNL     1      42.350 -15.606   2.269  1.00  0.00    -0.351 OA
BRANCH  36  37
HETATM   37  C   UNL     1      43.517 -16.372   1.976  1.00  0.00     0.180 C 
BRANCH  37  38
HETATM   38  C   UNL     1      43.084 -17.773   1.665  1.00  0.00     0.010 A 
HETATM   39  C   UNL     1      43.953 -18.946   2.039  1.00  0.00     0.007 A 
HETATM   40  C   UNL     1      42.660 -18.706   2.769  1.00  0.00     0.007 A 
ENDBRANCH  37  38
ENDBRANCH  36  37
ENDBRANCH   6  36
TORSDOF 9
ENDMDL
MODEL 10
REMARK VINA RESULT:      -8.1      2.312      3.248
REMARK  9 active torsions:
REMARK  status: ('A' for Active; 'I' for Inactive)
REMARK    1  A    between atoms: C_2  and  C_3 
REMARK    2  A    between atoms: C_3  and  C_4 
REMARK       I    between atoms: C_4  and  N_6 
REMARK    3  A    between atoms: N_6  and  C_7 
REMARK    4  A    between atoms: C_11  and  C_13 
REMARK    5  A    between atoms: C_15  and  N_16 
REMARK    6  A    between atoms: N_16  and  C_17 
REMARK    7  A    between atoms: C_29  and  O_30 
REMARK    8  A    between atoms: O_30  and  C_31 
REMARK    9  A    between atoms: C_31  and  C_32 
ROOT
HETATM    1  C   UNL     1      39.754 -11.939   5.921  1.00  0.00     0.162 A 
HETATM    2  N   UNL     1      39.852 -13.246   6.197  1.00  0.00    -0.210 NA
HETATM    3  C   UNL     1      39.881 -14.108   5.168  1.00  0.00     0.143 A 
HETATM    4  C   UNL     1      39.836 -13.670   3.835  1.00  0.00     0.041 A 
HETATM    5  C   UNL     1      39.888 -14.513   2.695  1.00  0.00     0.054 A 
HETATM    6  C   UNL     1      39.859 -13.989   1.403  1.00  0.00     0.069 A 
HETATM    7  C   UNL     1      39.737 -12.617   1.241  1.00  0.00     0.039 A 
HETATM    8  C   UNL     1      39.666 -11.785   2.367  1.00  0.00     0.035 A 
HETATM    9  C   UNL     1      39.719 -12.286   3.662  1.00  0.00     0.073 A 
HETATM   10  N   UNL     1      39.665 -11.426   4.684  1.00  0.00    -0.228 NA
ENDROOT
BRANCH   1  11
HETATM   11  C   UNL     1      39.798 -11.010   7.060  1.00  0.00     0.014 A 
HETATM   12  C   UNL     1      39.234  -9.725   6.961  1.00  0.00     0.015 A 
HETATM   13  C   UNL     1      39.249  -8.843   8.039  1.00  0.00     0.003 A 
HETATM   14  C   UNL     1      39.846  -9.220   9.242  1.00  0.00     0.029 A 
HETATM   15  C   UNL     1      40.435 -10.478   9.373  1.00  0.00     0.035 A 
HETATM   16  C   UNL     1      40.398 -11.364   8.285  1.00  0.00     0.044 A 
BRANCH  15  17
HETATM   17  N   UNL     1      41.105 -10.908  10.538  1.00  0.00    -0.327 N 
HETATM   18  C   UNL     1      42.453 -10.779  10.825  1.00  0.00     0.222 C 
HETATM   19  O   UNL     1      43.292 -10.179  10.162  1.00  0.00    -0.273 OA
HETATM   20  H   UNL     1      40.528 -11.348  11.244  1.00  0.00     0.169 HD
BRANCH  18  21
HETATM   21  C   UNL     1      42.858 -11.524  12.082  1.00  0.00     0.103 C 
BRANCH  21  22
HETATM   22  C   UNL     1      42.453 -10.730  13.320  1.00  0.00     0.005 C 
HETATM   23  C   UNL     1      43.366  -9.538  13.546  1.00  0.00     0.005 C 
ENDBRANCH  21  22
ENDBRANCH  18  21
ENDBRANCH  15  17
ENDBRANCH   1  11
BRANCH   3  24
HETATM   24  N   UNL     1      39.987 -15.496   5.446  1.00  0.00    -0.340 N 
HETATM   25  H   UNL     1      39.189 -15.980   5.050  1.00  0.00     0.167 HD
BRANCH  24  26
HETATM   26  C   UNL     1      41.164 -16.283   5.413  1.00  0.00     0.034 A 
HETATM   27  C   UNL     1      41.214 -17.411   4.577  1.00  0.00     0.032 A 
HETATM   28  C   UNL     1      42.330 -18.261   4.533  1.00  0.00     0.034 A 
HETATM   29  C   UNL     1      43.392 -17.954   5.384  1.00  0.00     0.062 A 
HETATM   30  N   UNL     1      44.603 -18.561   5.594  1.00  0.00    -0.278 N 
HETATM   31  C   UNL     1      43.373 -16.870   6.251  1.00  0.00     0.013 A 
HETATM   32  H   UNL     1      44.968 -19.386   5.135  1.00  0.00     0.189 HD
HETATM   33  N   UNL     1      45.363 -17.965   6.532  1.00  0.00    -0.186 NA
HETATM   34  C   UNL     1      44.610 -16.934   6.929  1.00  0.00     0.152 A 
HETATM   35  C   UNL     1      42.245 -16.031   6.277  1.00  0.00     0.044 A 
ENDBRANCH  24  26
ENDBRANCH   3  24
BRANCH   6  36
HETATM   36  O   UNL     1      39.952 -14.917   0.406  1.00  0.00    -0.351 OA
BRANCH  36  37
HETATM   37  C   UNL     1      41.042 -14.786  -0.505  1.00  0.00     0.180 C 
BRANCH  37  38
HETATM   38  C   UNL     1      40.475 -14.633  -1.884  1.00  0.00     0.010 A 
HETATM   39  C   UNL     1      41.384 -14.428  -3.069  1.00  0.00     0.007 A 
HETATM   40  C   UNL     1      40.643 -15.727  -2.907  1.00  0.00     0.007 A 
ENDBRANCH  37  38
ENDBRANCH  36  37
ENDBRANCH   6  36
TORSDOF 9
ENDMDL
