MODEL 1
REMARK VINA RESULT:      -8.9      0.000      0.000
REMARK  10 active torsions:
REMARK  status: ('A' for Active; 'I' for Inactive)
REMARK    1  A    between atoms: C_2  and  C_5 
REMARK    2  A    between atoms: C_5  and  C_6 
REMARK    3  A    between atoms: C_6  and  N_7 
REMARK    4  A    between atoms: N_7  and  C_10 
REMARK    5  A    between atoms: C_16  and  N_17 
REMARK       I    between atoms: N_17  and  C_18 
REMARK    6  A    between atoms: C_18  and  C_20 
REMARK    7  A    between atoms: C_24  and  C_25 
REMARK    8  A    between atoms: C_25  and  O_26 
REMARK    9  A    between atoms: O_26  and  C_27 
REMARK       I    between atoms: C_27  and  N_29 
REMARK   10  A    between atoms: N_29  and  C_30 
ROOT
HETATM    1  C   UNL     1      42.552 -15.103   5.860  1.00  0.00     0.036 A 
HETATM    2  C   UNL     1      42.904 -13.751   5.866  1.00  0.00     0.031 A 
HETATM    3  C   UNL     1      41.914 -12.761   5.829  1.00  0.00     0.025 A 
HETATM    4  C   UNL     1      40.563 -13.115   5.793  1.00  0.00     0.044 A 
HETATM    5  C   UNL     1      40.206 -14.464   5.793  1.00  0.00     0.025 A 
HETATM    6  C   UNL     1      41.196 -15.452   5.823  1.00  0.00     0.031 A 
HETATM    7  C   UNL     1      39.556 -12.096   5.749  1.00  0.00     0.099 C 
HETATM    8  N   UNL     1      38.753 -11.259   5.703  1.00  0.00    -0.191 NA
ENDROOT
BRANCH   1   9
HETATM    9  N   UNL     1      43.486 -16.151   5.879  1.00  0.00    -0.303 N 
HETATM   10  C   UNL     1      43.784 -17.007   6.900  1.00  0.00     0.365 C 
HETATM   11  O   UNL     1      43.273 -17.060   8.009  1.00  0.00    -0.238 OA
HETATM   12  H   UNL     1      44.002 -16.339   5.028  1.00  0.00     0.171 HD
BRANCH  10  13
HETATM   13  O   UNL     1      44.781 -17.831   6.480  1.00  0.00    -0.299 OA
BRANCH  13  14
HETATM   14  C   UNL     1      44.391 -19.178   6.185  1.00  0.00     0.219 C 
BRANCH  14  15
HETATM   15  C   UNL     1      44.123 -19.371   4.711  1.00  0.00    -0.033 A 
HETATM   16  C   UNL     1      44.705 -20.432   4.007  1.00  0.00     0.009 A 
HETATM   17  C   UNL     1      44.432 -20.617   2.650  1.00  0.00     0.002 A 
HETATM   18  C   UNL     1      43.563 -19.753   1.981  1.00  0.00     0.017 A 
HETATM   19  C   UNL     1      42.963 -18.698   2.679  1.00  0.00     0.033 A 
HETATM   20  C   UNL     1      43.257 -18.502   4.034  1.00  0.00     0.026 A 
BRANCH  19  21
HETATM   21  C   UNL     1      42.033 -17.743   2.031  1.00  0.00     0.257 C 
HETATM   22  N   UNL     1      42.051 -16.394   2.493  1.00  0.00    -0.303 N 
HETATM   23  H   UNL     1      42.664 -16.109   3.237  1.00  0.00     0.171 HD
HETATM   24  O   UNL     1      41.257 -18.083   1.160  1.00  0.00    -0.267 OA
BRANCH  22  25
HETATM   25  C   UNL     1      41.299 -15.434   1.964  1.00  0.00     0.152 A 
HETATM   26  N   UNL     1      39.952 -15.529   1.957  1.00  0.00    -0.339 N 
HETATM   27  C   UNL     1      39.330 -14.474   1.325  1.00  0.00     0.024 A 
HETATM   28  H   UNL     1      39.483 -16.331   2.372  1.00  0.00     0.168 HD
HETATM   29  C   UNL     1      37.860 -14.455   1.122  1.00  0.00     0.060 C 
HETATM   30  C   UNL     1      40.193 -13.515   0.870  1.00  0.00     0.011 A 
HETATM   31  C   UNL     1      37.393 -13.071   0.616  1.00  0.00     0.039 C 
HETATM   32  C   UNL     1      38.347 -12.381  -0.394  1.00  0.00     0.191 C 
HETATM   33  C   UNL     1      39.785 -12.244   0.187  1.00  0.00     0.081 C 
HETATM   34  S   UNL     1      41.803 -13.934   1.219  1.00  0.00    -0.056 SA
BRANCH  32  35
HETATM   35  N   UNL     1      38.421 -13.136  -1.714  1.00  0.00    -0.070 N 
HETATM   36  H   UNL     1      37.537 -13.071  -2.238  1.00  0.00     0.277 HD
HETATM   37  H   UNL     1      38.519 -14.140  -1.482  1.00  0.00     0.277 HD
BRANCH  35  38
HETATM   38  C   UNL     1      39.579 -12.785  -2.624  1.00  0.00     0.241 C 
BRANCH  38  39
HETATM   39  C   UNL     1      39.996 -14.019  -3.403  1.00  0.00     0.144 C 
BRANCH  39  40
HETATM   40  C   UNL     1      41.105 -14.716  -2.650  1.00  0.00     0.389 C 
HETATM   41  F   UNL     1      41.771 -15.546  -3.475  1.00  0.00    -0.171 F 
HETATM   42  F   UNL     1      40.578 -15.449  -1.649  1.00  0.00    -0.171 F 
HETATM   43  F   UNL     1      41.964 -13.827  -2.131  1.00  0.00    -0.171 F 
ENDBRANCH  39  40
ENDBRANCH  38  39
ENDBRANCH  35  38
ENDBRANCH  32  35
ENDBRANCH  22  25
ENDBRANCH  19  21
ENDBRANCH  14  15
ENDBRANCH  13  14
ENDBRANCH  10  13
ENDBRANCH   1   9
TORSDOF 10
ENDMDL
MODEL 2
REMARK VINA RESULT:      -8.8      2.052      2.689
REMARK  10 active torsions:
REMARK  status: ('A' for Active; 'I' for Inactive)
REMARK    1  A    between atoms: C_2  and  C_5 
REMARK    2  A    between atoms: C_5  and  C_6 
REMARK    3  A    between atoms: C_6  and  N_7 
REMARK    4  A    between atoms: N_7  and  C_10 
REMARK    5  A    between atoms: C_16  and  N_17 
REMARK       I    between atoms: N_17  and  C_18 
REMARK    6  A    between atoms: C_18  and  C_20 
REMARK    7  A    between atoms: C_24  and  C_25 
REMARK    8  A    between atoms: C_25  and  O_26 
REMARK    9  A    between atoms: O_26  and  C_27 
REMARK       I    between atoms: C_27  and  N_29 
REMARK   10  A    between atoms: N_29  and  C_30 
ROOT
HETATM    1  C   UNL     1      42.466 -14.957   5.714  1.00  0.00     0.036 A 
HETATM    2  C   UNL     1      42.736 -13.587   5.679  1.00  0.00     0.031 A 
HETATM    3  C   UNL     1      41.691 -12.661   5.565  1.00  0.00     0.025 A 
HETATM    4  C   UNL     1      40.366 -13.098   5.493  1.00  0.00     0.044 A 
HETATM    5  C   UNL     1      40.090 -14.466   5.533  1.00  0.00     0.025 A 
HETATM    6  C   UNL     1      41.135 -15.390   5.640  1.00  0.00     0.031 A 
HETATM    7  C   UNL     1      39.303 -12.145   5.371  1.00  0.00     0.099 C 
HETATM    8  N   UNL     1      38.454 -11.361   5.261  1.00  0.00    -0.191 NA
ENDROOT
BRANCH   1   9
HETATM    9  N   UNL     1      43.459 -15.945   5.809  1.00  0.00    -0.303 N 
HETATM   10  C   UNL     1      44.005 -16.496   6.932  1.00  0.00     0.365 C 
HETATM   11  O   UNL     1      43.717 -16.266   8.098  1.00  0.00    -0.238 OA
HETATM   12  H   UNL     1      43.817 -16.339   4.949  1.00  0.00     0.171 HD
BRANCH  10  13
HETATM   13  O   UNL     1      44.961 -17.381   6.544  1.00  0.00    -0.299 OA
BRANCH  13  14
HETATM   14  C   UNL     1      44.558 -18.756   6.506  1.00  0.00     0.219 C 
BRANCH  14  15
HETATM   15  C   UNL     1      44.441 -19.264   5.088  1.00  0.00    -0.033 A 
HETATM   16  C   UNL     1      44.781 -20.584   4.767  1.00  0.00     0.009 A 
HETATM   17  C   UNL     1      44.646 -21.053   3.459  1.00  0.00     0.002 A 
HETATM   18  C   UNL     1      44.156 -20.213   2.455  1.00  0.00     0.017 A 
HETATM   19  C   UNL     1      43.798 -18.897   2.769  1.00  0.00     0.033 A 
HETATM   20  C   UNL     1      43.957 -18.423   4.077  1.00  0.00     0.026 A 
BRANCH  19  21
HETATM   21  C   UNL     1      43.275 -17.952   1.754  1.00  0.00     0.257 C 
HETATM   22  N   UNL     1      41.996 -17.369   1.998  1.00  0.00    -0.303 N 
HETATM   23  H   UNL     1      41.469 -17.601   2.822  1.00  0.00     0.171 HD
HETATM   24  O   UNL     1      43.882 -17.695   0.733  1.00  0.00    -0.267 OA
BRANCH  22  25
HETATM   25  C   UNL     1      41.438 -16.475   1.188  1.00  0.00     0.152 A 
HETATM   26  N   UNL     1      41.425 -16.660  -0.149  1.00  0.00    -0.339 N 
HETATM   27  C   UNL     1      40.854 -15.614  -0.843  1.00  0.00     0.024 A 
HETATM   28  H   UNL     1      41.827 -17.497  -0.565  1.00  0.00     0.168 HD
HETATM   29  C   UNL     1      40.845 -15.587  -2.326  1.00  0.00     0.060 C 
HETATM   30  C   UNL     1      40.371 -14.616  -0.041  1.00  0.00     0.011 A 
HETATM   31  C   UNL     1      39.944 -14.445  -2.850  1.00  0.00     0.039 C 
HETATM   32  C   UNL     1      39.998 -13.131  -2.028  1.00  0.00     0.191 C 
HETATM   33  C   UNL     1      39.666 -13.386  -0.528  1.00  0.00     0.081 C 
HETATM   34  S   UNL     1      40.641 -14.973   1.599  1.00  0.00    -0.056 SA
BRANCH  32  35
HETATM   35  N   UNL     1      41.360 -12.457  -2.121  1.00  0.00    -0.070 N 
HETATM   36  H   UNL     1      41.500 -12.010  -3.038  1.00  0.00     0.277 HD
HETATM   37  H   UNL     1      42.071 -13.208  -2.080  1.00  0.00     0.277 HD
BRANCH  35  38
HETATM   38  C   UNL     1      41.700 -11.476  -1.019  1.00  0.00     0.241 C 
BRANCH  38  39
HETATM   39  C   UNL     1      43.181 -11.153  -1.075  1.00  0.00     0.144 C 
BRANCH  39  40
HETATM   40  C   UNL     1      43.358  -9.791  -1.704  1.00  0.00     0.389 C 
HETATM   41  F   UNL     1      43.247  -9.884  -3.043  1.00  0.00    -0.171 F 
HETATM   42  F   UNL     1      44.587  -9.318  -1.415  1.00  0.00    -0.171 F 
HETATM   43  F   UNL     1      42.441  -8.928  -1.244  1.00  0.00    -0.171 F 
ENDBRANCH  39  40
ENDBRANCH  38  39
ENDBRANCH  35  38
ENDBRANCH  32  35
ENDBRANCH  22  25
ENDBRANCH  19  21
ENDBRANCH  14  15
ENDBRANCH  13  14
ENDBRANCH  10  13
ENDBRANCH   1   9
TORSDOF 10
ENDMDL
MODEL 3
REMARK VINA RESULT:      -8.7      4.110      7.560
REMARK  10 active torsions:
REMARK  status: ('A' for Active; 'I' for Inactive)
REMARK    1  A    between atoms: C_2  and  C_5 
REMARK    2  A    between atoms: C_5  and  C_6 
REMARK    3  A    between atoms: C_6  and  N_7 
REMARK    4  A    between atoms: N_7  and  C_10 
REMARK    5  A    between atoms: C_16  and  N_17 
REMARK       I    between atoms: N_17  and  C_18 
REMARK    6  A    between atoms: C_18  and  C_20 
REMARK    7  A    between atoms: C_24  and  C_25 
REMARK    8  A    between atoms: C_25  and  O_26 
REMARK    9  A    between atoms: O_26  and  C_27 
REMARK       I    between atoms: C_27  and  N_29 
REMARK   10  A    between atoms: N_29  and  C_30 
ROOT
HETATM    1  C   UNL     1      39.995 -11.230   7.246  1.00  0.00     0.036 A 
HETATM    2  C   UNL     1      39.946 -10.080   6.454  1.00  0.00     0.031 A 
HETATM    3  C   UNL     1      39.418 -10.135   5.158  1.00  0.00     0.025 A 
HETATM    4  C   UNL     1      38.928 -11.339   4.646  1.00  0.00     0.044 A 
HETATM    5  C   UNL     1      38.968 -12.489   5.435  1.00  0.00     0.025 A 
HETATM    6  C   UNL     1      39.502 -12.434   6.728  1.00  0.00     0.031 A 
HETATM    7  C   UNL     1      38.395 -11.389   3.316  1.00  0.00     0.099 C 
HETATM    8  N   UNL     1      37.977 -11.415   2.234  1.00  0.00    -0.191 NA
ENDROOT
BRANCH   1   9
HETATM    9  N   UNL     1      40.524 -11.257   8.547  1.00  0.00    -0.303 N 
HETATM   10  C   UNL     1      40.098 -10.579   9.652  1.00  0.00     0.365 C 
HETATM   11  O   UNL     1      39.140  -9.825   9.749  1.00  0.00    -0.238 OA
HETATM   12  H   UNL     1      41.306 -11.873   8.725  1.00  0.00     0.171 HD
BRANCH  10  13
HETATM   13  O   UNL     1      40.936 -10.880  10.679  1.00  0.00    -0.299 OA
BRANCH  13  14
HETATM   14  C   UNL     1      42.054  -9.999  10.848  1.00  0.00     0.219 C 
BRANCH  14  15
HETATM   15  C   UNL     1      43.334 -10.620  10.338  1.00  0.00    -0.033 A 
HETATM   16  C   UNL     1      44.572 -10.267  10.887  1.00  0.00     0.009 A 
HETATM   17  C   UNL     1      45.748 -10.865  10.427  1.00  0.00     0.002 A 
HETATM   18  C   UNL     1      45.701 -11.833   9.421  1.00  0.00     0.017 A 
HETATM   19  C   UNL     1      44.466 -12.205   8.877  1.00  0.00     0.033 A 
HETATM   20  C   UNL     1      43.292 -11.587   9.324  1.00  0.00     0.026 A 
BRANCH  19  21
HETATM   21  C   UNL     1      44.343 -13.222   7.807  1.00  0.00     0.257 C 
HETATM   22  N   UNL     1      43.222 -13.122   6.931  1.00  0.00    -0.303 N 
HETATM   23  H   UNL     1      42.539 -12.394   7.045  1.00  0.00     0.171 HD
HETATM   24  O   UNL     1      45.139 -14.133   7.683  1.00  0.00    -0.267 OA
BRANCH  22  25
HETATM   25  C   UNL     1      43.024 -13.945   5.907  1.00  0.00     0.152 A 
HETATM   26  N   UNL     1      42.335 -15.096   6.061  1.00  0.00    -0.339 N 
HETATM   27  C   UNL     1      42.266 -15.854   4.912  1.00  0.00     0.024 A 
HETATM   28  H   UNL     1      41.937 -15.349   6.963  1.00  0.00     0.168 HD
HETATM   29  C   UNL     1      41.643 -17.201   4.914  1.00  0.00     0.060 C 
HETATM   30  C   UNL     1      42.869 -15.275   3.829  1.00  0.00     0.011 A 
HETATM   31  C   UNL     1      41.478 -17.732   3.471  1.00  0.00     0.039 C 
HETATM   32  C   UNL     1      42.643 -17.393   2.505  1.00  0.00     0.191 C 
HETATM   33  C   UNL     1      42.906 -15.859   2.450  1.00  0.00     0.081 C 
HETATM   34  S   UNL     1      43.543 -13.770   4.245  1.00  0.00    -0.056 SA
BRANCH  32  35
HETATM   35  N   UNL     1      43.934 -18.097   2.901  1.00  0.00    -0.070 N 
HETATM   36  H   UNL     1      44.500 -17.520   3.539  1.00  0.00     0.277 HD
HETATM   37  H   UNL     1      44.506 -18.183   2.043  1.00  0.00     0.277 HD
BRANCH  35  38
HETATM   38  C   UNL     1      43.790 -19.493   3.469  1.00  0.00     0.241 C 
BRANCH  38  39
HETATM   39  C   UNL     1      44.778 -20.418   2.783  1.00  0.00     0.144 C 
BRANCH  39  40
HETATM   40  C   UNL     1      44.011 -21.513   2.080  1.00  0.00     0.389 C 
HETATM   41  F   UNL     1      44.623 -21.838   0.926  1.00  0.00    -0.171 F 
HETATM   42  F   UNL     1      42.768 -21.078   1.791  1.00  0.00    -0.171 F 
HETATM   43  F   UNL     1      43.919 -22.605   2.853  1.00  0.00    -0.171 F 
ENDBRANCH  39  40
ENDBRANCH  38  39
ENDBRANCH  35  38
ENDBRANCH  32  35
ENDBRANCH  22  25
ENDBRANCH  19  21
ENDBRANCH  14  15
ENDBRANCH  13  14
ENDBRANCH  10  13
ENDBRANCH   1   9
TORSDOF 10
ENDMDL
MODEL 4
REMARK VINA RESULT:      -8.6      3.330      7.337
REMARK  10 active torsions:
REMARK  status: ('A' for Active; 'I' for Inactive)
REMARK    1  A    between atoms: C_2  and  C_5 
REMARK    2  A    between atoms: C_5  and  C_6 
REMARK    3  A    between atoms: C_6  and  N_7 
REMARK    4  A    between atoms: N_7  and  C_10 
REMARK    5  A    between atoms: C_16  and  N_17 
REMARK       I    between atoms: N_17  and  C_18 
REMARK    6  A    between atoms: C_18  and  C_20 
REMARK    7  A    between atoms: C_24  and  C_25 
REMARK    8  A    between atoms: C_25  and  O_26 
REMARK    9  A    between atoms: O_26  and  C_27 
REMARK       I    between atoms: C_27  and  N_29 
REMARK   10  A    between atoms: N_29  and  C_30 
ROOT
HETATM    1  C   UNL     1      40.411 -12.040   5.963  1.00  0.00     0.036 A 
HETATM    2  C   UNL     1      39.218 -11.768   5.291  1.00  0.00     0.031 A 
HETATM    3  C   UNL     1      39.078 -12.092   3.935  1.00  0.00     0.025 A 
HETATM    4  C   UNL     1      40.129 -12.697   3.243  1.00  0.00     0.044 A 
HETATM    5  C   UNL     1      41.322 -12.977   3.911  1.00  0.00     0.025 A 
HETATM    6  C   UNL     1      41.462 -12.647   5.264  1.00  0.00     0.031 A 
HETATM    7  C   UNL     1      39.982 -13.021   1.854  1.00  0.00     0.099 C 
HETATM    8  N   UNL     1      39.850 -13.267   0.728  1.00  0.00    -0.191 NA
ENDROOT
BRANCH   1   9
HETATM    9  N   UNL     1      40.632 -11.729   7.315  1.00  0.00    -0.303 N 
HETATM   10  C   UNL     1      41.073 -10.557   7.856  1.00  0.00     0.365 C 
HETATM   11  O   UNL     1      41.340  -9.514   7.276  1.00  0.00    -0.238 OA
HETATM   12  H   UNL     1      40.417 -12.439   8.003  1.00  0.00     0.171 HD
BRANCH  10  13
HETATM   13  O   UNL     1      41.177 -10.728   9.202  1.00  0.00    -0.299 OA
BRANCH  13  14
HETATM   14  C   UNL     1      42.288 -10.073   9.828  1.00  0.00     0.219 C 
BRANCH  14  15
HETATM   15  C   UNL     1      43.581 -10.813   9.581  1.00  0.00    -0.033 A 
HETATM   16  C   UNL     1      44.749 -10.469  10.271  1.00  0.00     0.009 A 
HETATM   17  C   UNL     1      45.935 -11.175  10.056  1.00  0.00     0.002 A 
HETATM   18  C   UNL     1      45.966 -12.245   9.158  1.00  0.00     0.017 A 
HETATM   19  C   UNL     1      44.799 -12.608   8.475  1.00  0.00     0.033 A 
HETATM   20  C   UNL     1      43.618 -11.883   8.676  1.00  0.00     0.026 A 
BRANCH  19  21
HETATM   21  C   UNL     1      44.761 -13.730   7.508  1.00  0.00     0.257 C 
HETATM   22  N   UNL     1      43.836 -14.785   7.762  1.00  0.00    -0.303 N 
HETATM   23  H   UNL     1      43.243 -14.770   8.573  1.00  0.00     0.171 HD
HETATM   24  O   UNL     1      45.503 -13.782   6.546  1.00  0.00    -0.267 OA
BRANCH  22  25
HETATM   25  C   UNL     1      43.675 -15.823   6.947  1.00  0.00     0.152 A 
HETATM   26  N   UNL     1      44.627 -16.772   6.832  1.00  0.00    -0.339 N 
HETATM   27  C   UNL     1      44.322 -17.749   5.908  1.00  0.00     0.024 A 
HETATM   28  H   UNL     1      45.483 -16.723   7.381  1.00  0.00     0.168 HD
HETATM   29  C   UNL     1      45.294 -18.816   5.565  1.00  0.00     0.060 C 
HETATM   30  C   UNL     1      43.096 -17.591   5.321  1.00  0.00     0.011 A 
HETATM   31  C   UNL     1      44.627 -19.908   4.697  1.00  0.00     0.039 C 
HETATM   32  C   UNL     1      43.609 -19.389   3.649  1.00  0.00     0.191 C 
HETATM   33  C   UNL     1      42.497 -18.528   4.316  1.00  0.00     0.081 C 
HETATM   34  S   UNL     1      42.314 -16.203   5.915  1.00  0.00    -0.056 SA
BRANCH  32  35
HETATM   35  N   UNL     1      44.283 -18.562   2.562  1.00  0.00    -0.070 N 
HETATM   36  H   UNL     1      45.246 -18.881   2.385  1.00  0.00     0.277 HD
HETATM   37  H   UNL     1      44.386 -17.602   2.935  1.00  0.00     0.277 HD
BRANCH  35  38
HETATM   38  C   UNL     1      43.537 -18.441   1.251  1.00  0.00     0.241 C 
BRANCH  38  39
HETATM   39  C   UNL     1      43.191 -16.984   1.003  1.00  0.00     0.144 C 
BRANCH  39  40
HETATM   40  C   UNL     1      41.691 -16.822   1.075  1.00  0.00     0.389 C 
HETATM   41  F   UNL     1      41.355 -16.131   2.180  1.00  0.00    -0.171 F 
HETATM   42  F   UNL     1      41.110 -18.036   1.142  1.00  0.00    -0.171 F 
HETATM   43  F   UNL     1      41.227 -16.178  -0.006  1.00  0.00    -0.171 F 
ENDBRANCH  39  40
ENDBRANCH  38  39
ENDBRANCH  35  38
ENDBRANCH  32  35
ENDBRANCH  22  25
ENDBRANCH  19  21
ENDBRANCH  14  15
ENDBRANCH  13  14
ENDBRANCH  10  13
ENDBRANCH   1   9
TORSDOF 10
ENDMDL
MODEL 5
REMARK VINA RESULT:      -8.5      2.235      5.471
REMARK  10 active torsions:
REMARK  status: ('A' for Active; 'I' for Inactive)
REMARK    1  A    between atoms: C_2  and  C_5 
REMARK    2  A    between atoms: C_5  and  C_6 
REMARK    3  A    between atoms: C_6  and  N_7 
REMARK    4  A    between atoms: N_7  and  C_10 
REMARK    5  A    between atoms: C_16  and  N_17 
REMARK       I    between atoms: N_17  and  C_18 
REMARK    6  A    between atoms: C_18  and  C_20 
REMARK    7  A    between atoms: C_24  and  C_25 
REMARK    8  A    between atoms: C_25  and  O_26 
REMARK    9  A    between atoms: O_26  and  C_27 
REMARK       I    between atoms: C_27  and  N_29 
REMARK   10  A    between atoms: N_29  and  C_30 
ROOT
HETATM    1  C   UNL     1      44.402 -18.360   5.149  1.00  0.00     0.036 A 
HETATM    2  C   UNL     1      44.786 -19.664   5.469  1.00  0.00     0.031 A 
HETATM    3  C   UNL     1      44.741 -20.674   4.500  1.00  0.00     0.025 A 
HETATM    4  C   UNL     1      44.317 -20.386   3.200  1.00  0.00     0.044 A 
HETATM    5  C   UNL     1      43.939 -19.083   2.873  1.00  0.00     0.025 A 
HETATM    6  C   UNL     1      43.978 -18.077   3.844  1.00  0.00     0.031 A 
HETATM    7  C   UNL     1      44.268 -21.426   2.215  1.00  0.00     0.099 C 
HETATM    8  N   UNL     1      44.223 -22.282   1.431  1.00  0.00    -0.191 NA
ENDROOT
BRANCH   1   9
HETATM    9  N   UNL     1      44.404 -17.299   6.069  1.00  0.00    -0.303 N 
HETATM   10  C   UNL     1      43.455 -16.975   6.994  1.00  0.00     0.365 C 
HETATM   11  O   UNL     1      42.410 -17.563   7.238  1.00  0.00    -0.238 OA
HETATM   12  H   UNL     1      45.216 -16.696   6.093  1.00  0.00     0.171 HD
BRANCH  10  13
HETATM   13  O   UNL     1      43.861 -15.847   7.636  1.00  0.00    -0.299 OA
BRANCH  13  14
HETATM   14  C   UNL     1      44.509 -14.865   6.817  1.00  0.00     0.219 C 
BRANCH  14  15
HETATM   15  C   UNL     1      43.513 -13.912   6.199  1.00  0.00    -0.033 A 
HETATM   16  C   UNL     1      42.926 -12.893   6.958  1.00  0.00     0.009 A 
HETATM   17  C   UNL     1      42.026 -12.000   6.372  1.00  0.00     0.002 A 
HETATM   18  C   UNL     1      41.710 -12.104   5.015  1.00  0.00     0.017 A 
HETATM   19  C   UNL     1      42.304 -13.109   4.243  1.00  0.00     0.033 A 
HETATM   20  C   UNL     1      43.188 -14.017   4.839  1.00  0.00     0.026 A 
BRANCH  19  21
HETATM   21  C   UNL     1      42.013 -13.279   2.800  1.00  0.00     0.257 C 
HETATM   22  N   UNL     1      40.745 -13.825   2.446  1.00  0.00    -0.303 N 
HETATM   23  H   UNL     1      40.081 -14.094   3.151  1.00  0.00     0.171 HD
HETATM   24  O   UNL     1      42.823 -12.999   1.938  1.00  0.00    -0.267 OA
BRANCH  22  25
HETATM   25  C   UNL     1      40.347 -13.985   1.188  1.00  0.00     0.152 A 
HETATM   26  N   UNL     1      40.976 -14.851   0.364  1.00  0.00    -0.339 N 
HETATM   27  C   UNL     1      40.469 -14.855  -0.919  1.00  0.00     0.024 A 
HETATM   28  H   UNL     1      41.757 -15.412   0.694  1.00  0.00     0.168 HD
HETATM   29  C   UNL     1      41.100 -15.661  -1.993  1.00  0.00     0.060 C 
HETATM   30  C   UNL     1      39.402 -14.018  -1.095  1.00  0.00     0.011 A 
HETATM   31  C   UNL     1      40.210 -15.683  -3.257  1.00  0.00     0.039 C 
HETATM   32  C   UNL     1      39.489 -14.348  -3.580  1.00  0.00     0.191 C 
HETATM   33  C   UNL     1      38.635 -13.859  -2.373  1.00  0.00     0.081 C 
HETATM   34  S   UNL     1      39.027 -13.201   0.348  1.00  0.00    -0.056 SA
BRANCH  32  35
HETATM   35  N   UNL     1      40.470 -13.249  -3.964  1.00  0.00    -0.070 N 
HETATM   36  H   UNL     1      40.665 -13.252  -4.975  1.00  0.00     0.277 HD
HETATM   37  H   UNL     1      41.374 -13.483  -3.518  1.00  0.00     0.277 HD
BRANCH  35  38
HETATM   38  C   UNL     1      40.115 -11.847  -3.518  1.00  0.00     0.241 C 
BRANCH  38  39
HETATM   39  C   UNL     1      41.350 -10.968  -3.597  1.00  0.00     0.144 C 
BRANCH  39  40
HETATM   40  C   UNL     1      42.386 -11.499  -2.635  1.00  0.00     0.389 C 
HETATM   41  F   UNL     1      42.977 -12.593  -3.150  1.00  0.00    -0.171 F 
HETATM   42  F   UNL     1      41.789 -11.847  -1.477  1.00  0.00    -0.171 F 
HETATM   43  F   UNL     1      43.321 -10.572  -2.379  1.00  0.00    -0.171 F 
ENDBRANCH  39  40
ENDBRANCH  38  39
ENDBRANCH  35  38
ENDBRANCH  32  35
ENDBRANCH  22  25
ENDBRANCH  19  21
ENDBRANCH  14  15
ENDBRANCH  13  14
ENDBRANCH  10  13
ENDBRANCH   1   9
TORSDOF 10
ENDMDL
MODEL 6
REMARK VINA RESULT:      -8.4      1.973      2.937
REMARK  10 active torsions:
REMARK  status: ('A' for Active; 'I' for Inactive)
REMARK    1  A    between atoms: C_2  and  C_5 
REMARK    2  A    between atoms: C_5  and  C_6 
REMARK    3  A    between atoms: C_6  and  N_7 
REMARK    4  A    between atoms: N_7  and  C_10 
REMARK    5  A    between atoms: C_16  and  N_17 
REMARK       I    between atoms: N_17  and  C_18 
REMARK    6  A    between atoms: C_18  and  C_20 
REMARK    7  A    between atoms: C_24  and  C_25 
REMARK    8  A    between atoms: C_25  and  O_26 
REMARK    9  A    between atoms: O_26  and  C_27 
REMARK       I    between atoms: C_27  and  N_29 
REMARK   10  A    between atoms: N_29  and  C_30 
ROOT
HETATM    1  C   UNL     1      41.483 -13.268   5.742  1.00  0.00     0.036 A 
HETATM    2  C   UNL     1      40.547 -13.655   4.779  1.00  0.00     0.031 A 
HETATM    3  C   UNL     1      39.556 -12.761   4.355  1.00  0.00     0.025 A 
HETATM    4  C   UNL     1      39.496 -11.470   4.885  1.00  0.00     0.044 A 
HETATM    5  C   UNL     1      40.432 -11.076   5.842  1.00  0.00     0.025 A 
HETATM    6  C   UNL     1      41.418 -11.972   6.270  1.00  0.00     0.031 A 
HETATM    7  C   UNL     1      38.475 -10.563   4.451  1.00  0.00     0.099 C 
HETATM    8  N   UNL     1      37.635  -9.844   4.096  1.00  0.00    -0.191 NA
ENDROOT
BRANCH   1   9
HETATM    9  N   UNL     1      42.494 -14.112   6.228  1.00  0.00    -0.303 N 
HETATM   10  C   UNL     1      43.781 -14.237   5.791  1.00  0.00     0.365 C 
HETATM   11  O   UNL     1      44.335 -13.612   4.898  1.00  0.00    -0.238 OA
HETATM   12  H   UNL     1      42.278 -14.696   7.026  1.00  0.00     0.171 HD
BRANCH  10  13
HETATM   13  O   UNL     1      44.384 -15.205   6.530  1.00  0.00    -0.299 OA
BRANCH  13  14
HETATM   14  C   UNL     1      43.635 -16.415   6.700  1.00  0.00     0.219 C 
BRANCH  14  15
HETATM   15  C   UNL     1      43.696 -17.286   5.467  1.00  0.00    -0.033 A 
HETATM   16  C   UNL     1      44.470 -18.452   5.449  1.00  0.00     0.009 A 
HETATM   17  C   UNL     1      44.501 -19.265   4.314  1.00  0.00     0.002 A 
HETATM   18  C   UNL     1      43.747 -18.931   3.185  1.00  0.00     0.017 A 
HETATM   19  C   UNL     1      42.957 -17.776   3.200  1.00  0.00     0.033 A 
HETATM   20  C   UNL     1      42.947 -16.951   4.331  1.00  0.00     0.026 A 
BRANCH  19  21
HETATM   21  C   UNL     1      42.136 -17.361   2.038  1.00  0.00     0.257 C 
HETATM   22  N   UNL     1      42.070 -15.967   1.745  1.00  0.00    -0.303 N 
HETATM   23  H   UNL     1      42.555 -15.294   2.314  1.00  0.00     0.171 HD
HETATM   24  O   UNL     1      41.510 -18.159   1.368  1.00  0.00    -0.267 OA
BRANCH  22  25
HETATM   25  C   UNL     1      41.405 -15.472   0.706  1.00  0.00     0.152 A 
HETATM   26  N   UNL     1      41.578 -15.975  -0.534  1.00  0.00    -0.339 N 
HETATM   27  C   UNL     1      40.851 -15.314  -1.502  1.00  0.00     0.024 A 
HETATM   28  H   UNL     1      42.209 -16.756  -0.698  1.00  0.00     0.168 HD
HETATM   29  C   UNL     1      40.994 -15.654  -2.939  1.00  0.00     0.060 C 
HETATM   30  C   UNL     1      40.063 -14.309  -1.012  1.00  0.00     0.011 A 
HETATM   31  C   UNL     1      39.908 -14.947  -3.781  1.00  0.00     0.039 C 
HETATM   32  C   UNL     1      39.560 -13.503  -3.334  1.00  0.00     0.191 C 
HETATM   33  C   UNL     1      39.141 -13.460  -1.835  1.00  0.00     0.081 C 
HETATM   34  S   UNL     1      40.234 -14.172   0.674  1.00  0.00    -0.056 SA
BRANCH  32  35
HETATM   35  N   UNL     1      40.725 -12.545  -3.544  1.00  0.00    -0.070 N 
HETATM   36  H   UNL     1      40.819 -12.275  -4.534  1.00  0.00     0.277 HD
HETATM   37  H   UNL     1      41.590 -13.071  -3.329  1.00  0.00     0.277 HD
BRANCH  35  38
HETATM   38  C   UNL     1      40.742 -11.307  -2.675  1.00  0.00     0.241 C 
BRANCH  38  39
HETATM   39  C   UNL     1      42.153 -10.752  -2.619  1.00  0.00     0.144 C 
BRANCH  39  40
HETATM   40  C   UNL     1      42.892 -11.416  -1.481  1.00  0.00     0.389 C 
HETATM   41  F   UNL     1      43.305 -12.642  -1.852  1.00  0.00    -0.171 F 
HETATM   42  F   UNL     1      42.065 -11.550  -0.425  1.00  0.00    -0.171 F 
HETATM   43  F   UNL     1      43.955 -10.686  -1.110  1.00  0.00    -0.171 F 
ENDBRANCH  39  40
ENDBRANCH  38  39
ENDBRANCH  35  38
ENDBRANCH  32  35
ENDBRANCH  22  25
ENDBRANCH  19  21
ENDBRANCH  14  15
ENDBRANCH  13  14
ENDBRANCH  10  13
ENDBRANCH   1   9
TORSDOF 10
ENDMDL
MODEL 7
REMARK VINA RESULT:      -8.3      1.757      2.597
REMARK  10 active torsions:
REMARK  status: ('A' for Active; 'I' for Inactive)
REMARK    1  A    between atoms: C_2  and  C_5 
REMARK    2  A    between atoms: C_5  and  C_6 
REMARK    3  A    between atoms: C_6  and  N_7 
REMARK    4  A    between atoms: N_7  and  C_10 
REMARK    5  A    between atoms: C_16  and  N_17 
REMARK       I    between atoms: N_17  and  C_18 
REMARK    6  A    between atoms: C_18  and  C_20 
REMARK    7  A    between atoms: C_24  and  C_25 
REMARK    8  A    between atoms: C_25  and  O_26 
REMARK    9  A    between atoms: O_26  and  C_27 
REMARK       I    between atoms: C_27  and  N_29 
REMARK   10  A    between atoms: N_29  and  C_30 
ROOT
HETATM    1  C   UNL     1      42.364 -15.580   5.788  1.00  0.00     0.036 A 
HETATM    2  C   UNL     1      42.718 -14.230   5.847  1.00  0.00     0.031 A 
HETATM    3  C   UNL     1      41.746 -13.236   5.684  1.00  0.00     0.025 A 
HETATM    4  C   UNL     1      40.410 -13.583   5.467  1.00  0.00     0.044 A 
HETATM    5  C   UNL     1      40.050 -14.931   5.414  1.00  0.00     0.025 A 
HETATM    6  C   UNL     1      41.024 -15.923   5.570  1.00  0.00     0.031 A 
HETATM    7  C   UNL     1      39.421 -12.560   5.295  1.00  0.00     0.099 C 
HETATM    8  N   UNL     1      38.635 -11.719   5.147  1.00  0.00    -0.191 NA
ENDROOT
BRANCH   1   9
HETATM    9  N   UNL     1      43.284 -16.633   5.925  1.00  0.00    -0.303 N 
HETATM   10  C   UNL     1      43.646 -17.303   7.058  1.00  0.00     0.365 C 
HETATM   11  O   UNL     1      43.218 -17.147   8.193  1.00  0.00    -0.238 OA
HETATM   12  H   UNL     1      43.732 -16.980   5.088  1.00  0.00     0.171 HD
BRANCH  10  13
HETATM   13  O   UNL     1      44.599 -18.213   6.721  1.00  0.00    -0.299 OA
BRANCH  13  14
HETATM   14  C   UNL     1      44.115 -19.513   6.357  1.00  0.00     0.219 C 
BRANCH  14  15
HETATM   15  C   UNL     1      44.155 -19.722   4.861  1.00  0.00    -0.033 A 
HETATM   16  C   UNL     1      44.439 -20.982   4.320  1.00  0.00     0.009 A 
HETATM   17  C   UNL     1      44.448 -21.173   2.936  1.00  0.00     0.002 A 
HETATM   18  C   UNL     1      44.161 -20.110   2.075  1.00  0.00     0.017 A 
HETATM   19  C   UNL     1      43.860 -18.851   2.607  1.00  0.00     0.033 A 
HETATM   20  C   UNL     1      43.875 -18.658   3.994  1.00  0.00     0.026 A 
BRANCH  19  21
HETATM   21  C   UNL     1      43.549 -17.681   1.753  1.00  0.00     0.257 C 
HETATM   22  N   UNL     1      42.517 -16.801   2.195  1.00  0.00    -0.303 N 
HETATM   23  H   UNL     1      42.016 -16.978   3.048  1.00  0.00     0.171 HD
HETATM   24  O   UNL     1      44.118 -17.479   0.698  1.00  0.00    -0.267 OA
BRANCH  22  25
HETATM   25  C   UNL     1      42.175 -15.696   1.542  1.00  0.00     0.152 A 
HETATM   26  N   UNL     1      42.487 -14.476   2.029  1.00  0.00    -0.339 N 
HETATM   27  C   UNL     1      42.014 -13.437   1.255  1.00  0.00     0.024 A 
HETATM   28  H   UNL     1      43.006 -14.377   2.898  1.00  0.00     0.168 HD
HETATM   29  C   UNL     1      42.164 -12.025   1.684  1.00  0.00     0.060 C 
HETATM   30  C   UNL     1      41.361 -13.843   0.123  1.00  0.00     0.011 A 
HETATM   31  C   UNL     1      41.774 -11.059   0.542  1.00  0.00     0.039 C 
HETATM   32  C   UNL     1      40.563 -11.507  -0.317  1.00  0.00     0.191 C 
HETATM   33  C   UNL     1      40.786 -12.927  -0.915  1.00  0.00     0.081 C 
HETATM   34  S   UNL     1      41.322 -15.540   0.022  1.00  0.00    -0.056 SA
BRANCH  32  35
HETATM   35  N   UNL     1      39.267 -11.510   0.483  1.00  0.00    -0.070 N 
HETATM   36  H   UNL     1      39.099 -10.600   0.935  1.00  0.00     0.277 HD
HETATM   37  H   UNL     1      39.397 -12.175   1.265  1.00  0.00     0.277 HD
BRANCH  35  38
HETATM   38  C   UNL     1      38.022 -11.948  -0.258  1.00  0.00     0.241 C 
BRANCH  38  39
HETATM   39  C   UNL     1      37.100 -12.680   0.700  1.00  0.00     0.144 C 
BRANCH  39  40
HETATM   40  C   UNL     1      37.558 -14.115   0.814  1.00  0.00     0.389 C 
HETATM   41  F   UNL     1      38.504 -14.223   1.766  1.00  0.00    -0.171 F 
HETATM   42  F   UNL     1      38.092 -14.512  -0.359  1.00  0.00    -0.171 F 
HETATM   43  F   UNL     1      36.531 -14.923   1.118  1.00  0.00    -0.171 F 
ENDBRANCH  39  40
ENDBRANCH  38  39
ENDBRANCH  35  38
ENDBRANCH  32  35
ENDBRANCH  22  25
ENDBRANCH  19  21
ENDBRANCH  14  15
ENDBRANCH  13  14
ENDBRANCH  10  13
ENDBRANCH   1   9
TORSDOF 10
ENDMDL
MODEL 8
REMARK VINA RESULT:      -8.1      5.427      9.614
REMARK  10 active torsions:
REMARK  status: ('A' for Active; 'I' for Inactive)
REMARK    1  A    between atoms: C_2  and  C_5 
REMARK    2  A    between atoms: C_5  and  C_6 
REMARK    3  A    between atoms: C_6  and  N_7 
REMARK    4  A    between atoms: N_7  and  C_10 
REMARK    5  A    between atoms: C_16  and  N_17 
REMARK       I    between atoms: N_17  and  C_18 
REMARK    6  A    between atoms: C_18  and  C_20 
REMARK    7  A    between atoms: C_24  and  C_25 
REMARK    8  A    between atoms: C_25  and  O_26 
REMARK    9  A    between atoms: O_26  and  C_27 
REMARK       I    between atoms: C_27  and  N_29 
REMARK   10  A    between atoms: N_29  and  C_30 
ROOT
HETATM    1  C   UNL     1      43.382 -17.788   2.799  1.00  0.00     0.036 A 
HETATM    2  C   UNL     1      43.349 -17.923   4.189  1.00  0.00     0.031 A 
HETATM    3  C   UNL     1      43.828 -19.089   4.798  1.00  0.00     0.025 A 
HETATM    4  C   UNL     1      44.351 -20.127   4.023  1.00  0.00     0.044 A 
HETATM    5  C   UNL     1      44.393 -19.994   2.634  1.00  0.00     0.025 A 
HETATM    6  C   UNL     1      43.907 -18.831   2.026  1.00  0.00     0.031 A 
HETATM    7  C   UNL     1      44.835 -21.320   4.654  1.00  0.00     0.099 C 
HETATM    8  N   UNL     1      45.213 -22.283   5.179  1.00  0.00    -0.191 NA
ENDROOT
BRANCH   1   9
HETATM    9  N   UNL     1      42.905 -16.657   2.115  1.00  0.00    -0.303 N 
HETATM   10  C   UNL     1      41.803 -16.549   1.317  1.00  0.00     0.365 C 
HETATM   11  O   UNL     1      40.977 -17.412   1.055  1.00  0.00    -0.238 OA
HETATM   12  H   UNL     1      43.408 -15.787   2.233  1.00  0.00     0.171 HD
BRANCH  10  13
HETATM   13  O   UNL     1      41.757 -15.279   0.834  1.00  0.00    -0.299 OA
BRANCH  13  14
HETATM   14  C   UNL     1      40.905 -15.076  -0.301  1.00  0.00     0.219 C 
BRANCH  14  15
HETATM   15  C   UNL     1      39.801 -14.090   0.001  1.00  0.00    -0.033 A 
HETATM   16  C   UNL     1      38.780 -13.847  -0.926  1.00  0.00     0.009 A 
HETATM   17  C   UNL     1      37.749 -12.954  -0.628  1.00  0.00     0.002 A 
HETATM   18  C   UNL     1      37.716 -12.300   0.606  1.00  0.00     0.017 A 
HETATM   19  C   UNL     1      38.722 -12.548   1.546  1.00  0.00     0.033 A 
HETATM   20  C   UNL     1      39.767 -13.427   1.235  1.00  0.00     0.026 A 
BRANCH  19  21
HETATM   21  C   UNL     1      38.751 -11.888   2.873  1.00  0.00     0.257 C 
HETATM   22  N   UNL     1      39.708 -12.358   3.820  1.00  0.00    -0.303 N 
HETATM   23  H   UNL     1      40.330 -13.115   3.596  1.00  0.00     0.171 HD
HETATM   24  O   UNL     1      37.976 -11.000   3.172  1.00  0.00    -0.267 OA
BRANCH  22  25
HETATM   25  C   UNL     1      39.863 -11.821   5.025  1.00  0.00     0.152 A 
HETATM   26  N   UNL     1      40.392 -10.588   5.175  1.00  0.00    -0.339 N 
HETATM   27  C   UNL     1      40.529 -10.205   6.493  1.00  0.00     0.024 A 
HETATM   28  H   UNL     1      40.667 -10.036   4.366  1.00  0.00     0.168 HD
HETATM   29  C   UNL     1      41.190  -8.928   6.859  1.00  0.00     0.060 C 
HETATM   30  C   UNL     1      40.061 -11.127   7.389  1.00  0.00     0.011 A 
HETATM   31  C   UNL     1      41.001  -8.623   8.363  1.00  0.00     0.039 C 
HETATM   32  C   UNL     1      41.071  -9.856   9.301  1.00  0.00     0.191 C 
HETATM   33  C   UNL     1      40.048 -10.950   8.877  1.00  0.00     0.081 C 
HETATM   34  S   UNL     1      39.453 -12.497   6.586  1.00  0.00    -0.056 SA
BRANCH  32  35
HETATM   35  N   UNL     1      42.464 -10.472   9.328  1.00  0.00    -0.070 N 
HETATM   36  H   UNL     1      43.196  -9.758   9.207  1.00  0.00     0.277 HD
HETATM   37  H   UNL     1      42.542 -11.077   8.492  1.00  0.00     0.277 HD
BRANCH  35  38
HETATM   38  C   UNL     1      42.791 -11.339  10.525  1.00  0.00     0.241 C 
BRANCH  38  39
HETATM   39  C   UNL     1      42.355 -10.630  11.793  1.00  0.00     0.144 C 
BRANCH  39  40
HETATM   40  C   UNL     1      43.499  -9.779  12.292  1.00  0.00     0.389 C 
HETATM   41  F   UNL     1      43.543  -9.809  13.637  1.00  0.00    -0.171 F 
HETATM   42  F   UNL     1      43.314  -8.502  11.904  1.00  0.00    -0.171 F 
HETATM   43  F   UNL     1      44.669 -10.216  11.803  1.00  0.00    -0.171 F 
ENDBRANCH  39  40
ENDBRANCH  38  39
ENDBRANCH  35  38
ENDBRANCH  32  35
ENDBRANCH  22  25
ENDBRANCH  19  21
ENDBRANCH  14  15
ENDBRANCH  13  14
ENDBRANCH  10  13
ENDBRANCH   1   9
TORSDOF 10
ENDMDL
MODEL 9
REMARK VINA RESULT:      -8.0      3.663      4.431
REMARK  10 active torsions:
REMARK  status: ('A' for Active; 'I' for Inactive)
REMARK    1  A    between atoms: C_2  and  C_5 
REMARK    2  A    between atoms: C_5  and  C_6 
REMARK    3  A    between atoms: C_6  and  N_7 
REMARK    4  A    between atoms: N_7  and  C_10 
REMARK    5  A    between atoms: C_16  and  N_17 
REMARK       I    between atoms: N_17  and  C_18 
REMARK    6  A    between atoms: C_18  and  C_20 
REMARK    7  A    between atoms: C_24  and  C_25 
REMARK    8  A    between atoms: C_25  and  O_26 
REMARK    9  A    between atoms: O_26  and  C_27 
REMARK       I    between atoms: C_27  and  N_29 
REMARK   10  A    between atoms: N_29  and  C_30 
ROOT
HETATM    1  C   UNL     1      44.234 -12.292   9.260  1.00  0.00     0.036 A 
HETATM    2  C   UNL     1      44.743 -12.209  10.558  1.00  0.00     0.031 A 
HETATM    3  C   UNL     1      44.334 -11.179  11.415  1.00  0.00     0.025 A 
HETATM    4  C   UNL     1      43.407 -10.228  10.982  1.00  0.00     0.044 A 
HETATM    5  C   UNL     1      42.891 -10.310   9.688  1.00  0.00     0.025 A 
HETATM    6  C   UNL     1      43.306 -11.335   8.831  1.00  0.00     0.031 A 
HETATM    7  C   UNL     1      42.997  -9.174  11.862  1.00  0.00     0.099 C 
HETATM    8  N   UNL     1      42.684  -8.320  12.584  1.00  0.00    -0.191 NA
ENDROOT
BRANCH   1   9
HETATM    9  N   UNL     1      44.609 -13.284   8.339  1.00  0.00    -0.303 N 
HETATM   10  C   UNL     1      44.051 -13.573   7.127  1.00  0.00     0.365 C 
HETATM   11  O   UNL     1      43.122 -13.003   6.572  1.00  0.00    -0.238 OA
HETATM   12  H   UNL     1      45.412 -13.857   8.563  1.00  0.00     0.171 HD
BRANCH  10  13
HETATM   13  O   UNL     1      44.714 -14.639   6.603  1.00  0.00    -0.299 OA
BRANCH  13  14
HETATM   14  C   UNL     1      44.289 -15.925   7.071  1.00  0.00     0.219 C 
BRANCH  14  15
HETATM   15  C   UNL     1      44.002 -16.868   5.926  1.00  0.00    -0.033 A 
HETATM   16  C   UNL     1      44.502 -18.175   5.928  1.00  0.00     0.009 A 
HETATM   17  C   UNL     1      44.210 -19.048   4.878  1.00  0.00     0.002 A 
HETATM   18  C   UNL     1      43.404 -18.631   3.816  1.00  0.00     0.017 A 
HETATM   19  C   UNL     1      42.886 -17.331   3.812  1.00  0.00     0.033 A 
HETATM   20  C   UNL     1      43.199 -16.451   4.855  1.00  0.00     0.026 A 
BRANCH  19  21
HETATM   21  C   UNL     1      42.026 -16.821   2.718  1.00  0.00     0.257 C 
HETATM   22  N   UNL     1      42.587 -15.846   1.841  1.00  0.00    -0.303 N 
HETATM   23  H   UNL     1      43.526 -15.512   1.971  1.00  0.00     0.171 HD
HETATM   24  O   UNL     1      40.875 -17.185   2.575  1.00  0.00    -0.267 OA
BRANCH  22  25
HETATM   25  C   UNL     1      41.935 -15.345   0.798  1.00  0.00     0.152 A 
HETATM   26  N   UNL     1      41.765 -16.069  -0.330  1.00  0.00    -0.339 N 
HETATM   27  C   UNL     1      41.113 -15.381  -1.331  1.00  0.00     0.024 A 
HETATM   28  H   UNL     1      42.119 -17.020  -0.397  1.00  0.00     0.168 HD
HETATM   29  C   UNL     1      40.931 -15.973  -2.680  1.00  0.00     0.060 C 
HETATM   30  C   UNL     1      40.725 -14.119  -0.974  1.00  0.00     0.011 A 
HETATM   31  C   UNL     1      39.970 -15.113  -3.532  1.00  0.00     0.039 C 
HETATM   32  C   UNL     1      40.116 -13.580  -3.347  1.00  0.00     0.191 C 
HETATM   33  C   UNL     1      39.963 -13.173  -1.852  1.00  0.00     0.081 C 
HETATM   34  S   UNL     1      41.187 -13.773   0.625  1.00  0.00    -0.056 SA
BRANCH  32  35
HETATM   35  N   UNL     1      41.455 -13.069  -3.860  1.00  0.00    -0.070 N 
HETATM   36  H   UNL     1      41.583 -13.279  -4.860  1.00  0.00     0.277 HD
HETATM   37  H   UNL     1      42.190 -13.616  -3.378  1.00  0.00     0.277 HD
BRANCH  35  38
HETATM   38  C   UNL     1      41.760 -11.609  -3.602  1.00  0.00     0.241 C 
BRANCH  38  39
HETATM   39  C   UNL     1      42.492 -11.031  -4.799  1.00  0.00     0.144 C 
BRANCH  39  40
HETATM   40  C   UNL     1      42.355  -9.527  -4.773  1.00  0.00     0.389 C 
HETATM   41  F   UNL     1      41.062  -9.179  -4.915  1.00  0.00    -0.171 F 
HETATM   42  F   UNL     1      43.052  -8.993  -5.796  1.00  0.00    -0.171 F 
HETATM   43  F   UNL     1      42.822  -9.024  -3.620  1.00  0.00    -0.171 F 
ENDBRANCH  39  40
ENDBRANCH  38  39
ENDBRANCH  35  38
ENDBRANCH  32  35
ENDBRANCH  22  25
ENDBRANCH  19  21
ENDBRANCH  14  15
ENDBRANCH  13  14
ENDBRANCH  10  13
ENDBRANCH   1   9
TORSDOF 10
ENDMDL
MODEL 10
REMARK VINA RESULT:      -7.8      6.311     10.715
REMARK  10 active torsions:
REMARK  status: ('A' for Active; 'I' for Inactive)
REMARK    1  A    between atoms: C_2  and  C_5 
REMARK    2  A    between atoms: C_5  and  C_6 
REMARK    3  A    between atoms: C_6  and  N_7 
REMARK    4  A    between atoms: N_7  and  C_10 
REMARK    5  A    between atoms: C_16  and  N_17 
REMARK       I    between atoms: N_17  and  C_18 
REMARK    6  A    between atoms: C_18  and  C_20 
REMARK    7  A    between atoms: C_24  and  C_25 
REMARK    8  A    between atoms: C_25  and  O_26 
REMARK    9  A    between atoms: O_26  and  C_27 
REMARK       I    between atoms: C_27  and  N_29 
REMARK   10  A    between atoms: N_29  and  C_30 
ROOT
HETATM    1  C   UNL     1      43.568 -17.763   2.691  1.00  0.00     0.036 A 
HETATM    2  C   UNL     1      43.983 -18.218   3.946  1.00  0.00     0.031 A 
HETATM    3  C   UNL     1      44.295 -19.569   4.141  1.00  0.00     0.025 A 
HETATM    4  C   UNL     1      44.202 -20.476   3.082  1.00  0.00     0.044 A 
HETATM    5  C   UNL     1      43.794 -20.025   1.825  1.00  0.00     0.025 A 
HETATM    6  C   UNL     1      43.476 -18.676   1.633  1.00  0.00     0.031 A 
HETATM    7  C   UNL     1      44.518 -21.858   3.291  1.00  0.00     0.099 C 
HETATM    8  N   UNL     1      44.767 -22.976   3.479  1.00  0.00    -0.191 NA
ENDROOT
BRANCH   1   9
HETATM    9  N   UNL     1      43.222 -16.429   2.423  1.00  0.00    -0.303 N 
HETATM   10  C   UNL     1      41.982 -15.898   2.215  1.00  0.00     0.365 C 
HETATM   11  O   UNL     1      40.902 -16.472   2.250  1.00  0.00    -0.238 OA
HETATM   12  H   UNL     1      43.965 -15.743   2.403  1.00  0.00     0.171 HD
BRANCH  10  13
HETATM   13  O   UNL     1      42.131 -14.573   1.949  1.00  0.00    -0.299 OA
BRANCH  13  14
HETATM   14  C   UNL     1      42.480 -13.750   3.070  1.00  0.00     0.219 C 
BRANCH  14  15
HETATM   15  C   UNL     1      41.291 -12.970   3.579  1.00  0.00    -0.033 A 
HETATM   16  C   UNL     1      40.155 -12.789   2.781  1.00  0.00     0.009 A 
HETATM   17  C   UNL     1      39.049 -12.089   3.270  1.00  0.00     0.002 A 
HETATM   18  C   UNL     1      39.059 -11.571   4.567  1.00  0.00     0.017 A 
HETATM   19  C   UNL     1      40.183 -11.760   5.379  1.00  0.00     0.033 A 
HETATM   20  C   UNL     1      41.299 -12.443   4.878  1.00  0.00     0.026 A 
BRANCH  19  21
HETATM   21  C   UNL     1      40.262 -11.236   6.762  1.00  0.00     0.257 C 
HETATM   22  N   UNL     1      41.559 -10.962   7.288  1.00  0.00    -0.303 N 
HETATM   23  H   UNL     1      42.386 -11.130   6.742  1.00  0.00     0.171 HD
HETATM   24  O   UNL     1      39.273 -11.069   7.450  1.00  0.00    -0.267 OA
BRANCH  22  25
HETATM   25  C   UNL     1      41.760 -10.449   8.497  1.00  0.00     0.152 A 
HETATM   26  N   UNL     1      42.249 -11.206   9.503  1.00  0.00    -0.339 N 
HETATM   27  C   UNL     1      42.347 -10.531  10.701  1.00  0.00     0.024 A 
HETATM   28  H   UNL     1      42.490 -12.182   9.351  1.00  0.00     0.168 HD
HETATM   29  C   UNL     1      42.761 -11.226  11.945  1.00  0.00     0.060 C 
HETATM   30  C   UNL     1      41.975  -9.217  10.629  1.00  0.00     0.011 A 
HETATM   31  C   UNL     1      43.024 -10.210  13.080  1.00  0.00     0.039 C 
HETATM   32  C   UNL     1      42.050  -9.005  13.127  1.00  0.00     0.191 C 
HETATM   33  C   UNL     1      42.024  -8.244  11.768  1.00  0.00     0.081 C 
HETATM   34  S   UNL     1      41.482  -8.813   9.052  1.00  0.00    -0.056 SA
BRANCH  32  35
HETATM   35  N   UNL     1      40.631  -9.432  13.476  1.00  0.00    -0.070 N 
HETATM   36  H   UNL     1      40.616 -10.072  14.283  1.00  0.00     0.277 HD
HETATM   37  H   UNL     1      40.282  -9.997  12.683  1.00  0.00     0.277 HD
BRANCH  35  38
HETATM   38  C   UNL     1      39.628  -8.319  13.692  1.00  0.00     0.241 C 
BRANCH  38  39
HETATM   39  C   UNL     1      39.098  -7.855  12.348  1.00  0.00     0.144 C 
BRANCH  39  40
HETATM   40  C   UNL     1      38.132  -8.890  11.823  1.00  0.00     0.389 C 
HETATM   41  F   UNL     1      38.790  -9.802  11.082  1.00  0.00    -0.171 F 
HETATM   42  F   UNL     1      37.213  -8.292  11.038  1.00  0.00    -0.171 F 
HETATM   43  F   UNL     1      37.503  -9.513  12.831  1.00  0.00    -0.171 F 
ENDBRANCH  39  40
ENDBRANCH  38  39
ENDBRANCH  35  38
ENDBRANCH  32  35
ENDBRANCH  22  25
ENDBRANCH  19  21
ENDBRANCH  14  15
ENDBRANCH  13  14
ENDBRANCH  10  13
ENDBRANCH   1   9
TORSDOF 10
ENDMDL
