MODEL 1
REMARK VINA RESULT:      -8.6      0.000      0.000
REMARK  6 active torsions:
REMARK  status: ('A' for Active; 'I' for Inactive)
REMARK    1  A    between atoms: C_5  and  C_6 
REMARK    2  A    between atoms: C_6  and  O_7 
REMARK    3  A    between atoms: C_6  and  C_8 
REMARK    4  A    between atoms: C_8  and  N_9 
REMARK       I    between atoms: N_9  and  C_10 
REMARK    5  A    between atoms: C_10  and  C_11 
REMARK    6  A    between atoms: C_11  and  C_12 
ROOT
HETATM    1  N   UNL     1      42.486 -15.311   2.064  1.00  0.00    -0.358 N 
HETATM    2  C   UNL     1      42.187 -16.412   1.290  1.00  0.00     0.222 C 
HETATM    3  O   UNL     1      41.061 -16.626   0.848  1.00  0.00    -0.273 OA
HETATM    4  H   UNL     1      43.462 -15.063   2.179  1.00  0.00     0.162 HD
ENDROOT
BRANCH   1   5
HETATM    5  C   UNL     1      41.507 -14.238   2.241  1.00  0.00     0.159 C 
BRANCH   5   6
HETATM    6  C   UNL     1      40.589 -14.432   3.467  1.00  0.00     0.169 C 
BRANCH   6   7
HETATM    7  C   UNL     1      41.332 -15.119   4.595  1.00  0.00    -0.028 A 
HETATM    8  C   UNL     1      42.449 -14.542   5.213  1.00  0.00     0.010 A 
HETATM    9  C   UNL     1      43.097 -15.191   6.269  1.00  0.00     0.007 A 
HETATM   10  C   UNL     1      42.643 -16.432   6.725  1.00  0.00    -0.062 A 
HETATM   11  C   UNL     1      43.313 -17.117   7.878  1.00  0.00     0.048 C 
HETATM   12  C   UNL     1      41.519 -17.006   6.122  1.00  0.00     0.007 A 
HETATM   13  C   UNL     1      40.873 -16.360   5.065  1.00  0.00     0.010 A 
ENDBRANCH   6   7
BRANCH   6  14
HETATM   14  O   UNL     1      39.444 -15.198   3.069  1.00  0.00    -0.389 OA
HETATM   15  H   UNL     1      39.544 -16.053   3.521  1.00  0.00     0.210 HD
ENDBRANCH   6  14
ENDBRANCH   5   6
ENDBRANCH   1   5
BRANCH   2  16
HETATM   16  C   UNL     1      43.359 -17.335   1.009  1.00  0.00     0.142 C 
BRANCH  16  17
HETATM   17  C   UNL     1      43.680 -18.297   2.123  1.00  0.00    -0.031 A 
HETATM   18  C   UNL     1      43.933 -17.892   3.427  1.00  0.00     0.125 A 
HETATM   19  N   UNL     1      44.260 -18.729   4.439  1.00  0.00    -0.260 NA
HETATM   20  C   UNL     1      44.385 -20.039   4.166  1.00  0.00     0.066 A 
HETATM   21  C   UNL     1      44.178 -20.558   2.873  1.00  0.00    -0.007 A 
HETATM   22  C   UNL     1      44.737 -20.918   5.180  1.00  0.00     0.032 A 
HETATM   23  C   UNL     1      43.822 -19.662   1.852  1.00  0.00     0.022 A 
HETATM   24  C   UNL     1      44.337 -21.935   2.631  1.00  0.00     0.014 A 
HETATM   25  C   UNL     1      44.696 -22.796   3.667  1.00  0.00     0.001 A 
HETATM   26  C   UNL     1      44.895 -22.286   4.945  1.00  0.00     0.002 A 
ENDBRANCH  16  17
ENDBRANCH   2  16
TORSDOF 6
ENDMDL
MODEL 2
REMARK VINA RESULT:      -8.5      4.875      6.089
REMARK  6 active torsions:
REMARK  status: ('A' for Active; 'I' for Inactive)
REMARK    1  A    between atoms: C_5  and  C_6 
REMARK    2  A    between atoms: C_6  and  O_7 
REMARK    3  A    between atoms: C_6  and  C_8 
REMARK    4  A    between atoms: C_8  and  N_9 
REMARK       I    between atoms: N_9  and  C_10 
REMARK    5  A    between atoms: C_10  and  C_11 
REMARK    6  A    between atoms: C_11  and  C_12 
ROOT
HETATM    1  N   UNL     1      44.232 -13.932   8.003  1.00  0.00    -0.358 N 
HETATM    2  C   UNL     1      44.144 -14.665   6.838  1.00  0.00     0.222 C 
HETATM    3  O   UNL     1      44.235 -14.155   5.725  1.00  0.00    -0.273 OA
HETATM    4  H   UNL     1      44.403 -14.433   8.867  1.00  0.00     0.162 HD
ENDROOT
BRANCH   1   5
HETATM    5  C   UNL     1      44.627 -12.524   7.967  1.00  0.00     0.159 C 
BRANCH   5   6
HETATM    6  C   UNL     1      45.559 -12.111   9.126  1.00  0.00     0.169 C 
BRANCH   6   7
HETATM    7  C   UNL     1      44.757 -11.656  10.329  1.00  0.00    -0.028 A 
HETATM    8  C   UNL     1      44.447 -10.308  10.552  1.00  0.00     0.010 A 
HETATM    9  C   UNL     1      43.683  -9.923  11.658  1.00  0.00     0.007 A 
HETATM   10  C   UNL     1      43.219 -10.879  12.568  1.00  0.00    -0.062 A 
HETATM   11  C   UNL     1      42.373 -10.476  13.738  1.00  0.00     0.048 C 
HETATM   12  C   UNL     1      43.513 -12.228  12.342  1.00  0.00     0.007 A 
HETATM   13  C   UNL     1      44.279 -12.612  11.238  1.00  0.00     0.010 A 
ENDBRANCH   6   7
BRANCH   6  14
HETATM   14  O   UNL     1      46.430 -11.069   8.669  1.00  0.00    -0.389 OA
HETATM   15  H   UNL     1      47.259 -11.519   8.433  1.00  0.00     0.210 HD
ENDBRANCH   6  14
ENDBRANCH   5   6
ENDBRANCH   1   5
BRANCH   2  16
HETATM   16  C   UNL     1      43.945 -16.157   7.034  1.00  0.00     0.142 C 
BRANCH  16  17
HETATM   17  C   UNL     1      43.703 -16.929   5.763  1.00  0.00    -0.031 A 
HETATM   18  C   UNL     1      42.726 -16.583   4.838  1.00  0.00     0.125 A 
HETATM   19  N   UNL     1      42.462 -17.279   3.708  1.00  0.00    -0.260 NA
HETATM   20  C   UNL     1      43.163 -18.400   3.473  1.00  0.00     0.066 A 
HETATM   21  C   UNL     1      44.160 -18.861   4.355  1.00  0.00    -0.007 A 
HETATM   22  C   UNL     1      42.901 -19.143   2.329  1.00  0.00     0.032 A 
HETATM   23  C   UNL     1      44.418 -18.104   5.509  1.00  0.00     0.022 A 
HETATM   24  C   UNL     1      44.856 -20.051   4.075  1.00  0.00     0.014 A 
HETATM   25  C   UNL     1      44.570 -20.781   2.922  1.00  0.00     0.001 A 
HETATM   26  C   UNL     1      43.591 -20.325   2.047  1.00  0.00     0.002 A 
ENDBRANCH  16  17
ENDBRANCH   2  16
TORSDOF 6
ENDMDL
MODEL 3
REMARK VINA RESULT:      -8.5      2.160      4.072
REMARK  6 active torsions:
REMARK  status: ('A' for Active; 'I' for Inactive)
REMARK    1  A    between atoms: C_5  and  C_6 
REMARK    2  A    between atoms: C_6  and  O_7 
REMARK    3  A    between atoms: C_6  and  C_8 
REMARK    4  A    between atoms: C_8  and  N_9 
REMARK       I    between atoms: N_9  and  C_10 
REMARK    5  A    between atoms: C_10  and  C_11 
REMARK    6  A    between atoms: C_11  and  C_12 
ROOT
HETATM    1  N   UNL     1      42.593 -15.125   5.300  1.00  0.00    -0.358 N 
HETATM    2  C   UNL     1      43.786 -14.592   5.740  1.00  0.00     0.222 C 
HETATM    3  O   UNL     1      44.273 -13.572   5.262  1.00  0.00    -0.273 OA
HETATM    4  H   UNL     1      42.129 -15.804   5.893  1.00  0.00     0.162 HD
ENDROOT
BRANCH   1   5
HETATM    5  C   UNL     1      41.751 -14.386   4.359  1.00  0.00     0.159 C 
BRANCH   5   6
HETATM    6  C   UNL     1      42.194 -14.529   2.887  1.00  0.00     0.169 C 
BRANCH   6   7
HETATM    7  C   UNL     1      42.538 -15.969   2.563  1.00  0.00    -0.028 A 
HETATM    8  C   UNL     1      43.819 -16.355   2.148  1.00  0.00     0.010 A 
HETATM    9  C   UNL     1      44.111 -17.696   1.881  1.00  0.00     0.007 A 
HETATM   10  C   UNL     1      43.125 -18.679   2.019  1.00  0.00    -0.062 A 
HETATM   11  C   UNL     1      43.441 -20.122   1.766  1.00  0.00     0.048 C 
HETATM   12  C   UNL     1      41.848 -18.301   2.447  1.00  0.00     0.007 A 
HETATM   13  C   UNL     1      41.556 -16.961   2.711  1.00  0.00     0.010 A 
ENDBRANCH   6   7
BRANCH   6  14
HETATM   14  O   UNL     1      43.319 -13.672   2.659  1.00  0.00    -0.389 OA
HETATM   15  H   UNL     1      43.883 -13.782   3.444  1.00  0.00     0.210 HD
ENDBRANCH   6  14
ENDBRANCH   5   6
ENDBRANCH   1   5
BRANCH   2  16
HETATM   16  C   UNL     1      44.448 -15.353   6.875  1.00  0.00     0.142 C 
BRANCH  16  17
HETATM   17  C   UNL     1      44.234 -16.844   6.838  1.00  0.00    -0.031 A 
HETATM   18  C   UNL     1      43.573 -17.542   7.841  1.00  0.00     0.125 A 
HETATM   19  N   UNL     1      43.400 -18.884   7.853  1.00  0.00    -0.260 NA
HETATM   20  C   UNL     1      43.928 -19.602   6.849  1.00  0.00     0.066 A 
HETATM   21  C   UNL     1      44.641 -19.003   5.792  1.00  0.00    -0.007 A 
HETATM   22  C   UNL     1      43.780 -20.982   6.844  1.00  0.00     0.032 A 
HETATM   23  C   UNL     1      44.786 -17.607   5.804  1.00  0.00     0.022 A 
HETATM   24  C   UNL     1      45.190 -19.798   4.770  1.00  0.00     0.014 A 
HETATM   25  C   UNL     1      45.032 -21.183   4.792  1.00  0.00     0.001 A 
HETATM   26  C   UNL     1      44.324 -21.777   5.831  1.00  0.00     0.002 A 
ENDBRANCH  16  17
ENDBRANCH   2  16
TORSDOF 6
ENDMDL
MODEL 4
REMARK VINA RESULT:      -8.1      2.524      5.205
REMARK  6 active torsions:
REMARK  status: ('A' for Active; 'I' for Inactive)
REMARK    1  A    between atoms: C_5  and  C_6 
REMARK    2  A    between atoms: C_6  and  O_7 
REMARK    3  A    between atoms: C_6  and  C_8 
REMARK    4  A    between atoms: C_8  and  N_9 
REMARK       I    between atoms: N_9  and  C_10 
REMARK    5  A    between atoms: C_10  and  C_11 
REMARK    6  A    between atoms: C_11  and  C_12 
ROOT
HETATM    1  N   UNL     1      44.843 -18.546   5.482  1.00  0.00    -0.358 N 
HETATM    2  C   UNL     1      44.487 -19.826   5.115  1.00  0.00     0.222 C 
HETATM    3  O   UNL     1      44.310 -20.725   5.932  1.00  0.00    -0.273 OA
HETATM    4  H   UNL     1      44.725 -17.806   4.799  1.00  0.00     0.162 HD
ENDROOT
BRANCH   1   5
HETATM    5  C   UNL     1      44.845 -18.149   6.890  1.00  0.00     0.159 C 
BRANCH   5   6
HETATM    6  C   UNL     1      43.432 -17.952   7.481  1.00  0.00     0.169 C 
BRANCH   6   7
HETATM    7  C   UNL     1      42.707 -16.821   6.780  1.00  0.00    -0.028 A 
HETATM    8  C   UNL     1      41.317 -16.821   6.605  1.00  0.00     0.010 A 
HETATM    9  C   UNL     1      40.675 -15.750   5.976  1.00  0.00     0.007 A 
HETATM   10  C   UNL     1      41.411 -14.657   5.506  1.00  0.00    -0.062 A 
HETATM   11  C   UNL     1      40.725 -13.491   4.861  1.00  0.00     0.048 C 
HETATM   12  C   UNL     1      42.798 -14.645   5.691  1.00  0.00     0.007 A 
HETATM   13  C   UNL     1      43.439 -15.717   6.317  1.00  0.00     0.010 A 
ENDBRANCH   6   7
BRANCH   6  14
HETATM   14  O   UNL     1      43.553 -17.689   8.885  1.00  0.00    -0.389 OA
HETATM   15  H   UNL     1      43.938 -18.500   9.260  1.00  0.00     0.210 HD
ENDBRANCH   6  14
ENDBRANCH   5   6
ENDBRANCH   1   5
BRANCH   2  16
HETATM   16  C   UNL     1      44.312 -20.039   3.622  1.00  0.00     0.142 C 
BRANCH  16  17
HETATM   17  C   UNL     1      43.708 -18.870   2.889  1.00  0.00    -0.031 A 
HETATM   18  C   UNL     1      44.428 -18.067   2.014  1.00  0.00     0.125 A 
HETATM   19  N   UNL     1      43.923 -16.989   1.371  1.00  0.00    -0.260 NA
HETATM   20  C   UNL     1      42.648 -16.643   1.616  1.00  0.00     0.066 A 
HETATM   21  C   UNL     1      41.831 -17.368   2.505  1.00  0.00    -0.007 A 
HETATM   22  C   UNL     1      42.108 -15.531   0.983  1.00  0.00     0.032 A 
HETATM   23  C   UNL     1      42.385 -18.491   3.140  1.00  0.00     0.022 A 
HETATM   24  C   UNL     1      40.507 -16.958   2.742  1.00  0.00     0.014 A 
HETATM   25  C   UNL     1      39.991 -15.834   2.098  1.00  0.00     0.001 A 
HETATM   26  C   UNL     1      40.793 -15.120   1.216  1.00  0.00     0.002 A 
ENDBRANCH  16  17
ENDBRANCH   2  16
TORSDOF 6
ENDMDL
MODEL 5
REMARK VINA RESULT:      -8.1      1.882      4.574
REMARK  6 active torsions:
REMARK  status: ('A' for Active; 'I' for Inactive)
REMARK    1  A    between atoms: C_5  and  C_6 
REMARK    2  A    between atoms: C_6  and  O_7 
REMARK    3  A    between atoms: C_6  and  C_8 
REMARK    4  A    between atoms: C_8  and  N_9 
REMARK       I    between atoms: N_9  and  C_10 
REMARK    5  A    between atoms: C_10  and  C_11 
REMARK    6  A    between atoms: C_11  and  C_12 
ROOT
HETATM    1  N   UNL     1      42.379 -13.962   1.858  1.00  0.00    -0.358 N 
HETATM    2  C   UNL     1      41.636 -13.155   2.694  1.00  0.00     0.222 C 
HETATM    3  O   UNL     1      40.583 -12.631   2.344  1.00  0.00    -0.273 OA
HETATM    4  H   UNL     1      43.086 -14.556   2.277  1.00  0.00     0.162 HD
ENDROOT
BRANCH   1   5
HETATM    5  C   UNL     1      41.845 -14.385   0.564  1.00  0.00     0.159 C 
BRANCH   5   6
HETATM    6  C   UNL     1      41.164 -15.771   0.596  1.00  0.00     0.169 C 
BRANCH   6   7
HETATM    7  C   UNL     1      41.982 -16.756   1.407  1.00  0.00    -0.028 A 
HETATM    8  C   UNL     1      43.246 -17.194   0.994  1.00  0.00     0.010 A 
HETATM    9  C   UNL     1      43.986 -18.085   1.778  1.00  0.00     0.007 A 
HETATM   10  C   UNL     1      43.474 -18.559   2.990  1.00  0.00    -0.062 A 
HETATM   11  C   UNL     1      44.276 -19.488   3.850  1.00  0.00     0.048 C 
HETATM   12  C   UNL     1      42.218 -18.113   3.415  1.00  0.00     0.007 A 
HETATM   13  C   UNL     1      41.477 -17.225   2.630  1.00  0.00     0.010 A 
ENDBRANCH   6   7
BRANCH   6  14
HETATM   14  O   UNL     1      40.996 -16.233  -0.750  1.00  0.00    -0.389 OA
HETATM   15  H   UNL     1      40.628 -17.130  -0.664  1.00  0.00     0.210 HD
ENDBRANCH   6  14
ENDBRANCH   5   6
ENDBRANCH   1   5
BRANCH   2  16
HETATM   16  C   UNL     1      42.210 -12.976   4.088  1.00  0.00     0.142 C 
BRANCH  16  17
HETATM   17  C   UNL     1      42.251 -14.235   4.915  1.00  0.00    -0.031 A 
HETATM   18  C   UNL     1      41.129 -14.779   5.526  1.00  0.00     0.125 A 
HETATM   19  N   UNL     1      41.142 -15.886   6.304  1.00  0.00    -0.260 NA
HETATM   20  C   UNL     1      42.321 -16.486   6.535  1.00  0.00     0.066 A 
HETATM   21  C   UNL     1      43.528 -16.006   5.989  1.00  0.00    -0.007 A 
HETATM   22  C   UNL     1      42.368 -17.614   7.344  1.00  0.00     0.032 A 
HETATM   23  C   UNL     1      43.472 -14.865   5.172  1.00  0.00     0.022 A 
HETATM   24  C   UNL     1      44.741 -16.658   6.274  1.00  0.00     0.014 A 
HETATM   25  C   UNL     1      44.760 -17.786   7.094  1.00  0.00     0.001 A 
HETATM   26  C   UNL     1      43.571 -18.265   7.629  1.00  0.00     0.002 A 
ENDBRANCH  16  17
ENDBRANCH   2  16
TORSDOF 6
ENDMDL
MODEL 6
REMARK VINA RESULT:      -7.9      2.183      4.010
REMARK  6 active torsions:
REMARK  status: ('A' for Active; 'I' for Inactive)
REMARK    1  A    between atoms: C_5  and  C_6 
REMARK    2  A    between atoms: C_6  and  O_7 
REMARK    3  A    between atoms: C_6  and  C_8 
REMARK    4  A    between atoms: C_8  and  N_9 
REMARK       I    between atoms: N_9  and  C_10 
REMARK    5  A    between atoms: C_10  and  C_11 
REMARK    6  A    between atoms: C_11  and  C_12 
ROOT
HETATM    1  N   UNL     1      43.455 -15.353   6.677  1.00  0.00    -0.358 N 
HETATM    2  C   UNL     1      43.010 -16.643   6.874  1.00  0.00     0.222 C 
HETATM    3  O   UNL     1      41.823 -16.950   6.819  1.00  0.00    -0.273 OA
HETATM    4  H   UNL     1      44.441 -15.215   6.486  1.00  0.00     0.162 HD
ENDROOT
BRANCH   1   5
HETATM    5  C   UNL     1      42.541 -14.314   6.205  1.00  0.00     0.159 C 
BRANCH   5   6
HETATM    6  C   UNL     1      42.848 -13.820   4.775  1.00  0.00     0.169 C 
BRANCH   6   7
HETATM    7  C   UNL     1      42.402 -14.837   3.744  1.00  0.00    -0.028 A 
HETATM    8  C   UNL     1      43.254 -15.298   2.733  1.00  0.00     0.010 A 
HETATM    9  C   UNL     1      42.819 -16.256   1.812  1.00  0.00     0.007 A 
HETATM   10  C   UNL     1      41.520 -16.768   1.880  1.00  0.00    -0.062 A 
HETATM   11  C   UNL     1      41.058 -17.819   0.915  1.00  0.00     0.048 C 
HETATM   12  C   UNL     1      40.668 -16.322   2.896  1.00  0.00     0.007 A 
HETATM   13  C   UNL     1      41.102 -15.363   3.815  1.00  0.00     0.010 A 
ENDBRANCH   6   7
BRANCH   6  14
HETATM   14  O   UNL     1      44.255 -13.568   4.667  1.00  0.00    -0.389 OA
HETATM   15  H   UNL     1      44.329 -12.609   4.523  1.00  0.00     0.210 HD
ENDBRANCH   6  14
ENDBRANCH   5   6
ENDBRANCH   1   5
BRANCH   2  16
HETATM   16  C   UNL     1      44.101 -17.663   7.148  1.00  0.00     0.142 C 
BRANCH  16  17
HETATM   17  C   UNL     1      44.143 -18.812   6.174  1.00  0.00    -0.031 A 
HETATM   18  C   UNL     1      44.383 -20.125   6.558  1.00  0.00     0.125 A 
HETATM   19  N   UNL     1      44.464 -21.170   5.702  1.00  0.00    -0.260 NA
HETATM   20  C   UNL     1      44.337 -20.926   4.388  1.00  0.00     0.066 A 
HETATM   21  C   UNL     1      44.117 -19.630   3.883  1.00  0.00    -0.007 A 
HETATM   22  C   UNL     1      44.433 -21.977   3.486  1.00  0.00     0.032 A 
HETATM   23  C   UNL     1      44.022 -18.573   4.802  1.00  0.00     0.022 A 
HETATM   24  C   UNL     1      44.008 -19.421   2.496  1.00  0.00     0.014 A 
HETATM   25  C   UNL     1      44.113 -20.494   1.611  1.00  0.00     0.001 A 
HETATM   26  C   UNL     1      44.325 -21.775   2.107  1.00  0.00     0.002 A 
ENDBRANCH  16  17
ENDBRANCH   2  16
TORSDOF 6
ENDMDL
MODEL 7
REMARK VINA RESULT:      -7.9      2.422      6.377
REMARK  6 active torsions:
REMARK  status: ('A' for Active; 'I' for Inactive)
REMARK    1  A    between atoms: C_5  and  C_6 
REMARK    2  A    between atoms: C_6  and  O_7 
REMARK    3  A    between atoms: C_6  and  C_8 
REMARK    4  A    between atoms: C_8  and  N_9 
REMARK       I    between atoms: N_9  and  C_10 
REMARK    5  A    between atoms: C_10  and  C_11 
REMARK    6  A    between atoms: C_11  and  C_12 
ROOT
HETATM    1  N   UNL     1      44.867 -19.360   4.865  1.00  0.00    -0.358 N 
HETATM    2  C   UNL     1      44.362 -19.376   6.148  1.00  0.00     0.222 C 
HETATM    3  O   UNL     1      43.675 -20.298   6.578  1.00  0.00    -0.273 OA
HETATM    4  H   UNL     1      45.619 -18.712   4.659  1.00  0.00     0.162 HD
ENDROOT
BRANCH   1   5
HETATM    5  C   UNL     1      44.761 -20.542   4.009  1.00  0.00     0.159 C 
BRANCH   5   6
HETATM    6  C   UNL     1      44.425 -20.214   2.538  1.00  0.00     0.169 C 
BRANCH   6   7
HETATM    7  C   UNL     1      43.693 -18.892   2.433  1.00  0.00    -0.028 A 
HETATM    8  C   UNL     1      42.417 -18.699   2.977  1.00  0.00     0.010 A 
HETATM    9  C   UNL     1      41.778 -17.459   2.884  1.00  0.00     0.007 A 
HETATM   10  C   UNL     1      42.403 -16.385   2.240  1.00  0.00    -0.062 A 
HETATM   11  C   UNL     1      41.737 -15.044   2.166  1.00  0.00     0.048 C 
HETATM   12  C   UNL     1      43.683 -16.567   1.707  1.00  0.00     0.007 A 
HETATM   13  C   UNL     1      44.319 -17.808   1.797  1.00  0.00     0.010 A 
ENDBRANCH   6   7
BRANCH   6  14
HETATM   14  O   UNL     1      43.633 -21.280   1.998  1.00  0.00    -0.389 OA
HETATM   15  H   UNL     1      43.023 -21.529   2.714  1.00  0.00     0.210 HD
ENDBRANCH   6  14
ENDBRANCH   5   6
ENDBRANCH   1   5
BRANCH   2  16
HETATM   16  C   UNL     1      44.732 -18.174   6.997  1.00  0.00     0.142 C 
BRANCH  16  17
HETATM   17  C   UNL     1      44.043 -16.893   6.605  1.00  0.00    -0.031 A 
HETATM   18  C   UNL     1      44.690 -15.665   6.558  1.00  0.00     0.125 A 
HETATM   19  N   UNL     1      44.088 -14.494   6.246  1.00  0.00    -0.260 NA
HETATM   20  C   UNL     1      42.768 -14.504   5.997  1.00  0.00     0.066 A 
HETATM   21  C   UNL     1      42.005 -15.687   6.042  1.00  0.00    -0.007 A 
HETATM   22  C   UNL     1      42.121 -13.314   5.691  1.00  0.00     0.032 A 
HETATM   23  C   UNL     1      42.667 -16.886   6.352  1.00  0.00     0.022 A 
HETATM   24  C   UNL     1      40.622 -15.646   5.790  1.00  0.00     0.014 A 
HETATM   25  C   UNL     1      39.996 -14.436   5.491  1.00  0.00     0.001 A 
HETATM   26  C   UNL     1      40.748 -13.268   5.440  1.00  0.00     0.002 A 
ENDBRANCH  16  17
ENDBRANCH   2  16
TORSDOF 6
ENDMDL
MODEL 8
REMARK VINA RESULT:      -7.9      1.252      2.028
REMARK  6 active torsions:
REMARK  status: ('A' for Active; 'I' for Inactive)
REMARK    1  A    between atoms: C_5  and  C_6 
REMARK    2  A    between atoms: C_6  and  O_7 
REMARK    3  A    between atoms: C_6  and  C_8 
REMARK    4  A    between atoms: C_8  and  N_9 
REMARK       I    between atoms: N_9  and  C_10 
REMARK    5  A    between atoms: C_10  and  C_11 
REMARK    6  A    between atoms: C_11  and  C_12 
ROOT
HETATM    1  N   UNL     1      42.336 -15.677   1.269  1.00  0.00    -0.358 N 
HETATM    2  C   UNL     1      42.288 -17.049   1.135  1.00  0.00     0.222 C 
HETATM    3  O   UNL     1      41.232 -17.670   1.055  1.00  0.00    -0.273 OA
HETATM    4  H   UNL     1      43.216 -15.212   1.076  1.00  0.00     0.162 HD
ENDROOT
BRANCH   1   5
HETATM    5  C   UNL     1      41.122 -14.873   1.133  1.00  0.00     0.159 C 
BRANCH   5   6
HETATM    6  C   UNL     1      40.488 -14.475   2.483  1.00  0.00     0.169 C 
BRANCH   6   7
HETATM    7  C   UNL     1      41.489 -14.613   3.613  1.00  0.00    -0.028 A 
HETATM    8  C   UNL     1      42.678 -13.874   3.650  1.00  0.00     0.010 A 
HETATM    9  C   UNL     1      43.569 -14.005   4.719  1.00  0.00     0.007 A 
HETATM   10  C   UNL     1      43.291 -14.883   5.772  1.00  0.00    -0.062 A 
HETATM   11  C   UNL     1      44.226 -15.004   6.937  1.00  0.00     0.048 C 
HETATM   12  C   UNL     1      42.097 -15.613   5.748  1.00  0.00     0.007 A 
HETATM   13  C   UNL     1      41.209 -15.483   4.677  1.00  0.00     0.010 A 
ENDBRANCH   6   7
BRANCH   6  14
HETATM   14  O   UNL     1      39.340 -15.302   2.715  1.00  0.00    -0.389 OA
HETATM   15  H   UNL     1      39.701 -16.168   2.974  1.00  0.00     0.210 HD
ENDBRANCH   6  14
ENDBRANCH   5   6
ENDBRANCH   1   5
BRANCH   2  16
HETATM   16  C   UNL     1      43.641 -17.735   1.077  1.00  0.00     0.142 C 
BRANCH  16  17
HETATM   17  C   UNL     1      43.922 -18.664   2.229  1.00  0.00    -0.031 A 
HETATM   18  C   UNL     1      44.403 -19.957   2.063  1.00  0.00     0.125 A 
HETATM   19  N   UNL     1      44.629 -20.826   3.075  1.00  0.00    -0.260 NA
HETATM   20  C   UNL     1      44.340 -20.433   4.327  1.00  0.00     0.066 A 
HETATM   21  C   UNL     1      43.823 -19.154   4.611  1.00  0.00    -0.007 A 
HETATM   22  C   UNL     1      44.546 -21.309   5.383  1.00  0.00     0.032 A 
HETATM   23  C   UNL     1      43.618 -18.273   3.537  1.00  0.00     0.022 A 
HETATM   24  C   UNL     1      43.519 -18.793   5.936  1.00  0.00     0.014 A 
HETATM   25  C   UNL     1      43.730 -19.694   6.978  1.00  0.00     0.001 A 
HETATM   26  C   UNL     1      44.246 -20.955   6.701  1.00  0.00     0.002 A 
ENDBRANCH  16  17
ENDBRANCH   2  16
TORSDOF 6
ENDMDL
MODEL 9
REMARK VINA RESULT:      -7.8      2.197      4.080
REMARK  6 active torsions:
REMARK  status: ('A' for Active; 'I' for Inactive)
REMARK    1  A    between atoms: C_5  and  C_6 
REMARK    2  A    between atoms: C_6  and  O_7 
REMARK    3  A    between atoms: C_6  and  C_8 
REMARK    4  A    between atoms: C_8  and  N_9 
REMARK       I    between atoms: N_9  and  C_10 
REMARK    5  A    between atoms: C_10  and  C_11 
REMARK    6  A    between atoms: C_11  and  C_12 
ROOT
HETATM    1  N   UNL     1      41.906 -14.054   6.084  1.00  0.00    -0.358 N 
HETATM    2  C   UNL     1      43.207 -14.467   5.892  1.00  0.00     0.222 C 
HETATM    3  O   UNL     1      43.974 -13.902   5.117  1.00  0.00    -0.273 OA
HETATM    4  H   UNL     1      41.417 -14.393   6.905  1.00  0.00     0.162 HD
ENDROOT
BRANCH   1   5
HETATM    5  C   UNL     1      41.431 -12.797   5.506  1.00  0.00     0.159 C 
BRANCH   5   6
HETATM    6  C   UNL     1      40.214 -12.966   4.571  1.00  0.00     0.169 C 
BRANCH   6   7
HETATM    7  C   UNL     1      40.567 -13.824   3.373  1.00  0.00    -0.028 A 
HETATM    8  C   UNL     1      41.597 -13.483   2.488  1.00  0.00     0.010 A 
HETATM    9  C   UNL     1      41.914 -14.310   1.406  1.00  0.00     0.007 A 
HETATM   10  C   UNL     1      41.203 -15.494   1.185  1.00  0.00    -0.062 A 
HETATM   11  C   UNL     1      41.560 -16.401   0.046  1.00  0.00     0.048 C 
HETATM   12  C   UNL     1      40.183 -15.848   2.074  1.00  0.00     0.007 A 
HETATM   13  C   UNL     1      39.864 -15.020   3.153  1.00  0.00     0.010 A 
ENDBRANCH   6   7
BRANCH   6  14
HETATM   14  O   UNL     1      39.768 -11.668   4.156  1.00  0.00    -0.389 OA
HETATM   15  H   UNL     1      40.103 -11.058   4.835  1.00  0.00     0.210 HD
ENDBRANCH   6  14
ENDBRANCH   5   6
ENDBRANCH   1   5
BRANCH   2  16
HETATM   16  C   UNL     1      43.630 -15.664   6.724  1.00  0.00     0.142 C 
BRANCH  16  17
HETATM   17  C   UNL     1      43.867 -16.924   5.934  1.00  0.00    -0.031 A 
HETATM   18  C   UNL     1      44.781 -17.899   6.313  1.00  0.00     0.125 A 
HETATM   19  N   UNL     1      45.041 -19.022   5.604  1.00  0.00    -0.260 NA
HETATM   20  C   UNL     1      44.402 -19.199   4.436  1.00  0.00     0.066 A 
HETATM   21  C   UNL     1      43.474 -18.263   3.940  1.00  0.00    -0.007 A 
HETATM   22  C   UNL     1      44.663 -20.333   3.680  1.00  0.00     0.032 A 
HETATM   23  C   UNL     1      43.216 -17.119   4.711  1.00  0.00     0.022 A 
HETATM   24  C   UNL     1      42.841 -18.483   2.703  1.00  0.00     0.014 A 
HETATM   25  C   UNL     1      43.125 -19.629   1.960  1.00  0.00     0.001 A 
HETATM   26  C   UNL     1      44.037 -20.556   2.450  1.00  0.00     0.002 A 
ENDBRANCH  16  17
ENDBRANCH   2  16
TORSDOF 6
ENDMDL
MODEL 10
REMARK VINA RESULT:      -7.8      2.400      3.532
REMARK  6 active torsions:
REMARK  status: ('A' for Active; 'I' for Inactive)
REMARK    1  A    between atoms: C_5  and  C_6 
REMARK    2  A    between atoms: C_6  and  O_7 
REMARK    3  A    between atoms: C_6  and  C_8 
REMARK    4  A    between atoms: C_8  and  N_9 
REMARK       I    between atoms: N_9  and  C_10 
REMARK    5  A    between atoms: C_10  and  C_11 
REMARK    6  A    between atoms: C_11  and  C_12 
ROOT
HETATM    1  N   UNL     1      40.446 -14.765   1.913  1.00  0.00    -0.358 N 
HETATM    2  C   UNL     1      40.850 -15.875   1.201  1.00  0.00     0.222 C 
HETATM    3  O   UNL     1      41.292 -15.804   0.058  1.00  0.00    -0.273 OA
HETATM    4  H   UNL     1      40.335 -14.860   2.917  1.00  0.00     0.162 HD
ENDROOT
BRANCH   1   5
HETATM    5  C   UNL     1      40.702 -13.419   1.402  1.00  0.00     0.159 C 
BRANCH   5   6
HETATM    6  C   UNL     1      42.155 -12.942   1.614  1.00  0.00     0.169 C 
BRANCH   6   7
HETATM    7  C   UNL     1      42.634 -13.272   3.013  1.00  0.00    -0.028 A 
HETATM    8  C   UNL     1      43.708 -14.140   3.249  1.00  0.00     0.010 A 
HETATM    9  C   UNL     1      44.141 -14.404   4.552  1.00  0.00     0.007 A 
HETATM   10  C   UNL     1      43.506 -13.808   5.647  1.00  0.00    -0.062 A 
HETATM   11  C   UNL     1      43.988 -14.061   7.043  1.00  0.00     0.048 C 
HETATM   12  C   UNL     1      42.443 -12.928   5.416  1.00  0.00     0.007 A 
HETATM   13  C   UNL     1      42.008 -12.667   4.115  1.00  0.00     0.010 A 
ENDBRANCH   6   7
BRANCH   6  14
HETATM   14  O   UNL     1      42.216 -11.530   1.373  1.00  0.00    -0.389 OA
HETATM   15  H   UNL     1      43.132 -11.278   1.585  1.00  0.00     0.210 HD
ENDBRANCH   6  14
ENDBRANCH   5   6
ENDBRANCH   1   5
BRANCH   2  16
HETATM   16  C   UNL     1      40.724 -17.194   1.943  1.00  0.00     0.142 C 
BRANCH  16  17
HETATM   17  C   UNL     1      41.743 -17.399   3.033  1.00  0.00    -0.031 A 
HETATM   18  C   UNL     1      43.019 -17.894   2.796  1.00  0.00     0.125 A 
HETATM   19  N   UNL     1      43.942 -18.124   3.759  1.00  0.00    -0.260 NA
HETATM   20  C   UNL     1      43.598 -17.893   5.037  1.00  0.00     0.066 A 
HETATM   21  C   UNL     1      42.322 -17.417   5.397  1.00  0.00    -0.007 A 
HETATM   22  C   UNL     1      44.518 -18.137   6.047  1.00  0.00     0.032 A 
HETATM   23  C   UNL     1      41.397 -17.173   4.369  1.00  0.00     0.022 A 
HETATM   24  C   UNL     1      42.002 -17.206   6.750  1.00  0.00     0.014 A 
HETATM   25  C   UNL     1      42.943 -17.464   7.745  1.00  0.00     0.001 A 
HETATM   26  C   UNL     1      44.205 -17.929   7.393  1.00  0.00     0.002 A 
ENDBRANCH  16  17
ENDBRANCH   2  16
TORSDOF 6
ENDMDL
