MODEL 1
REMARK VINA RESULT:      -8.9      0.000      0.000
REMARK  3 active torsions:
REMARK  status: ('A' for Active; 'I' for Inactive)
REMARK    1  A    between atoms: C_6  and  C_7 
REMARK       I    between atoms: C_7  and  N_8 
REMARK    2  A    between atoms: N_8  and  C_9 
REMARK    3  A    between atoms: C_13  and  C_14 
ROOT
HETATM    1  C   UNL     1      43.803 -15.276   6.502  1.00  0.00     0.036 A 
HETATM    2  C   UNL     1      44.102 -16.582   6.889  1.00  0.00     0.054 A 
HETATM    3  C   UNL     1      44.029 -17.645   5.969  1.00  0.00     0.050 A 
HETATM    4 CL   UNL     1      44.344 -19.224   6.612  1.00  0.00    -0.083 Cl
HETATM    5  C   UNL     1      43.664 -17.411   4.634  1.00  0.00     0.035 A 
HETATM    6  C   UNL     1      43.384 -16.085   4.253  1.00  0.00     0.019 A 
HETATM    7  C   UNL     1      43.453 -15.034   5.172  1.00  0.00     0.030 A 
ENDROOT
BRANCH   1   8
HETATM    8  N   UNL     1      43.786 -14.171   7.378  1.00  0.00    -0.323 N 
HETATM    9  C   UNL     1      44.815 -13.300   7.668  1.00  0.00     0.261 C 
HETATM   10  O   UNL     1      45.910 -13.278   7.110  1.00  0.00    -0.267 OA
HETATM   11  H   UNL     1      42.917 -14.032   7.897  1.00  0.00     0.169 HD
BRANCH   9  12
HETATM   12  C   UNL     1      44.521 -12.335   8.777  1.00  0.00     0.100 A 
HETATM   13  C   UNL     1      43.352 -11.405   8.784  1.00  0.00     0.261 A 
HETATM   14  N   UNL     1      43.189 -10.622   9.904  1.00  0.00    -0.327 N 
HETATM   15  O   UNL     1      42.567 -11.340   7.840  1.00  0.00    -0.267 OA
HETATM   16  C   UNL     1      44.030 -10.641  10.993  1.00  0.00     0.008 A 
HETATM   17  H   UNL     1      42.387 -10.003   9.895  1.00  0.00     0.169 HD
HETATM   18  C   UNL     1      43.691  -9.732  12.134  1.00  0.00     0.068 C 
HETATM   19  C   UNL     1      45.090 -11.461  10.984  1.00  0.00     0.026 A 
HETATM   20  C   UNL     1      45.334 -12.325   9.849  1.00  0.00     0.025 A 
ENDBRANCH   9  12
ENDBRANCH   1   8
BRANCH   5  21
HETATM   21  C   UNL     1      43.529 -18.463   3.629  1.00  0.00     0.183 A 
HETATM   22  N   UNL     1      42.588 -18.445   2.667  1.00  0.00    -0.152 NA
HETATM   23  N   UNL     1      42.828 -19.587   2.011  1.00  0.00    -0.263 N 
HETATM   24  H   UNL     1      42.238 -19.846   1.229  1.00  0.00     0.190 HD
HETATM   25  C   UNL     1      43.890 -20.254   2.542  1.00  0.00     0.118 A 
HETATM   26  C   UNL     1      44.377 -21.554   2.036  1.00  0.00     0.093 C 
HETATM   27  N   UNL     1      44.365 -19.553   3.546  1.00  0.00    -0.212 NA
ENDBRANCH   5  21
TORSDOF 3
ENDMDL
MODEL 2
REMARK VINA RESULT:      -8.3      1.396      1.709
REMARK  3 active torsions:
REMARK  status: ('A' for Active; 'I' for Inactive)
REMARK    1  A    between atoms: C_6  and  C_7 
REMARK       I    between atoms: C_7  and  N_8 
REMARK    2  A    between atoms: N_8  and  C_9 
REMARK    3  A    between atoms: C_13  and  C_14 
ROOT
HETATM    1  C   UNL     1      43.370 -14.531   6.184  1.00  0.00     0.036 A 
HETATM    2  C   UNL     1      43.234 -14.315   4.814  1.00  0.00     0.054 A 
HETATM    3  C   UNL     1      43.218 -15.393   3.908  1.00  0.00     0.050 A 
HETATM    4 CL   UNL     1      43.130 -14.968   2.229  1.00  0.00    -0.083 Cl
HETATM    5  C   UNL     1      43.327 -16.715   4.368  1.00  0.00     0.035 A 
HETATM    6  C   UNL     1      43.443 -16.919   5.756  1.00  0.00     0.019 A 
HETATM    7  C   UNL     1      43.464 -15.844   6.650  1.00  0.00     0.030 A 
ENDROOT
BRANCH   1   8
HETATM    8  N   UNL     1      43.464 -13.504   7.146  1.00  0.00    -0.323 N 
HETATM    9  C   UNL     1      44.597 -13.030   7.775  1.00  0.00     0.261 C 
HETATM   10  O   UNL     1      45.751 -13.359   7.510  1.00  0.00    -0.267 OA
HETATM   11  H   UNL     1      42.576 -13.098   7.447  1.00  0.00     0.169 HD
BRANCH   9  12
HETATM   12  C   UNL     1      44.332 -12.049   8.877  1.00  0.00     0.100 A 
HETATM   13  C   UNL     1      43.232 -11.039   8.847  1.00  0.00     0.261 A 
HETATM   14  N   UNL     1      43.086 -10.249   9.965  1.00  0.00    -0.327 N 
HETATM   15  O   UNL     1      42.488 -10.916   7.877  1.00  0.00    -0.267 OA
HETATM   16  C   UNL     1      43.885 -10.329  11.082  1.00  0.00     0.008 A 
HETATM   17  H   UNL     1      42.331  -9.575   9.930  1.00  0.00     0.169 HD
HETATM   18  C   UNL     1      43.571  -9.400  12.215  1.00  0.00     0.068 C 
HETATM   19  C   UNL     1      44.884 -11.222  11.107  1.00  0.00     0.026 A 
HETATM   20  C   UNL     1      45.106 -12.099   9.977  1.00  0.00     0.025 A 
ENDBRANCH   9  12
ENDBRANCH   1   8
BRANCH   5  21
HETATM   21  C   UNL     1      43.356 -17.883   3.492  1.00  0.00     0.183 A 
HETATM   22  N   UNL     1      42.546 -18.023   2.426  1.00  0.00    -0.152 NA
HETATM   23  N   UNL     1      42.905 -19.222   1.950  1.00  0.00    -0.263 N 
HETATM   24  H   UNL     1      42.428 -19.599   1.138  1.00  0.00     0.190 HD
HETATM   25  C   UNL     1      43.911 -19.771   2.686  1.00  0.00     0.118 A 
HETATM   26  C   UNL     1      44.499 -21.096   2.406  1.00  0.00     0.093 C 
HETATM   27  N   UNL     1      44.230 -18.935   3.647  1.00  0.00    -0.212 NA
ENDBRANCH   5  21
TORSDOF 3
ENDMDL
MODEL 3
REMARK VINA RESULT:      -8.3      6.442      9.183
REMARK  3 active torsions:
REMARK  status: ('A' for Active; 'I' for Inactive)
REMARK    1  A    between atoms: C_6  and  C_7 
REMARK       I    between atoms: C_7  and  N_8 
REMARK    2  A    between atoms: N_8  and  C_9 
REMARK    3  A    between atoms: C_13  and  C_14 
ROOT
HETATM    1  C   UNL     1      41.602 -16.782   0.947  1.00  0.00     0.036 A 
HETATM    2  C   UNL     1      41.136 -16.896   2.256  1.00  0.00     0.054 A 
HETATM    3  C   UNL     1      41.857 -17.622   3.222  1.00  0.00     0.050 A 
HETATM    4 CL   UNL     1      41.113 -17.749   4.783  1.00  0.00    -0.083 Cl
HETATM    5  C   UNL     1      43.073 -18.240   2.891  1.00  0.00     0.035 A 
HETATM    6  C   UNL     1      43.542 -18.100   1.571  1.00  0.00     0.019 A 
HETATM    7  C   UNL     1      42.818 -17.382   0.614  1.00  0.00     0.030 A 
ENDROOT
BRANCH   1   8
HETATM    8  N   UNL     1      40.904 -16.132  -0.093  1.00  0.00    -0.323 N 
HETATM    9  C   UNL     1      41.035 -14.827  -0.518  1.00  0.00     0.261 C 
HETATM   10  O   UNL     1      41.882 -14.029  -0.122  1.00  0.00    -0.267 OA
HETATM   11  H   UNL     1      40.180 -16.687  -0.552  1.00  0.00     0.169 HD
BRANCH   9  12
HETATM   12  C   UNL     1      40.020 -14.398  -1.533  1.00  0.00     0.100 A 
HETATM   13  C   UNL     1      40.056 -14.802  -2.971  1.00  0.00     0.261 A 
HETATM   14  N   UNL     1      39.016 -14.371  -3.763  1.00  0.00    -0.327 N 
HETATM   15  O   UNL     1      40.967 -15.489  -3.430  1.00  0.00    -0.267 OA
HETATM   16  C   UNL     1      37.970 -13.598  -3.317  1.00  0.00     0.008 A 
HETATM   17  H   UNL     1      39.054 -14.661  -4.733  1.00  0.00     0.169 HD
HETATM   18  C   UNL     1      36.914 -13.234  -4.316  1.00  0.00     0.068 C 
HETATM   19  C   UNL     1      37.941 -13.218  -2.032  1.00  0.00     0.026 A 
HETATM   20  C   UNL     1      38.990 -13.632  -1.126  1.00  0.00     0.025 A 
ENDBRANCH   9  12
ENDBRANCH   1   8
BRANCH   5  21
HETATM   21  C   UNL     1      43.862 -19.041   3.824  1.00  0.00     0.183 A 
HETATM   22  N   UNL     1      44.522 -18.511   4.871  1.00  0.00    -0.152 NA
HETATM   23  N   UNL     1      45.103 -19.588   5.416  1.00  0.00    -0.263 N 
HETATM   24  H   UNL     1      45.696 -19.475   6.230  1.00  0.00     0.190 HD
HETATM   25  C   UNL     1      44.782 -20.725   4.739  1.00  0.00     0.118 A 
HETATM   26  C   UNL     1      45.290 -22.064   5.101  1.00  0.00     0.093 C 
HETATM   27  N   UNL     1      43.980 -20.410   3.748  1.00  0.00    -0.212 NA
ENDBRANCH   5  21
TORSDOF 3
ENDMDL
MODEL 4
REMARK VINA RESULT:      -7.8      6.327      9.084
REMARK  3 active torsions:
REMARK  status: ('A' for Active; 'I' for Inactive)
REMARK    1  A    between atoms: C_6  and  C_7 
REMARK       I    between atoms: C_7  and  N_8 
REMARK    2  A    between atoms: N_8  and  C_9 
REMARK    3  A    between atoms: C_13  and  C_14 
ROOT
HETATM    1  C   UNL     1      41.407 -16.532   1.429  1.00  0.00     0.036 A 
HETATM    2  C   UNL     1      40.473 -15.642   1.957  1.00  0.00     0.054 A 
HETATM    3  C   UNL     1      39.834 -14.691   1.139  1.00  0.00     0.050 A 
HETATM    4 CL   UNL     1      38.763 -13.595   1.949  1.00  0.00    -0.083 Cl
HETATM    5  C   UNL     1      40.116 -14.626  -0.235  1.00  0.00     0.035 A 
HETATM    6  C   UNL     1      41.045 -15.544  -0.758  1.00  0.00     0.019 A 
HETATM    7  C   UNL     1      41.681 -16.483   0.061  1.00  0.00     0.030 A 
ENDROOT
BRANCH   1   8
HETATM    8  N   UNL     1      42.139 -17.464   2.193  1.00  0.00    -0.323 N 
HETATM    9  C   UNL     1      43.507 -17.553   2.343  1.00  0.00     0.261 C 
HETATM   10  O   UNL     1      44.326 -16.744   1.911  1.00  0.00    -0.267 OA
HETATM   11  H   UNL     1      41.586 -18.191   2.652  1.00  0.00     0.169 HD
BRANCH   9  12
HETATM   12  C   UNL     1      43.975 -18.768   3.085  1.00  0.00     0.100 A 
HETATM   13  C   UNL     1      44.248 -18.794   4.554  1.00  0.00     0.261 A 
HETATM   14  N   UNL     1      44.615 -20.005   5.094  1.00  0.00    -0.327 N 
HETATM   15  O   UNL     1      44.147 -17.787   5.251  1.00  0.00    -0.267 OA
HETATM   16  C   UNL     1      44.752 -21.169   4.373  1.00  0.00     0.008 A 
HETATM   17  H   UNL     1      44.789 -20.005   6.093  1.00  0.00     0.169 HD
HETATM   18  C   UNL     1      45.144 -22.400   5.130  1.00  0.00     0.068 C 
HETATM   19  C   UNL     1      44.525 -21.147   3.052  1.00  0.00     0.026 A 
HETATM   20  C   UNL     1      44.127 -19.918   2.401  1.00  0.00     0.025 A 
ENDBRANCH   9  12
ENDBRANCH   1   8
BRANCH   5  21
HETATM   21  C   UNL     1      39.523 -13.646  -1.143  1.00  0.00     0.183 A 
HETATM   22  N   UNL     1      39.976 -12.384  -1.258  1.00  0.00    -0.152 NA
HETATM   23  N   UNL     1      39.140 -11.863  -2.165  1.00  0.00    -0.263 N 
HETATM   24  H   UNL     1      39.239 -10.891  -2.434  1.00  0.00     0.190 HD
HETATM   25  C   UNL     1      38.236 -12.785  -2.598  1.00  0.00     0.118 A 
HETATM   26  C   UNL     1      37.178 -12.492  -3.587  1.00  0.00     0.093 C 
HETATM   27  N   UNL     1      38.474 -13.923  -1.988  1.00  0.00    -0.212 NA
ENDBRANCH   5  21
TORSDOF 3
ENDMDL
MODEL 5
REMARK VINA RESULT:      -7.7      6.430      9.244
REMARK  3 active torsions:
REMARK  status: ('A' for Active; 'I' for Inactive)
REMARK    1  A    between atoms: C_6  and  C_7 
REMARK       I    between atoms: C_7  and  N_8 
REMARK    2  A    between atoms: N_8  and  C_9 
REMARK    3  A    between atoms: C_13  and  C_14 
ROOT
HETATM    1  C   UNL     1      41.618 -16.348   1.231  1.00  0.00     0.036 A 
HETATM    2  C   UNL     1      41.684 -16.301  -0.161  1.00  0.00     0.054 A 
HETATM    3  C   UNL     1      40.904 -15.386  -0.893  1.00  0.00     0.050 A 
HETATM    4 CL   UNL     1      41.026 -15.500  -2.619  1.00  0.00    -0.083 Cl
HETATM    5  C   UNL     1      40.047 -14.490  -0.234  1.00  0.00     0.035 A 
HETATM    6  C   UNL     1      40.005 -14.536   1.171  1.00  0.00     0.019 A 
HETATM    7  C   UNL     1      40.778 -15.450   1.893  1.00  0.00     0.030 A 
ENDROOT
BRANCH   1   8
HETATM    8  N   UNL     1      42.314 -17.280   2.029  1.00  0.00    -0.323 N 
HETATM    9  C   UNL     1      43.651 -17.612   1.977  1.00  0.00     0.261 C 
HETATM   10  O   UNL     1      44.499 -17.055   1.283  1.00  0.00    -0.267 OA
HETATM   11  H   UNL     1      41.743 -17.806   2.693  1.00  0.00     0.169 HD
BRANCH   9  12
HETATM   12  C   UNL     1      44.040 -18.769   2.847  1.00  0.00     0.100 A 
HETATM   13  C   UNL     1      44.152 -18.693   4.335  1.00  0.00     0.261 A 
HETATM   14  N   UNL     1      44.463 -19.861   4.993  1.00  0.00    -0.327 N 
HETATM   15  O   UNL     1      43.973 -17.642   4.947  1.00  0.00    -0.267 OA
HETATM   16  C   UNL     1      44.680 -21.069   4.373  1.00  0.00     0.008 A 
HETATM   17  H   UNL     1      44.527 -19.791   6.002  1.00  0.00     0.169 HD
HETATM   18  C   UNL     1      44.992 -22.242   5.250  1.00  0.00     0.068 C 
HETATM   19  C   UNL     1      44.597 -21.139   3.037  1.00  0.00     0.026 A 
HETATM   20  C   UNL     1      44.268 -19.961   2.263  1.00  0.00     0.025 A 
ENDBRANCH   9  12
ENDBRANCH   1   8
BRANCH   5  21
HETATM   21  C   UNL     1      39.178 -13.538  -0.923  1.00  0.00     0.183 A 
HETATM   22  N   UNL     1      38.061 -13.903  -1.578  1.00  0.00    -0.152 NA
HETATM   23  N   UNL     1      37.614 -12.733  -2.054  1.00  0.00    -0.263 N 
HETATM   24  H   UNL     1      36.774 -12.714  -2.621  1.00  0.00     0.190 HD
HETATM   25  C   UNL     1      38.418 -11.701  -1.676  1.00  0.00     0.118 A 
HETATM   26  C   UNL     1      38.184 -10.296  -2.068  1.00  0.00     0.093 C 
HETATM   27  N   UNL     1      39.395 -12.179  -0.941  1.00  0.00    -0.212 NA
ENDBRANCH   5  21
TORSDOF 3
ENDMDL
MODEL 6
REMARK VINA RESULT:      -7.6      5.149      8.902
REMARK  3 active torsions:
REMARK  status: ('A' for Active; 'I' for Inactive)
REMARK    1  A    between atoms: C_6  and  C_7 
REMARK       I    between atoms: C_7  and  N_8 
REMARK    2  A    between atoms: N_8  and  C_9 
REMARK    3  A    between atoms: C_13  and  C_14 
ROOT
HETATM    1  C   UNL     1      41.457 -15.674   3.614  1.00  0.00     0.036 A 
HETATM    2  C   UNL     1      40.405 -15.689   2.700  1.00  0.00     0.054 A 
HETATM    3  C   UNL     1      39.588 -14.557   2.516  1.00  0.00     0.050 A 
HETATM    4 CL   UNL     1      38.267 -14.750   1.410  1.00  0.00    -0.083 Cl
HETATM    5  C   UNL     1      39.824 -13.380   3.244  1.00  0.00     0.035 A 
HETATM    6  C   UNL     1      40.902 -13.373   4.149  1.00  0.00     0.019 A 
HETATM    7  C   UNL     1      41.706 -14.502   4.331  1.00  0.00     0.030 A 
ENDROOT
BRANCH   1   8
HETATM    8  N   UNL     1      42.274 -16.786   3.905  1.00  0.00    -0.323 N 
HETATM    9  C   UNL     1      43.347 -17.265   3.182  1.00  0.00     0.261 C 
HETATM   10  O   UNL     1      43.846 -16.720   2.200  1.00  0.00    -0.267 OA
HETATM   11  H   UNL     1      42.004 -17.330   4.727  1.00  0.00     0.169 HD
BRANCH   9  12
HETATM   12  C   UNL     1      43.893 -18.573   3.671  1.00  0.00     0.100 A 
HETATM   13  C   UNL     1      44.288 -18.833   5.088  1.00  0.00     0.261 A 
HETATM   14  N   UNL     1      44.718 -20.106   5.387  1.00  0.00    -0.327 N 
HETATM   15  O   UNL     1      44.231 -17.959   5.950  1.00  0.00    -0.267 OA
HETATM   16  C   UNL     1      44.811 -21.130   4.473  1.00  0.00     0.008 A 
HETATM   17  H   UNL     1      44.974 -20.267   6.355  1.00  0.00     0.169 HD
HETATM   18  C   UNL     1      45.284 -22.458   4.979  1.00  0.00     0.068 C 
HETATM   19  C   UNL     1      44.474 -20.896   3.197  1.00  0.00     0.026 A 
HETATM   20  C   UNL     1      44.005 -19.588   2.794  1.00  0.00     0.025 A 
ENDBRANCH   9  12
ENDBRANCH   1   8
BRANCH   5  21
HETATM   21  C   UNL     1      39.001 -12.177   3.138  1.00  0.00     0.183 A 
HETATM   22  N   UNL     1      38.500 -11.533   4.209  1.00  0.00    -0.152 NA
HETATM   23  N   UNL     1      37.814 -10.531   3.643  1.00  0.00    -0.263 N 
HETATM   24  H   UNL     1      37.304  -9.882   4.232  1.00  0.00     0.190 HD
HETATM   25  C   UNL     1      37.921 -10.557   2.286  1.00  0.00     0.118 A 
HETATM   26  C   UNL     1      37.257  -9.584   1.395  1.00  0.00     0.093 C 
HETATM   27  N   UNL     1      38.685 -11.569   1.945  1.00  0.00    -0.212 NA
ENDBRANCH   5  21
TORSDOF 3
ENDMDL
MODEL 7
REMARK VINA RESULT:      -7.6      3.616      3.959
REMARK  3 active torsions:
REMARK  status: ('A' for Active; 'I' for Inactive)
REMARK    1  A    between atoms: C_6  and  C_7 
REMARK       I    between atoms: C_7  and  N_8 
REMARK    2  A    between atoms: N_8  and  C_9 
REMARK    3  A    between atoms: C_13  and  C_14 
ROOT
HETATM    1  C   UNL     1      42.221 -15.392   5.308  1.00  0.00     0.036 A 
HETATM    2  C   UNL     1      42.764 -15.483   4.027  1.00  0.00     0.054 A 
HETATM    3  C   UNL     1      43.305 -16.694   3.554  1.00  0.00     0.050 A 
HETATM    4 CL   UNL     1      44.021 -16.636   1.976  1.00  0.00    -0.083 Cl
HETATM    5  C   UNL     1      43.299 -17.843   4.361  1.00  0.00     0.035 A 
HETATM    6  C   UNL     1      42.731 -17.740   5.644  1.00  0.00     0.019 A 
HETATM    7  C   UNL     1      42.199 -16.534   6.110  1.00  0.00     0.030 A 
ENDROOT
BRANCH   1   8
HETATM    8  N   UNL     1      41.724 -14.201   5.878  1.00  0.00    -0.323 N 
HETATM    9  C   UNL     1      40.449 -13.684   5.789  1.00  0.00     0.261 C 
HETATM   10  O   UNL     1      39.484 -14.247   5.277  1.00  0.00    -0.267 OA
HETATM   11  H   UNL     1      42.410 -13.631   6.377  1.00  0.00     0.169 HD
BRANCH   9  12
HETATM   12  C   UNL     1      40.293 -12.308   6.365  1.00  0.00     0.100 A 
HETATM   13  C   UNL     1      40.915 -11.084   5.777  1.00  0.00     0.261 A 
HETATM   14  N   UNL     1      40.628  -9.887   6.393  1.00  0.00    -0.327 N 
HETATM   15  O   UNL     1      41.644 -11.135   4.789  1.00  0.00    -0.267 OA
HETATM   16  C   UNL     1      39.824  -9.756   7.502  1.00  0.00     0.008 A 
HETATM   17  H   UNL     1      41.051  -9.066   5.976  1.00  0.00     0.169 HD
HETATM   18  C   UNL     1      39.607  -8.372   8.031  1.00  0.00     0.068 C 
HETATM   19  C   UNL     1      39.279 -10.854   8.043  1.00  0.00     0.026 A 
HETATM   20  C   UNL     1      39.521 -12.155   7.457  1.00  0.00     0.025 A 
ENDBRANCH   9  12
ENDBRANCH   1   8
BRANCH   5  21
HETATM   21  C   UNL     1      43.874 -19.124   3.958  1.00  0.00     0.183 A 
HETATM   22  N   UNL     1      44.776 -19.791   4.701  1.00  0.00    -0.152 NA
HETATM   23  N   UNL     1      45.025 -20.870   3.948  1.00  0.00    -0.263 N 
HETATM   24  H   UNL     1      45.703 -21.553   4.265  1.00  0.00     0.190 HD
HETATM   25  C   UNL     1      44.280 -20.865   2.808  1.00  0.00     0.118 A 
HETATM   26  C   UNL     1      44.356 -21.920   1.777  1.00  0.00     0.093 C 
HETATM   27  N   UNL     1      43.528 -19.789   2.804  1.00  0.00    -0.212 NA
ENDBRANCH   5  21
TORSDOF 3
ENDMDL
MODEL 8
REMARK VINA RESULT:      -7.5      2.791      9.169
REMARK  3 active torsions:
REMARK  status: ('A' for Active; 'I' for Inactive)
REMARK    1  A    between atoms: C_6  and  C_7 
REMARK       I    between atoms: C_7  and  N_8 
REMARK    2  A    between atoms: N_8  and  C_9 
REMARK    3  A    between atoms: C_13  and  C_14 
ROOT
HETATM    1  C   UNL     1      43.712 -14.981   5.978  1.00  0.00     0.036 A 
HETATM    2  C   UNL     1      42.857 -13.882   5.910  1.00  0.00     0.054 A 
HETATM    3  C   UNL     1      42.978 -12.812   6.817  1.00  0.00     0.050 A 
HETATM    4 CL   UNL     1      41.792 -11.556   6.666  1.00  0.00    -0.083 Cl
HETATM    5  C   UNL     1      43.973 -12.823   7.807  1.00  0.00     0.035 A 
HETATM    6  C   UNL     1      44.841 -13.929   7.852  1.00  0.00     0.019 A 
HETATM    7  C   UNL     1      44.713 -14.992   6.951  1.00  0.00     0.030 A 
ENDROOT
BRANCH   1   8
HETATM    8  N   UNL     1      43.610 -16.120   5.153  1.00  0.00    -0.323 N 
HETATM    9  C   UNL     1      43.064 -17.348   5.464  1.00  0.00     0.261 C 
HETATM   10  O   UNL     1      42.461 -17.620   6.500  1.00  0.00    -0.267 OA
HETATM   11  H   UNL     1      44.039 -16.037   4.230  1.00  0.00     0.169 HD
BRANCH   9  12
HETATM   12  C   UNL     1      43.272 -18.404   4.419  1.00  0.00     0.100 A 
HETATM   13  C   UNL     1      42.636 -18.376   3.068  1.00  0.00     0.261 A 
HETATM   14  N   UNL     1      42.975 -19.391   2.203  1.00  0.00    -0.327 N 
HETATM   15  O   UNL     1      41.850 -17.490   2.738  1.00  0.00    -0.267 OA
HETATM   16  C   UNL     1      43.842 -20.414   2.507  1.00  0.00     0.008 A 
HETATM   17  H   UNL     1      42.540 -19.352   1.288  1.00  0.00     0.169 HD
HETATM   18  C   UNL     1      44.109 -21.426   1.436  1.00  0.00     0.068 C 
HETATM   19  C   UNL     1      44.402 -20.453   3.725  1.00  0.00     0.026 A 
HETATM   20  C   UNL     1      44.108 -19.422   4.696  1.00  0.00     0.025 A 
ENDBRANCH   9  12
ENDBRANCH   1   8
BRANCH   5  21
HETATM   21  C   UNL     1      44.140 -11.770   8.806  1.00  0.00     0.183 A 
HETATM   22  N   UNL     1      45.310 -11.141   9.023  1.00  0.00    -0.152 NA
HETATM   23  N   UNL     1      45.000 -10.296  10.014  1.00  0.00    -0.263 N 
HETATM   24  H   UNL     1      45.720  -9.696  10.400  1.00  0.00     0.190 HD
HETATM   25  C   UNL     1      43.687 -10.394  10.362  1.00  0.00     0.118 A 
HETATM   26  C   UNL     1      43.064  -9.596  11.437  1.00  0.00     0.093 C 
HETATM   27  N   UNL     1      43.118 -11.297   9.598  1.00  0.00    -0.212 NA
ENDBRANCH   5  21
TORSDOF 3
ENDMDL
MODEL 9
REMARK VINA RESULT:      -7.3      5.902      8.836
REMARK  3 active torsions:
REMARK  status: ('A' for Active; 'I' for Inactive)
REMARK    1  A    between atoms: C_6  and  C_7 
REMARK       I    between atoms: C_7  and  N_8 
REMARK    2  A    between atoms: N_8  and  C_9 
REMARK    3  A    between atoms: C_13  and  C_14 
ROOT
HETATM    1  C   UNL     1      41.200 -16.694   1.608  1.00  0.00     0.036 A 
HETATM    2  C   UNL     1      42.076 -17.763   1.423  1.00  0.00     0.054 A 
HETATM    3  C   UNL     1      42.762 -18.335   2.511  1.00  0.00     0.050 A 
HETATM    4 CL   UNL     1      43.882 -19.598   2.118  1.00  0.00    -0.083 Cl
HETATM    5  C   UNL     1      42.569 -17.847   3.813  1.00  0.00     0.035 A 
HETATM    6  C   UNL     1      41.667 -16.781   3.988  1.00  0.00     0.019 A 
HETATM    7  C   UNL     1      40.992 -16.214   2.902  1.00  0.00     0.030 A 
ENDROOT
BRANCH   1   8
HETATM    8  N   UNL     1      40.530 -16.024   0.563  1.00  0.00    -0.323 N 
HETATM    9  C   UNL     1      40.929 -14.888  -0.111  1.00  0.00     0.261 C 
HETATM   10  O   UNL     1      42.014 -14.326   0.018  1.00  0.00    -0.267 OA
HETATM   11  H   UNL     1      39.615 -16.401   0.311  1.00  0.00     0.169 HD
BRANCH   9  12
HETATM   12  C   UNL     1      39.903 -14.330  -1.050  1.00  0.00     0.100 A 
HETATM   13  C   UNL     1      38.545 -13.876  -0.627  1.00  0.00     0.261 A 
HETATM   14  N   UNL     1      37.741 -13.332  -1.603  1.00  0.00    -0.327 N 
HETATM   15  O   UNL     1      38.159 -13.976   0.536  1.00  0.00    -0.267 OA
HETATM   16  C   UNL     1      38.106 -13.194  -2.922  1.00  0.00     0.008 A 
HETATM   17  H   UNL     1      36.826 -13.023  -1.296  1.00  0.00     0.169 HD
HETATM   18  C   UNL     1      37.108 -12.565  -3.846  1.00  0.00     0.068 C 
HETATM   19  C   UNL     1      39.317 -13.616  -3.311  1.00  0.00     0.026 A 
HETATM   20  C   UNL     1      40.231 -14.194  -2.349  1.00  0.00     0.025 A 
ENDBRANCH   9  12
ENDBRANCH   1   8
BRANCH   5  21
HETATM   21  C   UNL     1      43.270 -18.361   4.988  1.00  0.00     0.183 A 
HETATM   22  N   UNL     1      44.401 -17.811   5.468  1.00  0.00    -0.152 NA
HETATM   23  N   UNL     1      44.684 -18.604   6.509  1.00  0.00    -0.263 N 
HETATM   24  H   UNL     1      45.519 -18.428   7.056  1.00  0.00     0.190 HD
HETATM   25  C   UNL     1      43.745 -19.577   6.665  1.00  0.00     0.118 A 
HETATM   26  C   UNL     1      43.804 -20.609   7.720  1.00  0.00     0.093 C 
HETATM   27  N   UNL     1      42.830 -19.429   5.735  1.00  0.00    -0.212 NA
ENDBRANCH   5  21
TORSDOF 3
ENDMDL
MODEL 10
REMARK VINA RESULT:      -7.2      4.225      5.106
REMARK  3 active torsions:
REMARK  status: ('A' for Active; 'I' for Inactive)
REMARK    1  A    between atoms: C_6  and  C_7 
REMARK       I    between atoms: C_7  and  N_8 
REMARK    2  A    between atoms: N_8  and  C_9 
REMARK    3  A    between atoms: C_13  and  C_14 
ROOT
HETATM    1  C   UNL     1      41.634 -15.467   4.076  1.00  0.00     0.036 A 
HETATM    2  C   UNL     1      42.496 -15.635   2.993  1.00  0.00     0.054 A 
HETATM    3  C   UNL     1      43.162 -16.856   2.779  1.00  0.00     0.050 A 
HETATM    4 CL   UNL     1      44.266 -16.891   1.443  1.00  0.00    -0.083 Cl
HETATM    5  C   UNL     1      42.963 -17.940   3.648  1.00  0.00     0.035 A 
HETATM    6  C   UNL     1      42.076 -17.763   4.726  1.00  0.00     0.019 A 
HETATM    7  C   UNL     1      41.421 -16.545   4.937  1.00  0.00     0.030 A 
ENDROOT
BRANCH   1   8
HETATM    8  N   UNL     1      40.986 -14.256   4.397  1.00  0.00    -0.323 N 
HETATM    9  C   UNL     1      40.203 -13.469   3.579  1.00  0.00     0.261 C 
HETATM   10  O   UNL     1      39.842 -13.760   2.441  1.00  0.00    -0.267 OA
HETATM   11  H   UNL     1      41.162 -13.897   5.337  1.00  0.00     0.169 HD
BRANCH   9  12
HETATM   12  C   UNL     1      39.805 -12.153   4.177  1.00  0.00     0.100 A 
HETATM   13  C   UNL     1      40.630 -11.408   5.176  1.00  0.00     0.261 A 
HETATM   14  N   UNL     1      40.152 -10.184   5.584  1.00  0.00    -0.327 N 
HETATM   15  O   UNL     1      41.686 -11.860   5.613  1.00  0.00    -0.267 OA
HETATM   16  C   UNL     1      38.978  -9.621   5.141  1.00  0.00     0.008 A 
HETATM   17  H   UNL     1      40.728  -9.690   6.256  1.00  0.00     0.169 HD
HETATM   18  C   UNL     1      38.620  -8.270   5.680  1.00  0.00     0.068 C 
HETATM   19  C   UNL     1      38.226 -10.293   4.257  1.00  0.00     0.026 A 
HETATM   20  C   UNL     1      38.655 -11.585   3.768  1.00  0.00     0.025 A 
ENDBRANCH   9  12
ENDBRANCH   1   8
BRANCH   5  21
HETATM   21  C   UNL     1      43.644 -19.226   3.516  1.00  0.00     0.183 A 
HETATM   22  N   UNL     1      44.452 -19.732   4.468  1.00  0.00    -0.152 NA
HETATM   23  N   UNL     1      44.855 -20.884   3.917  1.00  0.00    -0.263 N 
HETATM   24  H   UNL     1      45.506 -21.476   4.420  1.00  0.00     0.190 HD
HETATM   25  C   UNL     1      44.290 -21.077   2.693  1.00  0.00     0.118 A 
HETATM   26  C   UNL     1      44.563 -22.253   1.842  1.00  0.00     0.093 C 
HETATM   27  N   UNL     1      43.503 -20.059   2.430  1.00  0.00    -0.212 NA
ENDBRANCH   5  21
TORSDOF 3
ENDMDL
