MODEL 1
REMARK VINA RESULT:     -10.6      0.000      0.000
REMARK  4 active torsions:
REMARK  status: ('A' for Active; 'I' for Inactive)
REMARK    1  A    between atoms: C_2  and  N_3 
REMARK    2  A    between atoms: C_7  and  N_8 
REMARK       I    between atoms: N_8  and  C_9 
REMARK    3  A    between atoms: C_9  and  C_10 
REMARK    4  A    between atoms: C_10  and  N_11 
ROOT
HETATM    1  N   UNL     1      41.718 -11.616   6.039  1.00  0.00    -0.326 N 
HETATM    2  C   UNL     1      41.246 -12.804   5.519  1.00  0.00     0.242 C 
HETATM    3  O   UNL     1      40.345 -13.492   5.997  1.00  0.00    -0.271 OA
HETATM    4  H   UNL     1      42.486 -11.202   5.512  1.00  0.00     0.169 HD
ENDROOT
BRANCH   2   5
HETATM    5  C   UNL     1      42.045 -13.333   4.326  1.00  0.00     0.257 C 
BRANCH   5   6
HETATM    6  N   UNL     1      42.157 -14.784   4.170  1.00  0.00    -0.224 N 
HETATM    7  N   UNL     1      41.632 -15.340   2.981  1.00  0.00    -0.180 NA
HETATM    8  C   UNL     1      41.931 -16.567   2.654  1.00  0.00     0.153 A 
HETATM    9  C   UNL     1      42.797 -17.362   3.477  1.00  0.00     0.028 A 
HETATM   10  C   UNL     1      43.270 -16.824   4.645  1.00  0.00     0.116 A 
HETATM   11  C   UNL     1      43.360 -18.657   3.330  1.00  0.00     0.005 A 
HETATM   12  N   UNL     1      44.081 -17.743   5.245  1.00  0.00    -0.350 N 
HETATM   13  C   UNL     1      42.978 -15.490   5.078  1.00  0.00     0.291 A 
HETATM   14  H   UNL     1      44.578 -17.596   6.115  1.00  0.00     0.166 HD
HETATM   15  C   UNL     1      44.177 -18.865   4.447  1.00  0.00     0.044 A 
HETATM   16  C   UNL     1      44.931 -20.030   4.622  1.00  0.00     0.031 A 
HETATM   17  C   UNL     1      44.852 -21.010   3.627  1.00  0.00     0.009 A 
HETATM   18  C   UNL     1      44.035 -20.847   2.503  1.00  0.00    -0.061 A 
HETATM   19  C   UNL     1      44.004 -21.898   1.430  1.00  0.00     0.048 C 
HETATM   20  C   UNL     1      43.291 -19.665   2.347  1.00  0.00     0.021 A 
HETATM   21  O   UNL     1      43.445 -15.020   6.109  1.00  0.00    -0.264 OA
ENDBRANCH   5   6
ENDBRANCH   2   5
BRANCH   1  22
HETATM   22  C   UNL     1      41.303 -10.959   7.216  1.00  0.00     0.035 A 
HETATM   23  C   UNL     1      42.088 -10.877   8.371  1.00  0.00     0.044 A 
HETATM   24  C   UNL     1      41.623 -10.173   9.507  1.00  0.00     0.005 A 
HETATM   25  C   UNL     1      40.364  -9.575   9.464  1.00  0.00     0.046 A 
HETATM   26  C   UNL     1      42.190  -9.901  10.791  1.00  0.00     0.003 A 
HETATM   27  N   UNL     1      40.164  -8.972  10.691  1.00  0.00    -0.346 N 
HETATM   28  C   UNL     1      39.554  -9.653   8.319  1.00  0.00     0.033 A 
HETATM   29  C   UNL     1      41.262  -9.152  11.514  1.00  0.00     0.046 A 
HETATM   30  C   UNL     1      41.518  -8.726  12.829  1.00  0.00     0.030 A 
HETATM   31  C   UNL     1      42.745  -9.065  13.407  1.00  0.00     0.002 A 
HETATM   32  C   UNL     1      43.687  -9.806  12.703  1.00  0.00     0.001 A 
HETATM   33  C   UNL     1      43.421 -10.232  11.398  1.00  0.00     0.014 A 
HETATM   34  C   UNL     1      40.050 -10.344   7.203  1.00  0.00     0.032 A 
BRANCH  27  35
HETATM   35  C   UNL     1      38.967  -8.236  11.070  1.00  0.00     0.125 C 
HETATM   36  C   UNL     1      37.964  -9.111  11.801  1.00  0.00     0.027 C 
ENDBRANCH  27  35
ENDBRANCH   1  22
TORSDOF 4
ENDMDL
MODEL 2
REMARK VINA RESULT:     -10.5      6.937     11.559
REMARK  4 active torsions:
REMARK  status: ('A' for Active; 'I' for Inactive)
REMARK    1  A    between atoms: C_2  and  N_3 
REMARK    2  A    between atoms: C_7  and  N_8 
REMARK       I    between atoms: N_8  and  C_9 
REMARK    3  A    between atoms: C_9  and  C_10 
REMARK    4  A    between atoms: C_10  and  N_11 
ROOT
HETATM    1  N   UNL     1      42.410 -16.589  -0.014  1.00  0.00    -0.326 N 
HETATM    2  C   UNL     1      41.331 -15.760  -0.246  1.00  0.00     0.242 C 
HETATM    3  O   UNL     1      40.570 -15.310   0.610  1.00  0.00    -0.271 OA
HETATM    4  H   UNL     1      42.909 -16.875  -0.855  1.00  0.00     0.169 HD
ENDROOT
BRANCH   2   5
HETATM    5  C   UNL     1      41.019 -15.529  -1.726  1.00  0.00     0.257 C 
BRANCH   5   6
HETATM    6  N   UNL     1      41.128 -14.163  -2.241  1.00  0.00    -0.224 N 
HETATM    7  N   UNL     1      42.408 -13.564  -2.193  1.00  0.00    -0.180 NA
HETATM    8  C   UNL     1      42.635 -12.471  -2.868  1.00  0.00     0.153 A 
HETATM    9  C   UNL     1      41.610 -11.871  -3.671  1.00  0.00     0.028 A 
HETATM   10  C   UNL     1      40.363 -12.440  -3.681  1.00  0.00     0.116 A 
HETATM   11  C   UNL     1      41.594 -10.767  -4.564  1.00  0.00     0.005 A 
HETATM   12  N   UNL     1      39.566 -11.719  -4.521  1.00  0.00    -0.350 N 
HETATM   13  C   UNL     1      40.032 -13.633  -2.958  1.00  0.00     0.291 A 
HETATM   14  H   UNL     1      38.598 -11.934  -4.727  1.00  0.00     0.166 HD
HETATM   15  C   UNL     1      40.302 -10.704  -5.098  1.00  0.00     0.044 A 
HETATM   16  C   UNL     1      39.928  -9.755  -6.055  1.00  0.00     0.031 A 
HETATM   17  C   UNL     1      40.901  -8.847  -6.483  1.00  0.00     0.009 A 
HETATM   18  C   UNL     1      42.199  -8.866  -5.963  1.00  0.00    -0.061 A 
HETATM   19  C   UNL     1      43.234  -7.904  -6.474  1.00  0.00     0.048 C 
HETATM   20  C   UNL     1      42.553  -9.832  -5.006  1.00  0.00     0.021 A 
HETATM   21  O   UNL     1      38.920 -14.143  -3.014  1.00  0.00    -0.264 OA
ENDBRANCH   5   6
ENDBRANCH   2   5
BRANCH   1  22
HETATM   22  C   UNL     1      42.850 -17.113   1.219  1.00  0.00     0.035 A 
HETATM   23  C   UNL     1      43.159 -18.463   1.417  1.00  0.00     0.044 A 
HETATM   24  C   UNL     1      43.629 -18.916   2.673  1.00  0.00     0.005 A 
HETATM   25  C   UNL     1      43.763 -18.000   3.715  1.00  0.00     0.046 A 
HETATM   26  C   UNL     1      44.038 -20.195   3.162  1.00  0.00     0.003 A 
HETATM   27  N   UNL     1      44.224 -18.705   4.811  1.00  0.00    -0.346 N 
HETATM   28  C   UNL     1      43.448 -16.642   3.543  1.00  0.00     0.033 A 
HETATM   29  C   UNL     1      44.404 -20.041   4.499  1.00  0.00     0.046 A 
HETATM   30  C   UNL     1      44.852 -21.124   5.274  1.00  0.00     0.030 A 
HETATM   31  C   UNL     1      44.934 -22.382   4.669  1.00  0.00     0.002 A 
HETATM   32  C   UNL     1      44.580 -22.557   3.336  1.00  0.00     0.001 A 
HETATM   33  C   UNL     1      44.129 -21.476   2.574  1.00  0.00     0.014 A 
HETATM   34  C   UNL     1      43.001 -16.221   2.282  1.00  0.00     0.032 A 
BRANCH  27  35
HETATM   35  C   UNL     1      44.496 -18.124   6.118  1.00  0.00     0.125 C 
HETATM   36  C   UNL     1      43.237 -17.986   6.957  1.00  0.00     0.027 C 
ENDBRANCH  27  35
ENDBRANCH   1  22
TORSDOF 4
ENDMDL
MODEL 3
REMARK VINA RESULT:     -10.5      7.039     11.656
REMARK  4 active torsions:
REMARK  status: ('A' for Active; 'I' for Inactive)
REMARK    1  A    between atoms: C_2  and  N_3 
REMARK    2  A    between atoms: C_7  and  N_8 
REMARK       I    between atoms: N_8  and  C_9 
REMARK    3  A    between atoms: C_9  and  C_10 
REMARK    4  A    between atoms: C_10  and  N_11 
ROOT
HETATM    1  N   UNL     1      42.480 -15.823   0.210  1.00  0.00    -0.326 N 
HETATM    2  C   UNL     1      41.212 -15.352  -0.069  1.00  0.00     0.242 C 
HETATM    3  O   UNL     1      40.226 -15.463   0.657  1.00  0.00    -0.271 OA
HETATM    4  H   UNL     1      43.163 -15.653  -0.528  1.00  0.00     0.169 HD
ENDROOT
BRANCH   2   5
HETATM    5  C   UNL     1      41.049 -14.777  -1.478  1.00  0.00     0.257 C 
BRANCH   5   6
HETATM    6  N   UNL     1      39.708 -14.359  -1.892  1.00  0.00    -0.224 N 
HETATM    7  N   UNL     1      39.208 -13.165  -1.321  1.00  0.00    -0.180 NA
HETATM    8  C   UNL     1      38.153 -12.596  -1.836  1.00  0.00     0.153 A 
HETATM    9  C   UNL     1      37.496 -13.154  -2.982  1.00  0.00     0.028 A 
HETATM   10  C   UNL     1      37.969 -14.329  -3.504  1.00  0.00     0.116 A 
HETATM   11  C   UNL     1      36.418 -12.715  -3.795  1.00  0.00     0.005 A 
HETATM   12  N   UNL     1      37.210 -14.655  -4.591  1.00  0.00    -0.350 N 
HETATM   13  C   UNL     1      39.114 -15.021  -2.990  1.00  0.00     0.291 A 
HETATM   14  H   UNL     1      37.355 -15.469  -5.175  1.00  0.00     0.166 HD
HETATM   15  C   UNL     1      36.269 -13.669  -4.808  1.00  0.00     0.044 A 
HETATM   16  C   UNL     1      35.319 -13.543  -5.827  1.00  0.00     0.031 A 
HETATM   17  C   UNL     1      34.498 -12.410  -5.814  1.00  0.00     0.009 A 
HETATM   18  C   UNL     1      34.604 -11.443  -4.809  1.00  0.00    -0.061 A 
HETATM   19  C   UNL     1      33.738 -10.216  -4.845  1.00  0.00     0.048 C 
HETATM   20  C   UNL     1      35.570 -11.588  -3.799  1.00  0.00     0.021 A 
HETATM   21  O   UNL     1      39.539 -16.051  -3.499  1.00  0.00    -0.264 OA
ENDBRANCH   5   6
ENDBRANCH   2   5
BRANCH   1  22
HETATM   22  C   UNL     1      42.907 -16.542   1.346  1.00  0.00     0.035 A 
HETATM   23  C   UNL     1      43.156 -17.918   1.339  1.00  0.00     0.044 A 
HETATM   24  C   UNL     1      43.616 -18.570   2.508  1.00  0.00     0.005 A 
HETATM   25  C   UNL     1      43.800 -17.824   3.671  1.00  0.00     0.046 A 
HETATM   26  C   UNL     1      43.972 -19.924   2.798  1.00  0.00     0.003 A 
HETATM   27  N   UNL     1      44.238 -18.701   4.645  1.00  0.00    -0.346 N 
HETATM   28  C   UNL     1      43.544 -16.443   3.704  1.00  0.00     0.033 A 
HETATM   29  C   UNL     1      44.356 -19.983   4.138  1.00  0.00     0.046 A 
HETATM   30  C   UNL     1      44.761 -21.187   4.739  1.00  0.00     0.030 A 
HETATM   31  C   UNL     1      44.782 -22.345   3.954  1.00  0.00     0.002 A 
HETATM   32  C   UNL     1      44.409 -22.307   2.616  1.00  0.00     0.001 A 
HETATM   33  C   UNL     1      44.001 -21.106   2.027  1.00  0.00     0.014 A 
HETATM   34  C   UNL     1      43.106 -15.822   2.525  1.00  0.00     0.032 A 
BRANCH  27  35
HETATM   35  C   UNL     1      44.547 -18.332   6.018  1.00  0.00     0.125 C 
HETATM   36  C   UNL     1      43.315 -18.343   6.905  1.00  0.00     0.027 C 
ENDBRANCH  27  35
ENDBRANCH   1  22
TORSDOF 4
ENDMDL
MODEL 4
REMARK VINA RESULT:     -10.2      1.891     10.284
REMARK  4 active torsions:
REMARK  status: ('A' for Active; 'I' for Inactive)
REMARK    1  A    between atoms: C_2  and  N_3 
REMARK    2  A    between atoms: C_7  and  N_8 
REMARK       I    between atoms: N_8  and  C_9 
REMARK    3  A    between atoms: C_9  and  C_10 
REMARK    4  A    between atoms: C_10  and  N_11 
ROOT
HETATM    1  N   UNL     1      40.887 -12.372   5.500  1.00  0.00    -0.326 N 
HETATM    2  C   UNL     1      39.670 -12.106   6.096  1.00  0.00     0.242 C 
HETATM    3  O   UNL     1      38.755 -12.912   6.257  1.00  0.00    -0.271 OA
HETATM    4  H   UNL     1      41.509 -11.567   5.439  1.00  0.00     0.169 HD
ENDROOT
BRANCH   2   5
HETATM    5  C   UNL     1      39.443 -10.631   6.436  1.00  0.00     0.257 C 
BRANCH   5   6
HETATM    6  N   UNL     1      39.869 -10.163   7.756  1.00  0.00    -0.224 N 
HETATM    7  N   UNL     1      38.877 -10.103   8.762  1.00  0.00    -0.180 NA
HETATM    8  C   UNL     1      39.230  -9.957  10.009  1.00  0.00     0.153 A 
HETATM    9  C   UNL     1      40.613  -9.869  10.382  1.00  0.00     0.028 A 
HETATM   10  C   UNL     1      41.563  -9.893   9.394  1.00  0.00     0.116 A 
HETATM   11  C   UNL     1      41.281  -9.806  11.632  1.00  0.00     0.005 A 
HETATM   12  N   UNL     1      42.794  -9.818   9.979  1.00  0.00    -0.350 N 
HETATM   13  C   UNL     1      41.255 -10.039   8.002  1.00  0.00     0.291 A 
HETATM   14  H   UNL     1      43.674  -9.835   9.478  1.00  0.00     0.166 HD
HETATM   15  C   UNL     1      42.652  -9.792  11.351  1.00  0.00     0.044 A 
HETATM   16  C   UNL     1      43.627  -9.774  12.354  1.00  0.00     0.031 A 
HETATM   17  C   UNL     1      43.191  -9.774  13.683  1.00  0.00     0.009 A 
HETATM   18  C   UNL     1      41.830  -9.771  14.006  1.00  0.00    -0.061 A 
HETATM   19  C   UNL     1      41.392  -9.814  15.443  1.00  0.00     0.048 C 
HETATM   20  C   UNL     1      40.869  -9.795  12.981  1.00  0.00     0.021 A 
HETATM   21  O   UNL     1      42.126 -10.095   7.143  1.00  0.00    -0.264 OA
ENDBRANCH   5   6
ENDBRANCH   2   5
BRANCH   1  22
HETATM   22  C   UNL     1      41.328 -13.586   4.934  1.00  0.00     0.035 A 
HETATM   23  C   UNL     1      42.234 -14.446   5.563  1.00  0.00     0.044 A 
HETATM   24  C   UNL     1      42.608 -15.666   4.951  1.00  0.00     0.005 A 
HETATM   25  C   UNL     1      42.074 -15.991   3.706  1.00  0.00     0.046 A 
HETATM   26  C   UNL     1      43.471 -16.735   5.347  1.00  0.00     0.003 A 
HETATM   27  N   UNL     1      42.608 -17.214   3.346  1.00  0.00    -0.346 N 
HETATM   28  C   UNL     1      41.171 -15.137   3.051  1.00  0.00     0.033 A 
HETATM   29  C   UNL     1      43.457 -17.690   4.330  1.00  0.00     0.046 A 
HETATM   30  C   UNL     1      44.215 -18.870   4.412  1.00  0.00     0.030 A 
HETATM   31  C   UNL     1      44.990 -19.081   5.557  1.00  0.00     0.002 A 
HETATM   32  C   UNL     1      45.014 -18.146   6.585  1.00  0.00     0.001 A 
HETATM   33  C   UNL     1      44.263 -16.971   6.492  1.00  0.00     0.014 A 
HETATM   34  C   UNL     1      40.806 -13.943   3.689  1.00  0.00     0.032 A 
BRANCH  27  35
HETATM   35  C   UNL     1      42.314 -17.917   2.106  1.00  0.00     0.125 C 
HETATM   36  C   UNL     1      43.332 -17.613   1.021  1.00  0.00     0.027 C 
ENDBRANCH  27  35
ENDBRANCH   1  22
TORSDOF 4
ENDMDL
MODEL 5
REMARK VINA RESULT:      -9.9      6.244     10.615
REMARK  4 active torsions:
REMARK  status: ('A' for Active; 'I' for Inactive)
REMARK    1  A    between atoms: C_2  and  N_3 
REMARK    2  A    between atoms: C_7  and  N_8 
REMARK       I    between atoms: N_8  and  C_9 
REMARK    3  A    between atoms: C_9  and  C_10 
REMARK    4  A    between atoms: C_10  and  N_11 
ROOT
HETATM    1  N   UNL     1      42.915 -14.891   2.413  1.00  0.00    -0.326 N 
HETATM    2  C   UNL     1      41.880 -13.994   2.593  1.00  0.00     0.242 C 
HETATM    3  O   UNL     1      41.040 -14.033   3.490  1.00  0.00    -0.271 OA
HETATM    4  H   UNL     1      43.496 -14.704   1.597  1.00  0.00     0.169 HD
ENDROOT
BRANCH   2   5
HETATM    5  C   UNL     1      41.733 -12.967   1.468  1.00  0.00     0.257 C 
BRANCH   5   6
HETATM    6  N   UNL     1      40.517 -13.015   0.656  1.00  0.00    -0.224 N 
HETATM    7  N   UNL     1      39.802 -11.803   0.506  1.00  0.00    -0.180 NA
HETATM    8  C   UNL     1      38.875 -11.709  -0.406  1.00  0.00     0.153 A 
HETATM    9  C   UNL     1      38.574 -12.812  -1.273  1.00  0.00     0.028 A 
HETATM   10  C   UNL     1      39.249 -13.991  -1.094  1.00  0.00     0.116 A 
HETATM   11  C   UNL     1      37.710 -12.965  -2.388  1.00  0.00     0.005 A 
HETATM   12  N   UNL     1      38.817 -14.881  -2.035  1.00  0.00    -0.350 N 
HETATM   13  C   UNL     1      40.272 -14.178  -0.108  1.00  0.00     0.291 A 
HETATM   14  H   UNL     1      39.166 -15.826  -2.140  1.00  0.00     0.166 HD
HETATM   15  C   UNL     1      37.895 -14.270  -2.859  1.00  0.00     0.044 A 
HETATM   16  C   UNL     1      37.229 -14.766  -3.985  1.00  0.00     0.031 A 
HETATM   17  C   UNL     1      36.352 -13.904  -4.653  1.00  0.00     0.009 A 
HETATM   18  C   UNL     1      36.128 -12.598  -4.205  1.00  0.00    -0.061 A 
HETATM   19  C   UNL     1      35.213 -11.683  -4.967  1.00  0.00     0.048 C 
HETATM   20  C   UNL     1      36.812 -12.121  -3.074  1.00  0.00     0.021 A 
HETATM   21  O   UNL     1      40.886 -15.231   0.006  1.00  0.00    -0.264 OA
ENDBRANCH   5   6
ENDBRANCH   2   5
BRANCH   1  22
HETATM   22  C   UNL     1      43.212 -16.037   3.180  1.00  0.00     0.035 A 
HETATM   23  C   UNL     1      43.421 -17.303   2.625  1.00  0.00     0.044 A 
HETATM   24  C   UNL     1      43.749 -18.404   3.452  1.00  0.00     0.005 A 
HETATM   25  C   UNL     1      43.843 -18.211   4.829  1.00  0.00     0.046 A 
HETATM   26  C   UNL     1      44.037 -19.778   3.183  1.00  0.00     0.003 A 
HETATM   27  N   UNL     1      44.163 -19.436   5.384  1.00  0.00    -0.346 N 
HETATM   28  C   UNL     1      43.626 -16.951   5.410  1.00  0.00     0.033 A 
HETATM   29  C   UNL     1      44.291 -20.404   4.404  1.00  0.00     0.046 A 
HETATM   30  C   UNL     1      44.603 -21.772   4.484  1.00  0.00     0.030 A 
HETATM   31  C   UNL     1      44.664 -22.508   3.296  1.00  0.00     0.002 A 
HETATM   32  C   UNL     1      44.421 -21.903   2.068  1.00  0.00     0.001 A 
HETATM   33  C   UNL     1      44.105 -20.543   1.998  1.00  0.00     0.014 A 
HETATM   34  C   UNL     1      43.319 -15.876   4.563  1.00  0.00     0.032 A 
BRANCH  27  35
HETATM   35  C   UNL     1      44.351 -19.680   6.807  1.00  0.00     0.125 C 
HETATM   36  C   UNL     1      43.466 -20.804   7.317  1.00  0.00     0.027 C 
ENDBRANCH  27  35
ENDBRANCH   1  22
TORSDOF 4
ENDMDL
MODEL 6
REMARK VINA RESULT:      -9.8      6.712     11.231
REMARK  4 active torsions:
REMARK  status: ('A' for Active; 'I' for Inactive)
REMARK    1  A    between atoms: C_2  and  N_3 
REMARK    2  A    between atoms: C_7  and  N_8 
REMARK       I    between atoms: N_8  and  C_9 
REMARK    3  A    between atoms: C_9  and  C_10 
REMARK    4  A    between atoms: C_10  and  N_11 
ROOT
HETATM    1  N   UNL     1      41.166 -15.240   1.502  1.00  0.00    -0.326 N 
HETATM    2  C   UNL     1      40.980 -15.308   0.136  1.00  0.00     0.242 C 
HETATM    3  O   UNL     1      41.456 -16.158  -0.615  1.00  0.00    -0.271 OA
HETATM    4  H   UNL     1      40.707 -14.448   1.950  1.00  0.00     0.169 HD
ENDROOT
BRANCH   2   5
HETATM    5  C   UNL     1      40.223 -14.118  -0.458  1.00  0.00     0.257 C 
BRANCH   5   6
HETATM    6  N   UNL     1      40.965 -13.206  -1.331  1.00  0.00    -0.224 N 
HETATM    7  N   UNL     1      41.122 -13.601  -2.679  1.00  0.00    -0.180 NA
HETATM    8  C   UNL     1      41.528 -12.733  -3.564  1.00  0.00     0.153 A 
HETATM    9  C   UNL     1      41.807 -11.375  -3.194  1.00  0.00     0.028 A 
HETATM   10  C   UNL     1      41.685 -11.014  -1.878  1.00  0.00     0.116 A 
HETATM   11  C   UNL     1      42.161 -10.218  -3.936  1.00  0.00     0.005 A 
HETATM   12  N   UNL     1      41.977  -9.685  -1.767  1.00  0.00    -0.350 N 
HETATM   13  C   UNL     1      41.256 -11.911  -0.846  1.00  0.00     0.291 A 
HETATM   14  H   UNL     1      41.947  -9.156  -0.904  1.00  0.00     0.166 HD
HETATM   15  C   UNL     1      42.245  -9.166  -3.017  1.00  0.00     0.044 A 
HETATM   16  C   UNL     1      42.536  -7.852  -3.401  1.00  0.00     0.031 A 
HETATM   17  C   UNL     1      42.743  -7.604  -4.762  1.00  0.00     0.009 A 
HETATM   18  C   UNL     1      42.684  -8.631  -5.710  1.00  0.00    -0.061 A 
HETATM   19  C   UNL     1      42.870  -8.326  -7.169  1.00  0.00     0.048 C 
HETATM   20  C   UNL     1      42.385  -9.942  -5.301  1.00  0.00     0.021 A 
HETATM   21  O   UNL     1      41.119 -11.552   0.317  1.00  0.00    -0.264 OA
ENDBRANCH   5   6
ENDBRANCH   2   5
BRANCH   1  22
HETATM   22  C   UNL     1      41.947 -16.090   2.314  1.00  0.00     0.035 A 
HETATM   23  C   UNL     1      42.230 -17.421   1.990  1.00  0.00     0.044 A 
HETATM   24  C   UNL     1      43.049 -18.207   2.835  1.00  0.00     0.005 A 
HETATM   25  C   UNL     1      43.556 -17.641   4.003  1.00  0.00     0.046 A 
HETATM   26  C   UNL     1      43.523 -19.553   2.762  1.00  0.00     0.003 A 
HETATM   27  N   UNL     1      44.303 -18.619   4.631  1.00  0.00    -0.346 N 
HETATM   28  C   UNL     1      43.276 -16.310   4.355  1.00  0.00     0.033 A 
HETATM   29  C   UNL     1      44.303 -19.790   3.894  1.00  0.00     0.046 A 
HETATM   30  C   UNL     1      44.915 -21.034   4.125  1.00  0.00     0.030 A 
HETATM   31  C   UNL     1      44.733 -22.047   3.178  1.00  0.00     0.002 A 
HETATM   32  C   UNL     1      43.965 -21.831   2.040  1.00  0.00     0.001 A 
HETATM   33  C   UNL     1      43.354 -20.593   1.821  1.00  0.00     0.014 A 
HETATM   34  C   UNL     1      42.475 -15.551   3.489  1.00  0.00     0.032 A 
BRANCH  27  35
HETATM   35  C   UNL     1      45.007 -18.446   5.893  1.00  0.00     0.125 C 
HETATM   36  C   UNL     1      44.140 -18.805   7.087  1.00  0.00     0.027 C 
ENDBRANCH  27  35
ENDBRANCH   1  22
TORSDOF 4
ENDMDL
MODEL 7
REMARK VINA RESULT:      -9.7      6.425     10.873
REMARK  4 active torsions:
REMARK  status: ('A' for Active; 'I' for Inactive)
REMARK    1  A    between atoms: C_2  and  N_3 
REMARK    2  A    between atoms: C_7  and  N_8 
REMARK       I    between atoms: N_8  and  C_9 
REMARK    3  A    between atoms: C_9  and  C_10 
REMARK    4  A    between atoms: C_10  and  N_11 
ROOT
HETATM    1  N   UNL     1      42.388 -15.493   1.027  1.00  0.00    -0.326 N 
HETATM    2  C   UNL     1      41.455 -15.774   0.049  1.00  0.00     0.242 C 
HETATM    3  O   UNL     1      40.854 -16.838  -0.089  1.00  0.00    -0.271 OA
HETATM    4  H   UNL     1      42.795 -14.560   0.964  1.00  0.00     0.169 HD
ENDROOT
BRANCH   2   5
HETATM    5  C   UNL     1      41.301 -14.680  -1.010  1.00  0.00     0.257 C 
BRANCH   5   6
HETATM    6  N   UNL     1      40.210 -13.719  -0.842  1.00  0.00    -0.224 N 
HETATM    7  N   UNL     1      38.972 -14.049  -1.441  1.00  0.00    -0.180 NA
HETATM    8  C   UNL     1      37.899 -13.384  -1.113  1.00  0.00     0.153 A 
HETATM    9  C   UNL     1      37.949 -12.328  -0.143  1.00  0.00     0.028 A 
HETATM   10  C   UNL     1      39.161 -11.994   0.403  1.00  0.00     0.116 A 
HETATM   11  C   UNL     1      36.955 -11.518   0.466  1.00  0.00     0.005 A 
HETATM   12  N   UNL     1      38.965 -10.989   1.306  1.00  0.00    -0.350 N 
HETATM   13  C   UNL     1      40.385 -12.668   0.087  1.00  0.00     0.291 A 
HETATM   14  H   UNL     1      39.693 -10.566   1.867  1.00  0.00     0.166 HD
HETATM   15  C   UNL     1      37.618 -10.697   1.385  1.00  0.00     0.044 A 
HETATM   16  C   UNL     1      36.944  -9.787   2.206  1.00  0.00     0.031 A 
HETATM   17  C   UNL     1      35.552  -9.716   2.089  1.00  0.00     0.009 A 
HETATM   18  C   UNL     1      34.854 -10.508   1.171  1.00  0.00    -0.061 A 
HETATM   19  C   UNL     1      33.354 -10.439   1.098  1.00  0.00     0.048 C 
HETATM   20  C   UNL     1      35.553 -11.418   0.361  1.00  0.00     0.021 A 
HETATM   21  O   UNL     1      41.450 -12.375   0.618  1.00  0.00    -0.264 OA
ENDBRANCH   5   6
ENDBRANCH   2   5
BRANCH   1  22
HETATM   22  C   UNL     1      42.868 -16.349   2.040  1.00  0.00     0.035 A 
HETATM   23  C   UNL     1      43.106 -17.714   1.847  1.00  0.00     0.044 A 
HETATM   24  C   UNL     1      43.620 -18.509   2.900  1.00  0.00     0.005 A 
HETATM   25  C   UNL     1      43.869 -17.915   4.136  1.00  0.00     0.046 A 
HETATM   26  C   UNL     1      43.980 -19.888   2.998  1.00  0.00     0.003 A 
HETATM   27  N   UNL     1      44.351 -18.908   4.968  1.00  0.00    -0.346 N 
HETATM   28  C   UNL     1      43.627 -16.549   4.356  1.00  0.00     0.033 A 
HETATM   29  C   UNL     1      44.432 -20.117   4.298  1.00  0.00     0.046 A 
HETATM   30  C   UNL     1      44.858 -21.387   4.722  1.00  0.00     0.030 A 
HETATM   31  C   UNL     1      44.830 -22.437   3.798  1.00  0.00     0.002 A 
HETATM   32  C   UNL     1      44.388 -22.230   2.496  1.00  0.00     0.001 A 
HETATM   33  C   UNL     1      43.960 -20.965   2.085  1.00  0.00     0.014 A 
HETATM   34  C   UNL     1      43.133 -15.784   3.289  1.00  0.00     0.032 A 
BRANCH  27  35
HETATM   35  C   UNL     1      44.733 -18.715   6.359  1.00  0.00     0.125 C 
HETATM   36  C   UNL     1      43.587 -19.001   7.313  1.00  0.00     0.027 C 
ENDBRANCH  27  35
ENDBRANCH   1  22
TORSDOF 4
ENDMDL
MODEL 8
REMARK VINA RESULT:      -9.5      5.952     10.676
REMARK  4 active torsions:
REMARK  status: ('A' for Active; 'I' for Inactive)
REMARK    1  A    between atoms: C_2  and  N_3 
REMARK    2  A    between atoms: C_7  and  N_8 
REMARK       I    between atoms: N_8  and  C_9 
REMARK    3  A    between atoms: C_9  and  C_10 
REMARK    4  A    between atoms: C_10  and  N_11 
ROOT
HETATM    1  N   UNL     1      41.180 -14.574   2.810  1.00  0.00    -0.326 N 
HETATM    2  C   UNL     1      41.663 -13.411   2.243  1.00  0.00     0.242 C 
HETATM    3  O   UNL     1      42.848 -13.101   2.133  1.00  0.00    -0.271 OA
HETATM    4  H   UNL     1      40.163 -14.642   2.829  1.00  0.00     0.169 HD
ENDROOT
BRANCH   2   5
HETATM    5  C   UNL     1      40.581 -12.397   1.865  1.00  0.00     0.257 C 
BRANCH   5   6
HETATM    6  N   UNL     1      40.020 -12.470   0.515  1.00  0.00    -0.224 N 
HETATM    7  N   UNL     1      40.003 -13.744  -0.100  1.00  0.00    -0.180 NA
HETATM    8  C   UNL     1      39.287 -13.932  -1.174  1.00  0.00     0.153 A 
HETATM    9  C   UNL     1      38.503 -12.872  -1.737  1.00  0.00     0.028 A 
HETATM   10  C   UNL     1      38.556 -11.633  -1.152  1.00  0.00     0.116 A 
HETATM   11  C   UNL     1      37.577 -12.810  -2.812  1.00  0.00     0.005 A 
HETATM   12  N   UNL     1      37.723 -10.797  -1.838  1.00  0.00    -0.350 N 
HETATM   13  C   UNL     1      39.326 -11.343   0.020  1.00  0.00     0.291 A 
HETATM   14  H   UNL     1      37.559  -9.825  -1.605  1.00  0.00     0.166 HD
HETATM   15  C   UNL     1      37.089 -11.499  -2.842  1.00  0.00     0.044 A 
HETATM   16  C   UNL     1      36.117 -11.079  -3.756  1.00  0.00     0.031 A 
HETATM   17  C   UNL     1      35.626 -12.025  -4.663  1.00  0.00     0.009 A 
HETATM   18  C   UNL     1      36.100 -13.341  -4.675  1.00  0.00    -0.061 A 
HETATM   19  C   UNL     1      35.523 -14.345  -5.632  1.00  0.00     0.048 C 
HETATM   20  C   UNL     1      37.073 -13.741  -3.743  1.00  0.00     0.021 A 
HETATM   21  O   UNL     1      39.327 -10.236   0.545  1.00  0.00    -0.264 OA
ENDBRANCH   5   6
ENDBRANCH   2   5
BRANCH   1  22
HETATM   22  C   UNL     1      41.918 -15.622   3.399  1.00  0.00     0.035 A 
HETATM   23  C   UNL     1      42.177 -16.838   2.758  1.00  0.00     0.044 A 
HETATM   24  C   UNL     1      42.954 -17.835   3.396  1.00  0.00     0.005 A 
HETATM   25  C   UNL     1      43.442 -17.594   4.679  1.00  0.00     0.046 A 
HETATM   26  C   UNL     1      43.398 -19.134   2.998  1.00  0.00     0.003 A 
HETATM   27  N   UNL     1      44.149 -18.720   5.057  1.00  0.00    -0.346 N 
HETATM   28  C   UNL     1      43.185 -16.385   5.346  1.00  0.00     0.033 A 
HETATM   29  C   UNL     1      44.140 -19.669   4.050  1.00  0.00     0.046 A 
HETATM   30  C   UNL     1      44.716 -20.949   3.975  1.00  0.00     0.030 A 
HETATM   31  C   UNL     1      44.535 -21.688   2.801  1.00  0.00     0.002 A 
HETATM   32  C   UNL     1      43.804 -21.171   1.738  1.00  0.00     0.001 A 
HETATM   33  C   UNL     1      43.229 -19.900   1.824  1.00  0.00     0.014 A 
HETATM   34  C   UNL     1      42.426 -15.410   4.682  1.00  0.00     0.032 A 
BRANCH  27  35
HETATM   35  C   UNL     1      44.821 -18.888   6.337  1.00  0.00     0.125 C 
HETATM   36  C   UNL     1      43.892 -19.436   7.405  1.00  0.00     0.027 C 
ENDBRANCH  27  35
ENDBRANCH   1  22
TORSDOF 4
ENDMDL
MODEL 9
REMARK VINA RESULT:      -9.3      5.536      9.986
REMARK  4 active torsions:
REMARK  status: ('A' for Active; 'I' for Inactive)
REMARK    1  A    between atoms: C_2  and  N_3 
REMARK    2  A    between atoms: C_7  and  N_8 
REMARK       I    between atoms: N_8  and  C_9 
REMARK    3  A    between atoms: C_9  and  C_10 
REMARK    4  A    between atoms: C_10  and  N_11 
ROOT
HETATM    1  N   UNL     1      43.093 -14.995   3.883  1.00  0.00    -0.326 N 
HETATM    2  C   UNL     1      42.080 -14.155   4.300  1.00  0.00     0.242 C 
HETATM    3  O   UNL     1      41.265 -14.394   5.190  1.00  0.00    -0.271 OA
HETATM    4  H   UNL     1      43.654 -14.628   3.115  1.00  0.00     0.169 HD
ENDROOT
BRANCH   2   5
HETATM    5  C   UNL     1      41.919 -12.891   3.452  1.00  0.00     0.257 C 
BRANCH   5   6
HETATM    6  N   UNL     1      41.522 -13.056   2.053  1.00  0.00    -0.224 N 
HETATM    7  N   UNL     1      42.166 -14.084   1.325  1.00  0.00    -0.180 NA
HETATM    8  C   UNL     1      41.681 -14.460   0.173  1.00  0.00     0.153 A 
HETATM    9  C   UNL     1      40.495 -13.858  -0.363  1.00  0.00     0.028 A 
HETATM   10  C   UNL     1      39.902 -12.839   0.335  1.00  0.00     0.116 A 
HETATM   11  C   UNL     1      39.705 -14.121  -1.513  1.00  0.00     0.005 A 
HETATM   12  N   UNL     1      38.790 -12.438  -0.349  1.00  0.00    -0.350 N 
HETATM   13  C   UNL     1      40.379 -12.361   1.598  1.00  0.00     0.291 A 
HETATM   14  H   UNL     1      38.155 -11.711  -0.045  1.00  0.00     0.166 HD
HETATM   15  C   UNL     1      38.630 -13.226  -1.471  1.00  0.00     0.044 A 
HETATM   16  C   UNL     1      37.614 -13.223  -2.432  1.00  0.00     0.031 A 
HETATM   17  C   UNL     1      37.695 -14.164  -3.465  1.00  0.00     0.009 A 
HETATM   18  C   UNL     1      38.761 -15.065  -3.551  1.00  0.00    -0.061 A 
HETATM   19  C   UNL     1      38.799 -16.091  -4.648  1.00  0.00     0.048 C 
HETATM   20  C   UNL     1      39.767 -15.052  -2.570  1.00  0.00     0.021 A 
HETATM   21  O   UNL     1      39.807 -11.473   2.220  1.00  0.00    -0.264 OA
ENDBRANCH   5   6
ENDBRANCH   2   5
BRANCH   1  22
HETATM   22  C   UNL     1      43.392 -16.292   4.351  1.00  0.00     0.035 A 
HETATM   23  C   UNL     1      43.528 -17.403   3.512  1.00  0.00     0.044 A 
HETATM   24  C   UNL     1      43.863 -18.669   4.047  1.00  0.00     0.005 A 
HETATM   25  C   UNL     1      44.038 -18.798   5.424  1.00  0.00     0.046 A 
HETATM   26  C   UNL     1      44.089 -19.952   3.458  1.00  0.00     0.003 A 
HETATM   27  N   UNL     1      44.345 -20.123   5.667  1.00  0.00    -0.346 N 
HETATM   28  C   UNL     1      43.895 -17.698   6.287  1.00  0.00     0.033 A 
HETATM   29  C   UNL     1      44.387 -20.845   4.488  1.00  0.00     0.046 A 
HETATM   30  C   UNL     1      44.656 -22.201   4.237  1.00  0.00     0.030 A 
HETATM   31  C   UNL     1      44.628 -22.647   2.911  1.00  0.00     0.002 A 
HETATM   32  C   UNL     1      44.339 -21.774   1.870  1.00  0.00     0.001 A 
HETATM   33  C   UNL     1      44.066 -20.427   2.129  1.00  0.00     0.014 A 
HETATM   34  C   UNL     1      43.580 -16.452   5.725  1.00  0.00     0.032 A 
BRANCH  27  35
HETATM   35  C   UNL     1      44.601 -20.689   6.984  1.00  0.00     0.125 C 
HETATM   36  C   UNL     1      43.324 -21.124   7.679  1.00  0.00     0.027 C 
ENDBRANCH  27  35
ENDBRANCH   1  22
TORSDOF 4
ENDMDL
MODEL 10
REMARK VINA RESULT:      -9.3      6.226     10.613
REMARK  4 active torsions:
REMARK  status: ('A' for Active; 'I' for Inactive)
REMARK    1  A    between atoms: C_2  and  N_3 
REMARK    2  A    between atoms: C_7  and  N_8 
REMARK       I    between atoms: N_8  and  C_9 
REMARK    3  A    between atoms: C_9  and  C_10 
REMARK    4  A    between atoms: C_10  and  N_11 
ROOT
HETATM    1  N   UNL     1      41.915 -15.115   2.407  1.00  0.00    -0.326 N 
HETATM    2  C   UNL     1      42.444 -13.848   2.549  1.00  0.00     0.242 C 
HETATM    3  O   UNL     1      43.603 -13.581   2.865  1.00  0.00    -0.271 OA
HETATM    4  H   UNL     1      40.926 -15.133   2.160  1.00  0.00     0.169 HD
ENDROOT
BRANCH   2   5
HETATM    5  C   UNL     1      41.419 -12.718   2.427  1.00  0.00     0.257 C 
BRANCH   5   6
HETATM    6  N   UNL     1      40.737 -12.553   1.142  1.00  0.00    -0.224 N 
HETATM    7  N   UNL     1      40.924 -13.577   0.185  1.00  0.00    -0.180 NA
HETATM    8  C   UNL     1      40.147 -13.632  -0.862  1.00  0.00     0.153 A 
HETATM    9  C   UNL     1      39.095 -12.676  -1.054  1.00  0.00     0.028 A 
HETATM   10  C   UNL     1      38.947 -11.668  -0.138  1.00  0.00     0.116 A 
HETATM   11  C   UNL     1      38.061 -12.548  -2.019  1.00  0.00     0.005 A 
HETATM   12  N   UNL     1      37.881 -10.901  -0.509  1.00  0.00    -0.350 N 
HETATM   13  C   UNL     1      39.765 -11.533   1.031  1.00  0.00     0.291 A 
HETATM   14  H   UNL     1      37.540 -10.097   0.004  1.00  0.00     0.166 HD
HETATM   15  C   UNL     1      37.302 -11.434  -1.643  1.00  0.00     0.044 A 
HETATM   16  C   UNL     1      36.165 -11.025  -2.348  1.00  0.00     0.031 A 
HETATM   17  C   UNL     1      35.788 -11.777  -3.465  1.00  0.00     0.009 A 
HETATM   18  C   UNL     1      36.529 -12.888  -3.882  1.00  0.00    -0.061 A 
HETATM   19  C   UNL     1      36.076 -13.701  -5.061  1.00  0.00     0.048 C 
HETATM   20  C   UNL     1      37.665 -13.282  -3.155  1.00  0.00     0.021 A 
HETATM   21  O   UNL     1      39.588 -10.643   1.854  1.00  0.00    -0.264 OA
ENDBRANCH   5   6
ENDBRANCH   2   5
BRANCH   1  22
HETATM   22  C   UNL     1      42.560 -16.352   2.617  1.00  0.00     0.035 A 
HETATM   23  C   UNL     1      42.667 -16.963   3.871  1.00  0.00     0.044 A 
HETATM   24  C   UNL     1      43.298 -18.223   4.004  1.00  0.00     0.005 A 
HETATM   25  C   UNL     1      43.827 -18.837   2.871  1.00  0.00     0.046 A 
HETATM   26  C   UNL     1      43.534 -19.087   5.118  1.00  0.00     0.003 A 
HETATM   27  N   UNL     1      44.384 -20.033   3.285  1.00  0.00    -0.346 N 
HETATM   28  C   UNL     1      43.742 -18.237   1.603  1.00  0.00     0.033 A 
HETATM   29  C   UNL     1      44.214 -20.210   4.647  1.00  0.00     0.046 A 
HETATM   30  C   UNL     1      44.602 -21.254   5.504  1.00  0.00     0.030 A 
HETATM   31  C   UNL     1      44.279 -21.151   6.861  1.00  0.00     0.002 A 
HETATM   32  C   UNL     1      43.597 -20.043   7.351  1.00  0.00     0.001 A 
HETATM   33  C   UNL     1      43.221 -19.006   6.493  1.00  0.00     0.014 A 
HETATM   34  C   UNL     1      43.095 -16.997   1.501  1.00  0.00     0.032 A 
BRANCH  27  35
HETATM   35  C   UNL     1      45.051 -20.986   2.412  1.00  0.00     0.125 C 
HETATM   36  C   UNL     1      44.069 -21.924   1.732  1.00  0.00     0.027 C 
ENDBRANCH  27  35
ENDBRANCH   1  22
TORSDOF 4
ENDMDL
