MODEL 1
REMARK VINA RESULT:      -9.6      0.000      0.000
REMARK  6 active torsions:
REMARK  status: ('A' for Active; 'I' for Inactive)
REMARK    1  A    between atoms: C_2  and  C_3 
REMARK    2  A    between atoms: N_6  and  C_8 
REMARK    3  A    between atoms: C_8  and  C_9 
REMARK    4  A    between atoms: C_12  and  C_13 
REMARK    5  A    between atoms: C_13  and  O_14 
REMARK    6  A    between atoms: N_24  and  C_25 
ROOT
HETATM    1  C   UNL     1      40.930 -10.425   4.663  1.00  0.00     0.049 C 
HETATM    2  C   UNL     1      40.787 -11.425   5.811  1.00  0.00     0.116 A 
HETATM    3  N   UNL     1      42.051 -11.609   6.481  1.00  0.00    -0.324 N 
HETATM    4  C   UNL     1      42.038 -11.095   7.763  1.00  0.00     0.326 A 
HETATM    5  O   UNL     1      43.043 -11.078   8.448  1.00  0.00    -0.247 OA
HETATM    6  N   UNL     1      40.779 -10.682   8.063  1.00  0.00    -0.263 N 
HETATM    7  C   UNL     1      39.987 -10.757   6.948  1.00  0.00     0.256 A 
HETATM    8  O   UNL     1      38.823 -10.400   6.853  1.00  0.00    -0.270 OA
HETATM    9  H   UNL     1      42.957 -11.601   6.025  1.00  0.00     0.165 HD
ENDROOT
BRANCH   2  10
HETATM   10  C   UNL     1      40.114 -12.769   5.381  1.00  0.00     0.026 C 
HETATM   11  C   UNL     1      40.706 -14.037   6.028  1.00  0.00     0.035 C 
HETATM   12  C   UNL     1      42.039 -14.478   5.442  1.00  0.00     0.235 C 
HETATM   13  N   UNL     1      41.925 -14.658   3.948  1.00  0.00    -0.067 N 
HETATM   14  H   UNL     1      41.291 -15.453   3.795  1.00  0.00     0.280 HD
HETATM   15  C   UNL     1      41.354 -13.460   3.231  1.00  0.00     0.235 C 
HETATM   16  C   UNL     1      40.043 -13.007   3.861  1.00  0.00     0.035 C 
BRANCH  13  17
HETATM   17  C   UNL     1      43.254 -15.054   3.311  1.00  0.00     0.273 C 
BRANCH  17  18
HETATM   18  C   UNL     1      43.424 -16.534   3.098  1.00  0.00    -0.033 A 
HETATM   19  C   UNL     1      43.590 -17.404   4.184  1.00  0.00     0.010 A 
HETATM   20  C   UNL     1      43.810 -18.769   3.966  1.00  0.00     0.018 A 
HETATM   21  C   UNL     1      43.871 -19.283   2.663  1.00  0.00     0.039 A 
HETATM   22  C   UNL     1      43.690 -18.418   1.579  1.00  0.00     0.018 A 
HETATM   23  C   UNL     1      43.466 -17.056   1.794  1.00  0.00     0.010 A 
BRANCH  21  24
HETATM   24  C   UNL     1      44.138 -20.737   2.491  1.00  0.00     0.292 C 
HETATM   25  O   UNL     1      43.742 -21.378   1.532  1.00  0.00    -0.259 OA
BRANCH  24  26
HETATM   26  O   UNL     1      44.837 -21.221   3.547  1.00  0.00    -0.323 OA
HETATM   27  C   UNL     1      44.624 -22.612   3.798  1.00  0.00     0.213 C 
ENDBRANCH  24  26
ENDBRANCH  21  24
ENDBRANCH  17  18
ENDBRANCH  13  17
ENDBRANCH   2  10
BRANCH   6  28
HETATM   28  C   UNL     1      40.346 -10.060   9.321  1.00  0.00     0.106 C 
HETATM   29  C   UNL     1      40.204 -11.074  10.482  1.00  0.00     0.065 C 
HETATM   30  C   UNL     1      41.307 -10.693  11.414  1.00  0.00    -0.050 A 
HETATM   31  C   UNL     1      41.920  -9.501  11.026  1.00  0.00    -0.050 A 
HETATM   32  C   UNL     1      41.702 -11.356  12.566  1.00  0.00     0.007 A 
HETATM   33  C   UNL     1      41.302  -8.935   9.787  1.00  0.00     0.065 C 
HETATM   34  C   UNL     1      42.942  -8.947  11.779  1.00  0.00     0.007 A 
HETATM   35  C   UNL     1      43.352  -9.610  12.937  1.00  0.00     0.001 A 
HETATM   36  C   UNL     1      42.735 -10.808  13.328  1.00  0.00     0.001 A 
ENDBRANCH   6  28
TORSDOF 6
ENDMDL
MODEL 2
REMARK VINA RESULT:      -8.9      4.582      8.088
REMARK  6 active torsions:
REMARK  status: ('A' for Active; 'I' for Inactive)
REMARK    1  A    between atoms: C_2  and  C_3 
REMARK    2  A    between atoms: N_6  and  C_8 
REMARK    3  A    between atoms: C_8  and  C_9 
REMARK    4  A    between atoms: C_12  and  C_13 
REMARK    5  A    between atoms: C_13  and  O_14 
REMARK    6  A    between atoms: N_24  and  C_25 
ROOT
HETATM    1  C   UNL     1      42.252 -16.630   3.414  1.00  0.00     0.049 C 
HETATM    2  C   UNL     1      41.603 -15.247   3.487  1.00  0.00     0.116 A 
HETATM    3  N   UNL     1      42.509 -14.237   2.996  1.00  0.00    -0.324 N 
HETATM    4  C   UNL     1      42.076 -13.684   1.807  1.00  0.00     0.326 A 
HETATM    5  O   UNL     1      42.757 -12.881   1.198  1.00  0.00    -0.247 OA
HETATM    6  N   UNL     1      40.840 -14.169   1.517  1.00  0.00    -0.263 N 
HETATM    7  C   UNL     1      40.509 -15.159   2.402  1.00  0.00     0.256 A 
HETATM    8  O   UNL     1      39.500 -15.849   2.384  1.00  0.00    -0.270 OA
HETATM    9  H   UNL     1      43.516 -14.250   3.122  1.00  0.00     0.165 HD
ENDROOT
BRANCH   2  10
HETATM   10  C   UNL     1      41.009 -14.914   4.894  1.00  0.00     0.026 C 
HETATM   11  C   UNL     1      41.935 -14.103   5.823  1.00  0.00     0.035 C 
HETATM   12  C   UNL     1      43.060 -14.912   6.451  1.00  0.00     0.235 C 
HETATM   13  N   UNL     1      42.505 -16.109   7.183  1.00  0.00    -0.067 N 
HETATM   14  H   UNL     1      41.964 -15.743   7.977  1.00  0.00     0.280 HD
HETATM   15  C   UNL     1      41.586 -16.963   6.345  1.00  0.00     0.235 C 
HETATM   16  C   UNL     1      40.494 -16.128   5.689  1.00  0.00     0.035 C 
BRANCH  13  17
HETATM   17  C   UNL     1      43.605 -16.977   7.788  1.00  0.00     0.273 C 
BRANCH  17  18
HETATM   18  C   UNL     1      43.974 -18.177   6.958  1.00  0.00    -0.033 A 
HETATM   19  C   UNL     1      44.645 -18.031   5.737  1.00  0.00     0.010 A 
HETATM   20  C   UNL     1      44.924 -19.153   4.948  1.00  0.00     0.018 A 
HETATM   21  C   UNL     1      44.534 -20.433   5.364  1.00  0.00     0.039 A 
HETATM   22  C   UNL     1      43.877 -20.583   6.590  1.00  0.00     0.018 A 
HETATM   23  C   UNL     1      43.601 -19.465   7.382  1.00  0.00     0.010 A 
BRANCH  21  24
HETATM   24  C   UNL     1      44.830 -21.587   4.470  1.00  0.00     0.292 C 
HETATM   25  O   UNL     1      44.957 -22.729   4.877  1.00  0.00    -0.259 OA
BRANCH  24  26
HETATM   26  O   UNL     1      44.962 -21.171   3.187  1.00  0.00    -0.323 OA
HETATM   27  C   UNL     1      44.144 -21.886   2.257  1.00  0.00     0.213 C 
ENDBRANCH  24  26
ENDBRANCH  21  24
ENDBRANCH  17  18
ENDBRANCH  13  17
ENDBRANCH   2  10
BRANCH   6  28
HETATM   28  C   UNL     1      40.037 -13.843   0.330  1.00  0.00     0.106 C 
HETATM   29  C   UNL     1      39.955 -12.323   0.050  1.00  0.00     0.065 C 
HETATM   30  C   UNL     1      40.731 -12.160  -1.215  1.00  0.00    -0.050 A 
HETATM   31  C   UNL     1      41.072 -13.393  -1.773  1.00  0.00    -0.050 A 
HETATM   32  C   UNL     1      41.068 -10.974  -1.848  1.00  0.00     0.007 A 
HETATM   33  C   UNL     1      40.564 -14.535  -0.951  1.00  0.00     0.065 C 
HETATM   34  C   UNL     1      41.758 -13.467  -2.974  1.00  0.00     0.007 A 
HETATM   35  C   UNL     1      42.108 -12.277  -3.616  1.00  0.00     0.001 A 
HETATM   36  C   UNL     1      41.765 -11.038  -3.056  1.00  0.00     0.001 A 
ENDBRANCH   6  28
TORSDOF 6
ENDMDL
MODEL 3
REMARK VINA RESULT:      -8.8      5.742      9.744
REMARK  6 active torsions:
REMARK  status: ('A' for Active; 'I' for Inactive)
REMARK    1  A    between atoms: C_2  and  C_3 
REMARK    2  A    between atoms: N_6  and  C_8 
REMARK    3  A    between atoms: C_8  and  C_9 
REMARK    4  A    between atoms: C_12  and  C_13 
REMARK    5  A    between atoms: C_13  and  O_14 
REMARK    6  A    between atoms: N_24  and  C_25 
ROOT
HETATM    1  C   UNL     1      42.446 -12.841   4.166  1.00  0.00     0.049 C 
HETATM    2  C   UNL     1      41.641 -13.596   3.107  1.00  0.00     0.116 A 
HETATM    3  N   UNL     1      42.518 -14.136   2.097  1.00  0.00    -0.324 N 
HETATM    4  C   UNL     1      42.568 -15.515   2.136  1.00  0.00     0.326 A 
HETATM    5  O   UNL     1      43.325 -16.141   1.417  1.00  0.00    -0.247 OA
HETATM    6  N   UNL     1      41.663 -15.967   3.042  1.00  0.00    -0.263 N 
HETATM    7  C   UNL     1      41.125 -14.911   3.728  1.00  0.00     0.256 A 
HETATM    8  O   UNL     1      40.332 -14.969   4.656  1.00  0.00    -0.270 OA
HETATM    9  H   UNL     1      43.361 -13.685   1.758  1.00  0.00     0.165 HD
ENDROOT
BRANCH   2  10
HETATM   10  C   UNL     1      40.457 -12.764   2.519  1.00  0.00     0.026 C 
HETATM   11  C   UNL     1      39.241 -13.589   2.052  1.00  0.00     0.035 C 
HETATM   12  C   UNL     1      39.441 -14.305   0.725  1.00  0.00     0.235 C 
HETATM   13  N   UNL     1      39.850 -13.327  -0.348  1.00  0.00    -0.067 N 
HETATM   14  H   UNL     1      39.047 -12.703  -0.500  1.00  0.00     0.280 HD
HETATM   15  C   UNL     1      41.038 -12.475   0.026  1.00  0.00     0.235 C 
HETATM   16  C   UNL     1      40.838 -11.802   1.378  1.00  0.00     0.035 C 
BRANCH  13  17
HETATM   17  C   UNL     1      40.109 -14.012  -1.687  1.00  0.00     0.273 C 
BRANCH  17  18
HETATM   18  C   UNL     1      38.931 -14.007  -2.623  1.00  0.00    -0.033 A 
HETATM   19  C   UNL     1      38.044 -12.923  -2.661  1.00  0.00     0.010 A 
HETATM   20  C   UNL     1      36.919 -12.962  -3.492  1.00  0.00     0.018 A 
HETATM   21  C   UNL     1      36.660 -14.084  -4.291  1.00  0.00     0.039 A 
HETATM   22  C   UNL     1      37.553 -15.161  -4.266  1.00  0.00     0.018 A 
HETATM   23  C   UNL     1      38.679 -15.122  -3.441  1.00  0.00     0.010 A 
BRANCH  21  24
HETATM   24  C   UNL     1      35.432 -14.082  -5.133  1.00  0.00     0.292 C 
HETATM   25  O   UNL     1      34.329 -13.792  -4.700  1.00  0.00    -0.259 OA
BRANCH  24  26
HETATM   26  O   UNL     1      35.721 -14.472  -6.398  1.00  0.00    -0.323 OA
HETATM   27  C   UNL     1      35.449 -13.478  -7.389  1.00  0.00     0.213 C 
ENDBRANCH  24  26
ENDBRANCH  21  24
ENDBRANCH  17  18
ENDBRANCH  13  17
ENDBRANCH   2  10
BRANCH   6  28
HETATM   28  C   UNL     1      41.415 -17.371   3.396  1.00  0.00     0.106 C 
HETATM   29  C   UNL     1      41.729 -18.353   2.241  1.00  0.00     0.065 C 
HETATM   30  C   UNL     1      42.922 -19.103   2.736  1.00  0.00    -0.050 A 
HETATM   31  C   UNL     1      43.199 -18.806   4.071  1.00  0.00    -0.050 A 
HETATM   32  C   UNL     1      43.681 -20.030   2.039  1.00  0.00     0.007 A 
HETATM   33  C   UNL     1      42.225 -17.822   4.636  1.00  0.00     0.065 C 
HETATM   34  C   UNL     1      44.243 -19.427   4.738  1.00  0.00     0.007 A 
HETATM   35  C   UNL     1      45.018 -20.357   4.042  1.00  0.00     0.001 A 
HETATM   36  C   UNL     1      44.739 -20.656   2.700  1.00  0.00     0.001 A 
ENDBRANCH   6  28
TORSDOF 6
ENDMDL
MODEL 4
REMARK VINA RESULT:      -8.7      2.376      9.761
REMARK  6 active torsions:
REMARK  status: ('A' for Active; 'I' for Inactive)
REMARK    1  A    between atoms: C_2  and  C_3 
REMARK    2  A    between atoms: N_6  and  C_8 
REMARK    3  A    between atoms: C_8  and  C_9 
REMARK    4  A    between atoms: C_12  and  C_13 
REMARK    5  A    between atoms: C_13  and  O_14 
REMARK    6  A    between atoms: N_24  and  C_25 
ROOT
HETATM    1  C   UNL     1      42.313 -12.828   6.330  1.00  0.00     0.049 C 
HETATM    2  C   UNL     1      41.620 -13.228   5.027  1.00  0.00     0.116 A 
HETATM    3  N   UNL     1      42.596 -13.502   4.000  1.00  0.00    -0.324 N 
HETATM    4  C   UNL     1      42.628 -14.839   3.657  1.00  0.00     0.326 A 
HETATM    5  O   UNL     1      43.452 -15.271   2.873  1.00  0.00    -0.247 OA
HETATM    6  N   UNL     1      41.626 -15.488   4.305  1.00  0.00    -0.263 N 
HETATM    7  C   UNL     1      41.027 -14.642   5.200  1.00  0.00     0.256 A 
HETATM    8  O   UNL     1      40.138 -14.923   5.990  1.00  0.00    -0.270 OA
HETATM    9  H   UNL     1      43.475 -13.008   3.888  1.00  0.00     0.165 HD
ENDROOT
BRANCH   2  10
HETATM   10  C   UNL     1      40.515 -12.219   4.577  1.00  0.00     0.026 C 
HETATM   11  C   UNL     1      41.030 -10.838   4.125  1.00  0.00     0.035 C 
HETATM   12  C   UNL     1      41.452  -9.922   5.263  1.00  0.00     0.235 C 
HETATM   13  N   UNL     1      40.327  -9.760   6.256  1.00  0.00    -0.067 N 
HETATM   14  H   UNL     1      39.576  -9.252   5.770  1.00  0.00     0.280 HD
HETATM   15  C   UNL     1      39.762 -11.066   6.754  1.00  0.00     0.235 C 
HETATM   16  C   UNL     1      39.387 -11.988   5.600  1.00  0.00     0.035 C 
BRANCH  13  17
HETATM   17  C   UNL     1      40.724  -8.886   7.442  1.00  0.00     0.273 C 
BRANCH  17  18
HETATM   18  C   UNL     1      40.740  -9.605   8.764  1.00  0.00    -0.033 A 
HETATM   19  C   UNL     1      39.613  -9.607   9.597  1.00  0.00     0.010 A 
HETATM   20  C   UNL     1      39.665 -10.226  10.851  1.00  0.00     0.018 A 
HETATM   21  C   UNL     1      40.842 -10.847  11.292  1.00  0.00     0.039 A 
HETATM   22  C   UNL     1      41.963 -10.858  10.456  1.00  0.00     0.018 A 
HETATM   23  C   UNL     1      41.912 -10.245   9.202  1.00  0.00     0.010 A 
BRANCH  21  24
HETATM   24  C   UNL     1      40.848 -11.463  12.648  1.00  0.00     0.292 C 
HETATM   25  O   UNL     1      39.974 -12.216  13.041  1.00  0.00    -0.259 OA
BRANCH  24  26
HETATM   26  O   UNL     1      41.924 -11.042  13.356  1.00  0.00    -0.323 OA
HETATM   27  C   UNL     1      41.597 -10.204  14.468  1.00  0.00     0.213 C 
ENDBRANCH  24  26
ENDBRANCH  21  24
ENDBRANCH  17  18
ENDBRANCH  13  17
ENDBRANCH   2  10
BRANCH   6  28
HETATM   28  C   UNL     1      41.328 -16.924   4.226  1.00  0.00     0.106 C 
HETATM   29  C   UNL     1      41.636 -17.533   2.837  1.00  0.00     0.065 C 
HETATM   30  C   UNL     1      42.795 -18.437   3.103  1.00  0.00    -0.050 A 
HETATM   31  C   UNL     1      43.052 -18.556   4.469  1.00  0.00    -0.050 A 
HETATM   32  C   UNL     1      43.541 -19.144   2.172  1.00  0.00     0.007 A 
HETATM   33  C   UNL     1      42.096 -17.749   5.288  1.00  0.00     0.065 C 
HETATM   34  C   UNL     1      44.062 -19.383   4.935  1.00  0.00     0.007 A 
HETATM   35  C   UNL     1      44.823 -20.094   4.006  1.00  0.00     0.001 A 
HETATM   36  C   UNL     1      44.564 -19.974   2.632  1.00  0.00     0.001 A 
ENDBRANCH   6  28
TORSDOF 6
ENDMDL
MODEL 5
REMARK VINA RESULT:      -8.6      4.122      8.435
REMARK  6 active torsions:
REMARK  status: ('A' for Active; 'I' for Inactive)
REMARK    1  A    between atoms: C_2  and  C_3 
REMARK    2  A    between atoms: N_6  and  C_8 
REMARK    3  A    between atoms: C_8  and  C_9 
REMARK    4  A    between atoms: C_12  and  C_13 
REMARK    5  A    between atoms: C_13  and  O_14 
REMARK    6  A    between atoms: N_24  and  C_25 
ROOT
HETATM    1  C   UNL     1      38.789 -11.569   3.417  1.00  0.00     0.049 C 
HETATM    2  C   UNL     1      40.045 -12.343   3.014  1.00  0.00     0.116 A 
HETATM    3  N   UNL     1      39.719 -13.714   2.710  1.00  0.00    -0.324 N 
HETATM    4  C   UNL     1      39.876 -14.001   1.368  1.00  0.00     0.326 A 
HETATM    5  O   UNL     1      39.560 -15.083   0.912  1.00  0.00    -0.247 OA
HETATM    6  N   UNL     1      40.426 -12.926   0.746  1.00  0.00    -0.263 N 
HETATM    7  C   UNL     1      40.487 -11.868   1.614  1.00  0.00     0.256 A 
HETATM    8  O   UNL     1      40.864 -10.734   1.359  1.00  0.00    -0.270 OA
HETATM    9  H   UNL     1      39.008 -14.261   3.186  1.00  0.00     0.165 HD
ENDROOT
BRANCH   2  10
HETATM   10  C   UNL     1      41.217 -12.197   4.038  1.00  0.00     0.026 C 
HETATM   11  C   UNL     1      42.418 -13.134   3.800  1.00  0.00     0.035 C 
HETATM   12  C   UNL     1      42.183 -14.576   4.221  1.00  0.00     0.235 C 
HETATM   13  N   UNL     1      41.749 -14.641   5.665  1.00  0.00    -0.067 N 
HETATM   14  H   UNL     1      42.550 -14.326   6.228  1.00  0.00     0.280 HD
HETATM   15  C   UNL     1      40.574 -13.753   5.988  1.00  0.00     0.235 C 
HETATM   16  C   UNL     1      40.810 -12.323   5.518  1.00  0.00     0.035 C 
BRANCH  13  17
HETATM   17  C   UNL     1      41.454 -16.069   6.117  1.00  0.00     0.273 C 
BRANCH  17  18
HETATM   18  C   UNL     1      42.330 -17.114   5.479  1.00  0.00    -0.033 A 
HETATM   19  C   UNL     1      41.928 -17.778   4.313  1.00  0.00     0.010 A 
HETATM   20  C   UNL     1      42.725 -18.791   3.768  1.00  0.00     0.018 A 
HETATM   21  C   UNL     1      43.930 -19.159   4.382  1.00  0.00     0.039 A 
HETATM   22  C   UNL     1      44.340 -18.487   5.538  1.00  0.00     0.018 A 
HETATM   23  C   UNL     1      43.549 -17.472   6.081  1.00  0.00     0.010 A 
BRANCH  21  24
HETATM   24  C   UNL     1      44.721 -20.265   3.776  1.00  0.00     0.292 C 
HETATM   25  O   UNL     1      45.594 -20.867   4.378  1.00  0.00    -0.259 OA
BRANCH  24  26
HETATM   26  O   UNL     1      44.351 -20.464   2.488  1.00  0.00    -0.323 OA
HETATM   27  C   UNL     1      44.292 -21.840   2.105  1.00  0.00     0.213 C 
ENDBRANCH  24  26
ENDBRANCH  21  24
ENDBRANCH  17  18
ENDBRANCH  13  17
ENDBRANCH   2  10
BRANCH   6  28
HETATM   28  C   UNL     1      40.738 -12.816  -0.685  1.00  0.00     0.106 C 
HETATM   29  C   UNL     1      41.482 -14.055  -1.240  1.00  0.00     0.065 C 
HETATM   30  C   UNL     1      40.483 -14.679  -2.157  1.00  0.00    -0.050 A 
HETATM   31  C   UNL     1      39.363 -13.864  -2.330  1.00  0.00    -0.050 A 
HETATM   32  C   UNL     1      40.597 -15.886  -2.830  1.00  0.00     0.007 A 
HETATM   33  C   UNL     1      39.476 -12.592  -1.552  1.00  0.00     0.065 C 
HETATM   34  C   UNL     1      38.333 -14.239  -3.177  1.00  0.00     0.007 A 
HETATM   35  C   UNL     1      38.435 -15.456  -3.854  1.00  0.00     0.001 A 
HETATM   36  C   UNL     1      39.561 -16.275  -3.680  1.00  0.00     0.001 A 
ENDBRANCH   6  28
TORSDOF 6
ENDMDL
MODEL 6
REMARK VINA RESULT:      -8.6      6.034     10.131
REMARK  6 active torsions:
REMARK  status: ('A' for Active; 'I' for Inactive)
REMARK    1  A    between atoms: C_2  and  C_3 
REMARK    2  A    between atoms: N_6  and  C_8 
REMARK    3  A    between atoms: C_8  and  C_9 
REMARK    4  A    between atoms: C_12  and  C_13 
REMARK    5  A    between atoms: C_13  and  O_14 
REMARK    6  A    between atoms: N_24  and  C_25 
ROOT
HETATM    1  C   UNL     1      41.891 -12.520   4.358  1.00  0.00     0.049 C 
HETATM    2  C   UNL     1      41.521 -13.341   3.122  1.00  0.00     0.116 A 
HETATM    3  N   UNL     1      42.708 -13.845   2.475  1.00  0.00    -0.324 N 
HETATM    4  C   UNL     1      42.813 -15.217   2.579  1.00  0.00     0.326 A 
HETATM    5  O   UNL     1      43.795 -15.809   2.172  1.00  0.00    -0.247 OA
HETATM    6  N   UNL     1      41.684 -15.707   3.154  1.00  0.00    -0.263 N 
HETATM    7  C   UNL     1      40.897 -14.674   3.586  1.00  0.00     0.256 A 
HETATM    8  O   UNL     1      39.846 -14.764   4.204  1.00  0.00    -0.270 OA
HETATM    9  H   UNL     1      43.591 -13.349   2.416  1.00  0.00     0.165 HD
ENDROOT
BRANCH   2  10
HETATM   10  C   UNL     1      40.556 -12.592   2.147  1.00  0.00     0.026 C 
HETATM   11  C   UNL     1      40.159 -13.378   0.882  1.00  0.00     0.035 C 
HETATM   12  C   UNL     1      41.242 -13.440  -0.184  1.00  0.00     0.235 C 
HETATM   13  N   UNL     1      41.699 -12.050  -0.555  1.00  0.00    -0.067 N 
HETATM   14  H   UNL     1      40.901 -11.590  -1.012  1.00  0.00     0.280 HD
HETATM   15  C   UNL     1      42.108 -11.209   0.628  1.00  0.00     0.235 C 
HETATM   16  C   UNL     1      41.030 -11.196   1.703  1.00  0.00     0.035 C 
BRANCH  13  17
HETATM   17  C   UNL     1      42.821 -12.067  -1.588  1.00  0.00     0.273 C 
BRANCH  17  18
HETATM   18  C   UNL     1      42.606 -11.138  -2.752  1.00  0.00    -0.033 A 
HETATM   19  C   UNL     1      42.344 -11.637  -4.035  1.00  0.00     0.010 A 
HETATM   20  C   UNL     1      42.210 -10.761  -5.118  1.00  0.00     0.018 A 
HETATM   21  C   UNL     1      42.340  -9.378  -4.938  1.00  0.00     0.039 A 
HETATM   22  C   UNL     1      42.587  -8.876  -3.655  1.00  0.00     0.018 A 
HETATM   23  C   UNL     1      42.717  -9.748  -2.572  1.00  0.00     0.010 A 
BRANCH  21  24
HETATM   24  C   UNL     1      42.218  -8.496  -6.132  1.00  0.00     0.292 C 
HETATM   25  O   UNL     1      41.154  -8.044  -6.519  1.00  0.00    -0.259 OA
BRANCH  24  26
HETATM   26  O   UNL     1      43.428  -8.312  -6.712  1.00  0.00    -0.323 OA
HETATM   27  C   UNL     1      43.373  -8.140  -8.130  1.00  0.00     0.213 C 
ENDBRANCH  24  26
ENDBRANCH  21  24
ENDBRANCH  17  18
ENDBRANCH  13  17
ENDBRANCH   2  10
BRANCH   6  28
HETATM   28  C   UNL     1      41.406 -17.117   3.458  1.00  0.00     0.106 C 
HETATM   29  C   UNL     1      41.759 -18.072   2.291  1.00  0.00     0.065 C 
HETATM   30  C   UNL     1      42.921 -18.848   2.817  1.00  0.00    -0.050 A 
HETATM   31  C   UNL     1      43.143 -18.591   4.170  1.00  0.00    -0.050 A 
HETATM   32  C   UNL     1      43.701 -19.765   2.128  1.00  0.00     0.007 A 
HETATM   33  C   UNL     1      42.155 -17.611   4.719  1.00  0.00     0.065 C 
HETATM   34  C   UNL     1      44.150 -19.242   4.864  1.00  0.00     0.007 A 
HETATM   35  C   UNL     1      44.945 -20.162   4.178  1.00  0.00     0.001 A 
HETATM   36  C   UNL     1      44.721 -20.422   2.817  1.00  0.00     0.001 A 
ENDBRANCH   6  28
TORSDOF 6
ENDMDL
MODEL 7
REMARK VINA RESULT:      -8.3      5.942      8.838
REMARK  6 active torsions:
REMARK  status: ('A' for Active; 'I' for Inactive)
REMARK    1  A    between atoms: C_2  and  C_3 
REMARK    2  A    between atoms: N_6  and  C_8 
REMARK    3  A    between atoms: C_8  and  C_9 
REMARK    4  A    between atoms: C_12  and  C_13 
REMARK    5  A    between atoms: C_13  and  O_14 
REMARK    6  A    between atoms: N_24  and  C_25 
ROOT
HETATM    1  C   UNL     1      37.559 -14.098   0.596  1.00  0.00     0.049 C 
HETATM    2  C   UNL     1      39.066 -14.005   0.845  1.00  0.00     0.116 A 
HETATM    3  N   UNL     1      39.795 -14.618  -0.238  1.00  0.00    -0.324 N 
HETATM    4  C   UNL     1      40.497 -13.691  -0.982  1.00  0.00     0.326 A 
HETATM    5  O   UNL     1      41.098 -14.013  -1.990  1.00  0.00    -0.247 OA
HETATM    6  N   UNL     1      40.397 -12.475  -0.385  1.00  0.00    -0.263 N 
HETATM    7  C   UNL     1      39.506 -12.539   0.652  1.00  0.00     0.256 A 
HETATM    8  O   UNL     1      39.133 -11.611   1.354  1.00  0.00    -0.270 OA
HETATM    9  H   UNL     1      39.491 -15.440  -0.751  1.00  0.00     0.165 HD
ENDROOT
BRANCH   2  10
HETATM   10  C   UNL     1      39.494 -14.528   2.254  1.00  0.00     0.026 C 
HETATM   11  C   UNL     1      40.848 -13.998   2.767  1.00  0.00     0.035 C 
HETATM   12  C   UNL     1      42.062 -14.647   2.120  1.00  0.00     0.235 C 
HETATM   13  N   UNL     1      42.000 -16.148   2.265  1.00  0.00    -0.067 N 
HETATM   14  H   UNL     1      42.092 -16.351   3.269  1.00  0.00     0.280 HD
HETATM   15  C   UNL     1      40.704 -16.752   1.784  1.00  0.00     0.235 C 
HETATM   16  C   UNL     1      39.500 -16.060   2.409  1.00  0.00     0.035 C 
BRANCH  13  17
HETATM   17  C   UNL     1      43.176 -16.843   1.586  1.00  0.00     0.273 C 
BRANCH  17  18
HETATM   18  C   UNL     1      43.534 -18.178   2.182  1.00  0.00    -0.033 A 
HETATM   19  C   UNL     1      44.115 -18.267   3.454  1.00  0.00     0.010 A 
HETATM   20  C   UNL     1      44.500 -19.511   3.966  1.00  0.00     0.018 A 
HETATM   21  C   UNL     1      44.317 -20.681   3.216  1.00  0.00     0.039 A 
HETATM   22  C   UNL     1      43.724 -20.595   1.952  1.00  0.00     0.018 A 
HETATM   23  C   UNL     1      43.334 -19.355   1.440  1.00  0.00     0.010 A 
BRANCH  21  24
HETATM   24  C   UNL     1      44.774 -21.972   3.799  1.00  0.00     0.292 C 
HETATM   25  O   UNL     1      44.696 -23.035   3.206  1.00  0.00    -0.259 OA
BRANCH  24  26
HETATM   26  O   UNL     1      45.242 -21.786   5.057  1.00  0.00    -0.323 OA
HETATM   27  C   UNL     1      44.241 -21.893   6.072  1.00  0.00     0.213 C 
ENDBRANCH  24  26
ENDBRANCH  21  24
ENDBRANCH  17  18
ENDBRANCH  13  17
ENDBRANCH   2  10
BRANCH   6  28
HETATM   28  C   UNL     1      40.986 -11.219  -0.868  1.00  0.00     0.106 C 
HETATM   29  C   UNL     1      42.264 -11.435  -1.716  1.00  0.00     0.065 C 
HETATM   30  C   UNL     1      41.843 -11.023  -3.089  1.00  0.00    -0.050 A 
HETATM   31  C   UNL     1      40.577 -10.438  -3.086  1.00  0.00    -0.050 A 
HETATM   32  C   UNL     1      42.577 -11.129  -4.260  1.00  0.00     0.007 A 
HETATM   33  C   UNL     1      39.993 -10.383  -1.710  1.00  0.00     0.065 C 
HETATM   34  C   UNL     1      40.015  -9.948  -4.254  1.00  0.00     0.007 A 
HETATM   35  C   UNL     1      40.744 -10.055  -5.440  1.00  0.00     0.001 A 
HETATM   36  C   UNL     1      42.018 -10.643  -5.443  1.00  0.00     0.001 A 
ENDBRANCH   6  28
TORSDOF 6
ENDMDL
MODEL 8
REMARK VINA RESULT:      -8.2      4.424      8.078
REMARK  6 active torsions:
REMARK  status: ('A' for Active; 'I' for Inactive)
REMARK    1  A    between atoms: C_2  and  C_3 
REMARK    2  A    between atoms: N_6  and  C_8 
REMARK    3  A    between atoms: C_8  and  C_9 
REMARK    4  A    between atoms: C_12  and  C_13 
REMARK    5  A    between atoms: C_13  and  O_14 
REMARK    6  A    between atoms: N_24  and  C_25 
ROOT
HETATM    1  C   UNL     1      40.364 -15.423   2.535  1.00  0.00     0.049 C 
HETATM    2  C   UNL     1      40.590 -13.915   2.656  1.00  0.00     0.116 A 
HETATM    3  N   UNL     1      41.860 -13.547   2.079  1.00  0.00    -0.324 N 
HETATM    4  C   UNL     1      41.710 -12.797   0.930  1.00  0.00     0.326 A 
HETATM    5  O   UNL     1      42.671 -12.472   0.257  1.00  0.00    -0.247 OA
HETATM    6  N   UNL     1      40.394 -12.512   0.753  1.00  0.00    -0.263 N 
HETATM    7  C   UNL     1      39.643 -13.197   1.671  1.00  0.00     0.256 A 
HETATM    8  O   UNL     1      38.424 -13.220   1.748  1.00  0.00    -0.270 OA
HETATM    9  H   UNL     1      42.700 -14.114   2.116  1.00  0.00     0.165 HD
ENDROOT
BRANCH   2  10
HETATM   10  C   UNL     1      40.388 -13.373   4.107  1.00  0.00     0.026 C 
HETATM   11  C   UNL     1      41.616 -12.673   4.724  1.00  0.00     0.035 C 
HETATM   12  C   UNL     1      42.709 -13.620   5.193  1.00  0.00     0.235 C 
HETATM   13  N   UNL     1      42.150 -14.637   6.157  1.00  0.00    -0.067 N 
HETATM   14  H   UNL     1      41.866 -14.119   6.999  1.00  0.00     0.280 HD
HETATM   15  C   UNL     1      40.942 -15.373   5.633  1.00  0.00     0.235 C 
HETATM   16  C   UNL     1      39.878 -14.408   5.126  1.00  0.00     0.035 C 
BRANCH  13  17
HETATM   17  C   UNL     1      43.204 -15.639   6.616  1.00  0.00     0.273 C 
BRANCH  17  18
HETATM   18  C   UNL     1      43.471 -16.751   5.637  1.00  0.00    -0.033 A 
HETATM   19  C   UNL     1      43.500 -16.506   4.258  1.00  0.00     0.010 A 
HETATM   20  C   UNL     1      43.685 -17.562   3.359  1.00  0.00     0.018 A 
HETATM   21  C   UNL     1      43.839 -18.875   3.822  1.00  0.00     0.039 A 
HETATM   22  C   UNL     1      43.825 -19.120   5.199  1.00  0.00     0.018 A 
HETATM   23  C   UNL     1      43.645 -18.067   6.099  1.00  0.00     0.010 A 
BRANCH  21  24
HETATM   24  C   UNL     1      44.003 -19.963   2.818  1.00  0.00     0.292 C 
HETATM   25  O   UNL     1      43.518 -19.915   1.700  1.00  0.00    -0.259 OA
BRANCH  24  26
HETATM   26  O   UNL     1      44.722 -20.986   3.339  1.00  0.00    -0.323 OA
HETATM   27  C   UNL     1      44.444 -22.255   2.742  1.00  0.00     0.213 C 
ENDBRANCH  24  26
ENDBRANCH  21  24
ENDBRANCH  17  18
ENDBRANCH  13  17
ENDBRANCH   2  10
BRANCH   6  28
HETATM   28  C   UNL     1      39.812 -11.750  -0.360  1.00  0.00     0.106 C 
HETATM   29  C   UNL     1      40.514 -10.391  -0.598  1.00  0.00     0.065 C 
HETATM   30  C   UNL     1      41.191 -10.576  -1.916  1.00  0.00    -0.050 A 
HETATM   31  C   UNL     1      40.813 -11.772  -2.526  1.00  0.00    -0.050 A 
HETATM   32  C   UNL     1      42.059  -9.697  -2.546  1.00  0.00     0.007 A 
HETATM   33  C   UNL     1      39.833 -12.536  -1.693  1.00  0.00     0.065 C 
HETATM   34  C   UNL     1      41.295 -12.118  -3.778  1.00  0.00     0.007 A 
HETATM   35  C   UNL     1      42.174 -11.242  -4.418  1.00  0.00     0.001 A 
HETATM   36  C   UNL     1      42.554 -10.039  -3.805  1.00  0.00     0.001 A 
ENDBRANCH   6  28
TORSDOF 6
ENDMDL
MODEL 9
REMARK VINA RESULT:      -8.2      4.362      8.304
REMARK  6 active torsions:
REMARK  status: ('A' for Active; 'I' for Inactive)
REMARK    1  A    between atoms: C_2  and  C_3 
REMARK    2  A    between atoms: N_6  and  C_8 
REMARK    3  A    between atoms: C_8  and  C_9 
REMARK    4  A    between atoms: C_12  and  C_13 
REMARK    5  A    between atoms: C_13  and  O_14 
REMARK    6  A    between atoms: N_24  and  C_25 
ROOT
HETATM    1  C   UNL     1      39.495 -12.039   3.235  1.00  0.00     0.049 C 
HETATM    2  C   UNL     1      40.585 -13.014   2.787  1.00  0.00     0.116 A 
HETATM    3  N   UNL     1      40.173 -14.376   3.025  1.00  0.00    -0.324 N 
HETATM    4  C   UNL     1      39.954 -15.065   1.848  1.00  0.00     0.326 A 
HETATM    5  O   UNL     1      39.514 -16.199   1.852  1.00  0.00    -0.247 OA
HETATM    6  N   UNL     1      40.325 -14.284   0.801  1.00  0.00    -0.263 N 
HETATM    7  C   UNL     1      40.632 -13.026   1.245  1.00  0.00     0.256 A 
HETATM    8  O   UNL     1      40.937 -12.062   0.559  1.00  0.00    -0.270 OA
HETATM    9  H   UNL     1      39.614 -14.685   3.813  1.00  0.00     0.165 HD
ENDROOT
BRANCH   2  10
HETATM   10  C   UNL     1      41.993 -12.682   3.378  1.00  0.00     0.026 C 
HETATM   11  C   UNL     1      43.067 -13.769   3.169  1.00  0.00     0.035 C 
HETATM   12  C   UNL     1      42.928 -14.973   4.087  1.00  0.00     0.235 C 
HETATM   13  N   UNL     1      42.902 -14.536   5.532  1.00  0.00    -0.067 N 
HETATM   14  H   UNL     1      43.832 -14.148   5.739  1.00  0.00     0.280 HD
HETATM   15  C   UNL     1      41.876 -13.471   5.827  1.00  0.00     0.235 C 
HETATM   16  C   UNL     1      42.002 -12.294   4.868  1.00  0.00     0.035 C 
BRANCH  13  17
HETATM   17  C   UNL     1      42.715 -15.710   6.487  1.00  0.00     0.273 C 
BRANCH  17  18
HETATM   18  C   UNL     1      43.250 -17.020   5.972  1.00  0.00    -0.033 A 
HETATM   19  C   UNL     1      44.564 -17.421   6.249  1.00  0.00     0.010 A 
HETATM   20  C   UNL     1      45.065 -18.611   5.709  1.00  0.00     0.018 A 
HETATM   21  C   UNL     1      44.266 -19.414   4.885  1.00  0.00     0.039 A 
HETATM   22  C   UNL     1      42.949 -19.023   4.620  1.00  0.00     0.018 A 
HETATM   23  C   UNL     1      42.445 -17.838   5.161  1.00  0.00     0.010 A 
BRANCH  21  24
HETATM   24  C   UNL     1      44.862 -20.653   4.315  1.00  0.00     0.292 C 
HETATM   25  O   UNL     1      45.168 -21.618   4.994  1.00  0.00    -0.259 OA
BRANCH  24  26
HETATM   26  O   UNL     1      45.031 -20.527   2.976  1.00  0.00    -0.323 OA
HETATM   27  C   UNL     1      44.435 -21.578   2.212  1.00  0.00     0.213 C 
ENDBRANCH  24  26
ENDBRANCH  21  24
ENDBRANCH  17  18
ENDBRANCH  13  17
ENDBRANCH   2  10
BRANCH   6  28
HETATM   28  C   UNL     1      40.235 -14.639  -0.622  1.00  0.00     0.106 C 
HETATM   29  C   UNL     1      39.205 -13.783  -1.398  1.00  0.00     0.065 C 
HETATM   30  C   UNL     1      40.053 -12.961  -2.312  1.00  0.00    -0.050 A 
HETATM   31  C   UNL     1      41.387 -13.371  -2.284  1.00  0.00    -0.050 A 
HETATM   32  C   UNL     1      39.639 -11.938  -3.150  1.00  0.00     0.007 A 
HETATM   33  C   UNL     1      41.596 -14.521  -1.350  1.00  0.00     0.065 C 
HETATM   34  C   UNL     1      42.336 -12.766  -3.092  1.00  0.00     0.007 A 
HETATM   35  C   UNL     1      41.930 -11.730  -3.935  1.00  0.00     0.001 A 
HETATM   36  C   UNL     1      40.589 -11.318  -3.964  1.00  0.00     0.001 A 
ENDBRANCH   6  28
TORSDOF 6
ENDMDL
MODEL 10
REMARK VINA RESULT:      -8.1      6.145      9.461
REMARK  6 active torsions:
REMARK  status: ('A' for Active; 'I' for Inactive)
REMARK    1  A    between atoms: C_2  and  C_3 
REMARK    2  A    between atoms: N_6  and  C_8 
REMARK    3  A    between atoms: C_8  and  C_9 
REMARK    4  A    between atoms: C_12  and  C_13 
REMARK    5  A    between atoms: C_13  and  O_14 
REMARK    6  A    between atoms: N_24  and  C_25 
ROOT
HETATM    1  C   UNL     1      42.292 -13.010   2.987  1.00  0.00     0.049 C 
HETATM    2  C   UNL     1      41.276 -14.052   2.519  1.00  0.00     0.116 A 
HETATM    3  N   UNL     1      41.761 -14.740   1.348  1.00  0.00    -0.324 N 
HETATM    4  C   UNL     1      42.055 -16.064   1.607  1.00  0.00     0.326 A 
HETATM    5  O   UNL     1      42.561 -16.776   0.761  1.00  0.00    -0.247 OA
HETATM    6  N   UNL     1      41.670 -16.364   2.875  1.00  0.00    -0.263 N 
HETATM    7  C   UNL     1      41.276 -15.224   3.523  1.00  0.00     0.256 A 
HETATM    8  O   UNL     1      40.935 -15.129   4.692  1.00  0.00    -0.270 OA
HETATM    9  H   UNL     1      42.314 -14.313   0.611  1.00  0.00     0.165 HD
ENDROOT
BRANCH   2  10
HETATM   10  C   UNL     1      39.833 -13.476   2.346  1.00  0.00     0.026 C 
HETATM   11  C   UNL     1      38.871 -14.351   1.518  1.00  0.00     0.035 C 
HETATM   12  C   UNL     1      39.109 -14.299   0.017  1.00  0.00     0.235 C 
HETATM   13  N   UNL     1      39.071 -12.873  -0.475  1.00  0.00    -0.067 N 
HETATM   14  H   UNL     1      38.105 -12.543  -0.346  1.00  0.00     0.280 HD
HETATM   15  C   UNL     1      39.987 -11.944   0.282  1.00  0.00     0.235 C 
HETATM   16  C   UNL     1      39.765 -12.044   1.786  1.00  0.00     0.035 C 
BRANCH  13  17
HETATM   17  C   UNL     1      39.353 -12.769  -1.970  1.00  0.00     0.273 C 
BRANCH  17  18
HETATM   18  C   UNL     1      38.148 -12.984  -2.846  1.00  0.00    -0.033 A 
HETATM   19  C   UNL     1      37.870 -14.244  -3.393  1.00  0.00     0.010 A 
HETATM   20  C   UNL     1      36.781 -14.412  -4.256  1.00  0.00     0.018 A 
HETATM   21  C   UNL     1      35.958 -13.327  -4.587  1.00  0.00     0.039 A 
HETATM   22  C   UNL     1      36.225 -12.072  -4.029  1.00  0.00     0.018 A 
HETATM   23  C   UNL     1      37.309 -11.903  -3.164  1.00  0.00     0.010 A 
BRANCH  21  24
HETATM   24  C   UNL     1      34.833 -13.558  -5.534  1.00  0.00     0.292 C 
HETATM   25  O   UNL     1      33.781 -12.942  -5.482  1.00  0.00    -0.259 OA
BRANCH  24  26
HETATM   26  O   UNL     1      35.142 -14.547  -6.407  1.00  0.00    -0.323 OA
HETATM   27  C   UNL     1      35.247 -14.111  -7.765  1.00  0.00     0.213 C 
ENDBRANCH  24  26
ENDBRANCH  21  24
ENDBRANCH  17  18
ENDBRANCH  13  17
ENDBRANCH   2  10
BRANCH   6  28
HETATM   28  C   UNL     1      41.823 -17.663   3.544  1.00  0.00     0.106 C 
HETATM   29  C   UNL     1      43.291 -18.152   3.592  1.00  0.00     0.065 C 
HETATM   30  C   UNL     1      43.634 -18.082   5.043  1.00  0.00    -0.050 A 
HETATM   31  C   UNL     1      42.512 -17.801   5.825  1.00  0.00    -0.050 A 
HETATM   32  C   UNL     1      44.872 -18.302   5.627  1.00  0.00     0.007 A 
HETATM   33  C   UNL     1      41.278 -17.651   4.993  1.00  0.00     0.065 C 
HETATM   34  C   UNL     1      42.604 -17.733   7.206  1.00  0.00     0.007 A 
HETATM   35  C   UNL     1      43.848 -17.947   7.802  1.00  0.00     0.001 A 
HETATM   36  C   UNL     1      44.975 -18.229   7.017  1.00  0.00     0.001 A 
ENDBRANCH   6  28
TORSDOF 6
ENDMDL
