MODEL 1
REMARK VINA RESULT:      -9.5      0.000      0.000
REMARK  8 active torsions:
REMARK  status: ('A' for Active; 'I' for Inactive)
REMARK    1  A    between atoms: O_2  and  C_3 
REMARK    2  A    between atoms: C_5  and  C_6 
REMARK    3  A    between atoms: C_6  and  N_7 
REMARK       I    between atoms: N_7  and  C_8 
REMARK    4  A    between atoms: C_8  and  C_9 
REMARK    5  A    between atoms: C_9  and  C_10 
REMARK    6  A    between atoms: C_10  and  N_11 
REMARK    7  A    between atoms: N_11  and  S_12 
REMARK    8  A    between atoms: S_12  and  C_13 
ROOT
HETATM    1  N   UNL     1      44.343 -12.762   8.546  1.00  0.00    -0.215 NA
HETATM    2  H   UNL     1      43.642 -13.324   9.033  1.00  0.00     0.139 HD
ENDROOT
BRANCH   1   3
HETATM    3  C   UNL     1      45.167 -13.468   7.541  1.00  0.00     0.113 C 
BRANCH   3   4
HETATM    4  C   UNL     1      44.295 -13.983   6.405  1.00  0.00     0.118 C 
BRANCH   4   5
HETATM    5  C   UNL     1      43.766 -15.367   6.709  1.00  0.00     0.219 C 
HETATM    6  N   UNL     1      42.984 -15.895   5.711  1.00  0.00    -0.357 N 
HETATM    7  H   UNL     1      42.984 -15.437   4.810  1.00  0.00     0.162 HD
HETATM    8  O   UNL     1      44.036 -15.958   7.748  1.00  0.00    -0.274 OA
BRANCH   6   9
HETATM    9  C   UNL     1      42.480 -17.246   5.793  1.00  0.00     0.161 C 
BRANCH   9  10
HETATM   10  C   UNL     1      43.063 -18.116   4.709  1.00  0.00    -0.038 A 
HETATM   11  C   UNL     1      43.892 -19.205   5.039  1.00  0.00     0.045 A 
HETATM   12  C   UNL     1      44.432 -20.024   4.047  1.00  0.00     0.068 A 
HETATM   13  C   UNL     1      44.142 -19.753   2.710  1.00  0.00     0.037 A 
HETATM   14  C   UNL     1      43.323 -18.676   2.365  1.00  0.00     0.003 A 
HETATM   15  C   UNL     1      42.786 -17.861   3.361  1.00  0.00     0.009 A 
BRANCH  12  16
HETATM   16  O   UNL     1      45.247 -21.102   4.254  1.00  0.00    -0.356 OA
HETATM   17  C   UNL     1      44.849 -22.035   5.252  1.00  0.00     0.210 C 
ENDBRANCH  12  16
ENDBRANCH   9  10
ENDBRANCH   6   9
ENDBRANCH   4   5
ENDBRANCH   3   4
ENDBRANCH   1   3
BRANCH   1  18
HETATM   18  S   UNL     1      45.166 -11.808   9.680  1.00  0.00     0.241 S 
HETATM   19  O   UNL     1      45.722 -12.733  10.642  1.00  0.00    -0.206 OA
HETATM   20  O   UNL     1      45.990 -10.880   8.943  1.00  0.00    -0.206 OA
BRANCH  18  21
HETATM   21  C   UNL     1      43.854 -10.926  10.477  1.00  0.00     0.075 A 
HETATM   22  C   UNL     1      44.051 -10.413  11.758  1.00  0.00     0.034 A 
HETATM   23  C   UNL     1      43.008  -9.775  12.466  1.00  0.00    -0.030 A 
HETATM   24  C   UNL     1      41.767  -9.616  11.833  1.00  0.00     0.041 A 
HETATM   25  C   UNL     1      43.356  -9.288  13.845  1.00  0.00     0.041 C 
HETATM   26  N   UNL     1      40.615  -9.019  12.367  1.00  0.00    -0.327 N 
HETATM   27  C   UNL     1      41.605 -10.107  10.519  1.00  0.00     0.031 A 
HETATM   28  C   UNL     1      40.278  -8.468  13.557  1.00  0.00     0.222 C 
HETATM   29  H   UNL     1      39.805  -8.995  11.755  1.00  0.00     0.169 HD
HETATM   30  O   UNL     1      39.129  -8.027  13.667  1.00  0.00    -0.273 OA
HETATM   31  C   UNL     1      41.241  -8.307  14.696  1.00  0.00     0.103 C 
HETATM   32  C   UNL     1      42.237  -9.431  14.858  1.00  0.00     0.014 C 
HETATM   33  C   UNL     1      42.633 -10.763   9.841  1.00  0.00     0.027 A 
ENDBRANCH  18  21
ENDBRANCH   1  18
TORSDOF 8
ENDMDL
MODEL 2
REMARK VINA RESULT:      -9.3      2.758     11.423
REMARK  8 active torsions:
REMARK  status: ('A' for Active; 'I' for Inactive)
REMARK    1  A    between atoms: O_2  and  C_3 
REMARK    2  A    between atoms: C_5  and  C_6 
REMARK    3  A    between atoms: C_6  and  N_7 
REMARK       I    between atoms: N_7  and  C_8 
REMARK    4  A    between atoms: C_8  and  C_9 
REMARK    5  A    between atoms: C_9  and  C_10 
REMARK    6  A    between atoms: C_10  and  N_11 
REMARK    7  A    between atoms: N_11  and  S_12 
REMARK    8  A    between atoms: S_12  and  C_13 
ROOT
HETATM    1  N   UNL     1      42.255 -14.695   4.840  1.00  0.00    -0.215 NA
HETATM    2  H   UNL     1      41.233 -14.669   4.827  1.00  0.00     0.139 HD
ENDROOT
BRANCH   1   3
HETATM    3  C   UNL     1      42.921 -13.799   5.810  1.00  0.00     0.113 C 
BRANCH   3   4
HETATM    4  C   UNL     1      43.961 -14.565   6.614  1.00  0.00     0.118 C 
BRANCH   4   5
HETATM    5  C   UNL     1      44.885 -13.620   7.349  1.00  0.00     0.219 C 
HETATM    6  N   UNL     1      44.316 -13.031   8.453  1.00  0.00    -0.357 N 
HETATM    7  H   UNL     1      43.441 -13.404   8.797  1.00  0.00     0.162 HD
HETATM    8  O   UNL     1      46.040 -13.422   6.991  1.00  0.00    -0.274 OA
BRANCH   6   9
HETATM    9  C   UNL     1      45.088 -12.179   9.326  1.00  0.00     0.161 C 
BRANCH   9  10
HETATM   10  C   UNL     1      44.203 -11.220  10.081  1.00  0.00    -0.038 A 
HETATM   11  C   UNL     1      43.063 -10.669   9.467  1.00  0.00     0.045 A 
HETATM   12  C   UNL     1      42.230  -9.786  10.156  1.00  0.00     0.068 A 
HETATM   13  C   UNL     1      42.541  -9.449  11.473  1.00  0.00     0.037 A 
HETATM   14  C   UNL     1      43.669  -9.985  12.096  1.00  0.00     0.003 A 
HETATM   15  C   UNL     1      44.497 -10.867  11.403  1.00  0.00     0.009 A 
BRANCH  12  16
HETATM   16  O   UNL     1      41.103  -9.194   9.658  1.00  0.00    -0.356 OA
HETATM   17  C   UNL     1      41.043  -8.994   8.250  1.00  0.00     0.210 C 
ENDBRANCH  12  16
ENDBRANCH   9  10
ENDBRANCH   6   9
ENDBRANCH   4   5
ENDBRANCH   3   4
ENDBRANCH   1   3
BRANCH   1  18
HETATM   18  S   UNL     1      42.824 -14.659   3.244  1.00  0.00     0.241 S 
HETATM   19  O   UNL     1      41.703 -14.231   2.436  1.00  0.00    -0.206 OA
HETATM   20  O   UNL     1      44.080 -13.946   3.253  1.00  0.00    -0.206 OA
BRANCH  18  21
HETATM   21  C   UNL     1      43.120 -16.368   2.894  1.00  0.00     0.075 A 
HETATM   22  C   UNL     1      43.419 -17.240   3.940  1.00  0.00     0.034 A 
HETATM   23  C   UNL     1      43.744 -18.595   3.701  1.00  0.00    -0.030 A 
HETATM   24  C   UNL     1      43.711 -19.070   2.382  1.00  0.00     0.041 A 
HETATM   25  C   UNL     1      44.064 -19.415   4.919  1.00  0.00     0.041 C 
HETATM   26  N   UNL     1      44.004 -20.370   1.943  1.00  0.00    -0.327 N 
HETATM   27  C   UNL     1      43.363 -18.176   1.345  1.00  0.00     0.031 A 
HETATM   28  C   UNL     1      44.416 -21.516   2.533  1.00  0.00     0.222 C 
HETATM   29  H   UNL     1      43.925 -20.528   0.943  1.00  0.00     0.169 HD
HETATM   30  O   UNL     1      44.575 -22.500   1.802  1.00  0.00    -0.273 OA
HETATM   31  C   UNL     1      44.612 -21.661   4.014  1.00  0.00     0.103 C 
HETATM   32  C   UNL     1      45.163 -20.439   4.710  1.00  0.00     0.014 C 
HETATM   33  C   UNL     1      43.075 -16.834   1.589  1.00  0.00     0.027 A 
ENDBRANCH  18  21
ENDBRANCH   1  18
TORSDOF 8
ENDMDL
MODEL 3
REMARK VINA RESULT:      -9.2      6.075     10.242
REMARK  8 active torsions:
REMARK  status: ('A' for Active; 'I' for Inactive)
REMARK    1  A    between atoms: O_2  and  C_3 
REMARK    2  A    between atoms: C_5  and  C_6 
REMARK    3  A    between atoms: C_6  and  N_7 
REMARK       I    between atoms: N_7  and  C_8 
REMARK    4  A    between atoms: C_8  and  C_9 
REMARK    5  A    between atoms: C_9  and  C_10 
REMARK    6  A    between atoms: C_10  and  N_11 
REMARK    7  A    between atoms: N_11  and  S_12 
REMARK    8  A    between atoms: S_12  and  C_13 
ROOT
HETATM    1  N   UNL     1      41.871 -15.764   6.655  1.00  0.00    -0.215 NA
HETATM    2  H   UNL     1      41.688 -16.578   7.247  1.00  0.00     0.139 HD
ENDROOT
BRANCH   1   3
HETATM    3  C   UNL     1      40.964 -15.573   5.503  1.00  0.00     0.113 C 
BRANCH   3   4
HETATM    4  C   UNL     1      40.346 -14.183   5.538  1.00  0.00     0.118 C 
BRANCH   4   5
HETATM    5  C   UNL     1      40.448 -13.509   4.188  1.00  0.00     0.219 C 
HETATM    6  N   UNL     1      41.696 -13.590   3.619  1.00  0.00    -0.357 N 
HETATM    7  H   UNL     1      42.365 -14.232   4.021  1.00  0.00     0.162 HD
HETATM    8  O   UNL     1      39.490 -12.960   3.655  1.00  0.00    -0.274 OA
BRANCH   6   9
HETATM    9  C   UNL     1      41.944 -13.087   2.288  1.00  0.00     0.161 C 
BRANCH   9  10
HETATM   10  C   UNL     1      41.731 -14.157   1.248  1.00  0.00    -0.038 A 
HETATM   11  C   UNL     1      41.221 -13.825  -0.021  1.00  0.00     0.045 A 
HETATM   12  C   UNL     1      41.026 -14.803  -0.997  1.00  0.00     0.068 A 
HETATM   13  C   UNL     1      41.344 -16.129  -0.702  1.00  0.00     0.037 A 
HETATM   14  C   UNL     1      41.849 -16.475   0.553  1.00  0.00     0.003 A 
HETATM   15  C   UNL     1      42.042 -15.493   1.524  1.00  0.00     0.009 A 
BRANCH  12  16
HETATM   16  O   UNL     1      40.537 -14.593  -2.256  1.00  0.00    -0.356 OA
HETATM   17  C   UNL     1      40.399 -15.732  -3.098  1.00  0.00     0.210 C 
ENDBRANCH  12  16
ENDBRANCH   9  10
ENDBRANCH   6   9
ENDBRANCH   4   5
ENDBRANCH   3   4
ENDBRANCH   1   3
BRANCH   1  18
HETATM   18  S   UNL     1      43.535 -15.678   6.345  1.00  0.00     0.241 S 
HETATM   19  O   UNL     1      43.685 -14.728   5.265  1.00  0.00    -0.206 OA
HETATM   20  O   UNL     1      44.200 -15.508   7.616  1.00  0.00    -0.206 OA
BRANCH  18  21
HETATM   21  C   UNL     1      43.898 -17.287   5.702  1.00  0.00     0.075 A 
HETATM   22  C   UNL     1      43.769 -17.524   4.334  1.00  0.00     0.034 A 
HETATM   23  C   UNL     1      43.967 -18.812   3.786  1.00  0.00    -0.030 A 
HETATM   24  C   UNL     1      44.352 -19.853   4.642  1.00  0.00     0.041 A 
HETATM   25  C   UNL     1      43.775 -18.926   2.299  1.00  0.00     0.041 C 
HETATM   26  N   UNL     1      44.590 -21.191   4.294  1.00  0.00    -0.327 N 
HETATM   27  C   UNL     1      44.518 -19.577   6.018  1.00  0.00     0.031 A 
HETATM   28  C   UNL     1      44.516 -21.918   3.155  1.00  0.00     0.222 C 
HETATM   29  H   UNL     1      44.862 -21.805   5.056  1.00  0.00     0.169 HD
HETATM   30  O   UNL     1      44.811 -23.116   3.232  1.00  0.00    -0.273 OA
HETATM   31  C   UNL     1      44.169 -21.329   1.819  1.00  0.00     0.103 C 
HETATM   32  C   UNL     1      43.137 -20.227   1.852  1.00  0.00     0.014 C 
HETATM   33  C   UNL     1      44.289 -18.309   6.552  1.00  0.00     0.027 A 
ENDBRANCH  18  21
ENDBRANCH   1  18
TORSDOF 8
ENDMDL
MODEL 4
REMARK VINA RESULT:      -9.1      6.607     10.822
REMARK  8 active torsions:
REMARK  status: ('A' for Active; 'I' for Inactive)
REMARK    1  A    between atoms: O_2  and  C_3 
REMARK    2  A    between atoms: C_5  and  C_6 
REMARK    3  A    between atoms: C_6  and  N_7 
REMARK       I    between atoms: N_7  and  C_8 
REMARK    4  A    between atoms: C_8  and  C_9 
REMARK    5  A    between atoms: C_9  and  C_10 
REMARK    6  A    between atoms: C_10  and  N_11 
REMARK    7  A    between atoms: N_11  and  S_12 
REMARK    8  A    between atoms: S_12  and  C_13 
ROOT
HETATM    1  N   UNL     1      41.236 -15.282   4.352  1.00  0.00    -0.215 NA
HETATM    2  H   UNL     1      41.112 -15.738   3.446  1.00  0.00     0.139 HD
ENDROOT
BRANCH   1   3
HETATM    3  C   UNL     1      40.407 -14.082   4.601  1.00  0.00     0.113 C 
BRANCH   3   4
HETATM    4  C   UNL     1      39.776 -13.593   3.306  1.00  0.00     0.118 C 
BRANCH   4   5
HETATM    5  C   UNL     1      39.996 -14.585   2.186  1.00  0.00     0.219 C 
HETATM    6  N   UNL     1      41.156 -14.377   1.479  1.00  0.00    -0.357 N 
HETATM    7  H   UNL     1      41.843 -13.742   1.862  1.00  0.00     0.162 HD
HETATM    8  O   UNL     1      39.211 -15.497   1.954  1.00  0.00    -0.274 OA
BRANCH   6   9
HETATM    9  C   UNL     1      41.572 -15.290   0.440  1.00  0.00     0.161 C 
BRANCH   9  10
HETATM   10  C   UNL     1      41.452 -14.662  -0.925  1.00  0.00    -0.038 A 
HETATM   11  C   UNL     1      40.755 -15.321  -1.954  1.00  0.00     0.045 A 
HETATM   12  C   UNL     1      40.629 -14.748  -3.220  1.00  0.00     0.068 A 
HETATM   13  C   UNL     1      41.208 -13.503  -3.462  1.00  0.00     0.037 A 
HETATM   14  C   UNL     1      41.905 -12.836  -2.452  1.00  0.00     0.003 A 
HETATM   15  C   UNL     1      42.027 -13.413  -1.189  1.00  0.00     0.009 A 
BRANCH  12  16
HETATM   16  O   UNL     1      39.978 -15.300  -4.288  1.00  0.00    -0.356 OA
HETATM   17  C   UNL     1      39.003 -16.299  -4.009  1.00  0.00     0.210 C 
ENDBRANCH  12  16
ENDBRANCH   9  10
ENDBRANCH   6   9
ENDBRANCH   4   5
ENDBRANCH   3   4
ENDBRANCH   1   3
BRANCH   1  18
HETATM   18  S   UNL     1      42.894 -15.151   4.678  1.00  0.00     0.241 S 
HETATM   19  O   UNL     1      43.462 -14.447   3.549  1.00  0.00    -0.206 OA
HETATM   20  O   UNL     1      43.028 -14.665   6.031  1.00  0.00    -0.206 OA
BRANCH  18  21
HETATM   21  C   UNL     1      43.444 -16.831   4.598  1.00  0.00     0.075 A 
HETATM   22  C   UNL     1      43.452 -17.492   3.371  1.00  0.00     0.034 A 
HETATM   23  C   UNL     1      43.803 -18.858   3.271  1.00  0.00    -0.030 A 
HETATM   24  C   UNL     1      44.199 -19.536   4.432  1.00  0.00     0.041 A 
HETATM   25  C   UNL     1      43.750 -19.447   1.889  1.00  0.00     0.041 C 
HETATM   26  N   UNL     1      44.577 -20.883   4.540  1.00  0.00    -0.327 N 
HETATM   27  C   UNL     1      44.223 -18.831   5.657  1.00  0.00     0.031 A 
HETATM   28  C   UNL     1      44.661 -21.930   3.687  1.00  0.00     0.222 C 
HETATM   29  H   UNL     1      44.833 -21.197   5.470  1.00  0.00     0.169 HD
HETATM   30  O   UNL     1      45.048 -23.007   4.155  1.00  0.00    -0.273 OA
HETATM   31  C   UNL     1      44.382 -21.825   2.216  1.00  0.00     0.103 C 
HETATM   32  C   UNL     1      43.263 -20.882   1.842  1.00  0.00     0.014 C 
HETATM   33  C   UNL     1      43.844 -17.492   5.749  1.00  0.00     0.027 A 
ENDBRANCH  18  21
ENDBRANCH   1  18
TORSDOF 8
ENDMDL
MODEL 5
REMARK VINA RESULT:      -9.1      2.328     11.674
REMARK  8 active torsions:
REMARK  status: ('A' for Active; 'I' for Inactive)
REMARK    1  A    between atoms: O_2  and  C_3 
REMARK    2  A    between atoms: C_5  and  C_6 
REMARK    3  A    between atoms: C_6  and  N_7 
REMARK       I    between atoms: N_7  and  C_8 
REMARK    4  A    between atoms: C_8  and  C_9 
REMARK    5  A    between atoms: C_9  and  C_10 
REMARK    6  A    between atoms: C_10  and  N_11 
REMARK    7  A    between atoms: N_11  and  S_12 
REMARK    8  A    between atoms: S_12  and  C_13 
ROOT
HETATM    1  N   UNL     1      42.667 -14.827   6.236  1.00  0.00    -0.215 NA
HETATM    2  H   UNL     1      41.757 -14.821   6.701  1.00  0.00     0.139 HD
ENDROOT
BRANCH   1   3
HETATM    3  C   UNL     1      43.550 -13.672   6.507  1.00  0.00     0.113 C 
BRANCH   3   4
HETATM    4  C   UNL     1      44.688 -14.079   7.433  1.00  0.00     0.118 C 
BRANCH   4   5
HETATM    5  C   UNL     1      45.242 -12.881   8.172  1.00  0.00     0.219 C 
HETATM    6  N   UNL     1      44.326 -12.255   8.982  1.00  0.00    -0.357 N 
HETATM    7  H   UNL     1      43.455 -12.730   9.176  1.00  0.00     0.162 HD
HETATM    8  O   UNL     1      46.410 -12.526   8.062  1.00  0.00    -0.274 OA
BRANCH   6   9
HETATM    9  C   UNL     1      44.711 -11.156   9.836  1.00  0.00     0.161 C 
BRANCH   9  10
HETATM   10  C   UNL     1      43.613 -10.802  10.806  1.00  0.00    -0.038 A 
HETATM   11  C   UNL     1      43.926 -10.310  12.087  1.00  0.00     0.045 A 
HETATM   12  C   UNL     1      42.920  -9.971  12.992  1.00  0.00     0.068 A 
HETATM   13  C   UNL     1      41.587 -10.126  12.615  1.00  0.00     0.037 A 
HETATM   14  C   UNL     1      41.259 -10.615  11.349  1.00  0.00     0.003 A 
HETATM   15  C   UNL     1      42.269 -10.952  10.448  1.00  0.00     0.009 A 
BRANCH  12  16
HETATM   16  O   UNL     1      43.111  -9.487  14.257  1.00  0.00    -0.356 OA
HETATM   17  C   UNL     1      42.123  -9.807  15.230  1.00  0.00     0.210 C 
ENDBRANCH  12  16
ENDBRANCH   9  10
ENDBRANCH   6   9
ENDBRANCH   4   5
ENDBRANCH   3   4
ENDBRANCH   1   3
BRANCH   1  18
HETATM   18  S   UNL     1      42.450 -15.264   4.613  1.00  0.00     0.241 S 
HETATM   19  O   UNL     1      41.021 -15.363   4.419  1.00  0.00    -0.206 OA
HETATM   20  O   UNL     1      43.273 -14.381   3.818  1.00  0.00    -0.206 OA
BRANCH  18  21
HETATM   21  C   UNL     1      43.118 -16.902   4.554  1.00  0.00     0.075 A 
HETATM   22  C   UNL     1      43.201 -17.565   3.330  1.00  0.00     0.034 A 
HETATM   23  C   UNL     1      43.649 -18.903   3.245  1.00  0.00    -0.030 A 
HETATM   24  C   UNL     1      44.065 -19.547   4.419  1.00  0.00     0.041 A 
HETATM   25  C   UNL     1      43.670 -19.499   1.865  1.00  0.00     0.041 C 
HETATM   26  N   UNL     1      44.534 -20.864   4.541  1.00  0.00    -0.327 N 
HETATM   27  C   UNL     1      44.011 -18.839   5.640  1.00  0.00     0.031 A 
HETATM   28  C   UNL     1      44.711 -21.906   3.696  1.00  0.00     0.222 C 
HETATM   29  H   UNL     1      44.790 -21.157   5.479  1.00  0.00     0.169 HD
HETATM   30  O   UNL     1      45.162 -22.951   4.178  1.00  0.00    -0.273 OA
HETATM   31  C   UNL     1      44.460 -21.825   2.219  1.00  0.00     0.103 C 
HETATM   32  C   UNL     1      43.286 -20.965   1.814  1.00  0.00     0.014 C 
HETATM   33  C   UNL     1      43.537 -17.529   5.717  1.00  0.00     0.027 A 
ENDBRANCH  18  21
ENDBRANCH   1  18
TORSDOF 8
ENDMDL
MODEL 6
REMARK VINA RESULT:      -9.0      3.058     10.722
REMARK  8 active torsions:
REMARK  status: ('A' for Active; 'I' for Inactive)
REMARK    1  A    between atoms: O_2  and  C_3 
REMARK    2  A    between atoms: C_5  and  C_6 
REMARK    3  A    between atoms: C_6  and  N_7 
REMARK       I    between atoms: N_7  and  C_8 
REMARK    4  A    between atoms: C_8  and  C_9 
REMARK    5  A    between atoms: C_9  and  C_10 
REMARK    6  A    between atoms: C_10  and  N_11 
REMARK    7  A    between atoms: N_11  and  S_12 
REMARK    8  A    between atoms: S_12  and  C_13 
ROOT
HETATM    1  N   UNL     1      41.872 -15.488   6.402  1.00  0.00    -0.215 NA
HETATM    2  H   UNL     1      41.477 -16.426   6.499  1.00  0.00     0.139 HD
ENDROOT
BRANCH   1   3
HETATM    3  C   UNL     1      41.321 -14.655   5.311  1.00  0.00     0.113 C 
BRANCH   3   4
HETATM    4  C   UNL     1      39.920 -14.178   5.661  1.00  0.00     0.118 C 
BRANCH   4   5
HETATM    5  C   UNL     1      39.958 -12.824   6.333  1.00  0.00     0.219 C 
HETATM    6  N   UNL     1      41.225 -12.318   6.493  1.00  0.00    -0.357 N 
HETATM    7  H   UNL     1      41.984 -12.762   5.996  1.00  0.00     0.162 HD
HETATM    8  O   UNL     1      38.940 -12.236   6.681  1.00  0.00    -0.274 OA
BRANCH   6   9
HETATM    9  C   UNL     1      41.438 -10.992   7.025  1.00  0.00     0.161 C 
BRANCH   9  10
HETATM   10  C   UNL     1      42.336 -11.024   8.236  1.00  0.00    -0.038 A 
HETATM   11  C   UNL     1      43.544 -11.745   8.207  1.00  0.00     0.045 A 
HETATM   12  C   UNL     1      44.389 -11.777   9.317  1.00  0.00     0.068 A 
HETATM   13  C   UNL     1      44.023 -11.081  10.469  1.00  0.00     0.037 A 
HETATM   14  C   UNL     1      42.827 -10.363  10.515  1.00  0.00     0.003 A 
HETATM   15  C   UNL     1      41.987 -10.334   9.402  1.00  0.00     0.009 A 
BRANCH  12  16
HETATM   16  O   UNL     1      45.580 -12.444   9.399  1.00  0.00    -0.356 OA
HETATM   17  C   UNL     1      46.273 -12.687   8.180  1.00  0.00     0.210 C 
ENDBRANCH  12  16
ENDBRANCH   9  10
ENDBRANCH   6   9
ENDBRANCH   4   5
ENDBRANCH   3   4
ENDBRANCH   1   3
BRANCH   1  18
HETATM   18  S   UNL     1      43.560 -15.592   6.512  1.00  0.00     0.241 S 
HETATM   19  O   UNL     1      44.076 -14.586   5.610  1.00  0.00    -0.206 OA
HETATM   20  O   UNL     1      43.897 -15.609   7.916  1.00  0.00    -0.206 OA
BRANCH  18  21
HETATM   21  C   UNL     1      43.903 -17.177   5.805  1.00  0.00     0.075 A 
HETATM   22  C   UNL     1      43.720 -17.372   4.437  1.00  0.00     0.034 A 
HETATM   23  C   UNL     1      43.901 -18.641   3.841  1.00  0.00    -0.030 A 
HETATM   24  C   UNL     1      44.324 -19.706   4.648  1.00  0.00     0.041 A 
HETATM   25  C   UNL     1      43.651 -18.710   2.360  1.00  0.00     0.041 C 
HETATM   26  N   UNL     1      44.554 -21.032   4.249  1.00  0.00    -0.327 N 
HETATM   27  C   UNL     1      44.544 -19.473   6.024  1.00  0.00     0.031 A 
HETATM   28  C   UNL     1      44.436 -21.723   3.091  1.00  0.00     0.222 C 
HETATM   29  H   UNL     1      44.859 -21.668   4.980  1.00  0.00     0.169 HD
HETATM   30  O   UNL     1      44.740 -22.921   3.118  1.00  0.00    -0.273 OA
HETATM   31  C   UNL     1      44.034 -21.095   1.789  1.00  0.00     0.103 C 
HETATM   32  C   UNL     1      43.000 -20.000   1.898  1.00  0.00     0.014 C 
HETATM   33  C   UNL     1      44.332 -18.224   6.607  1.00  0.00     0.027 A 
ENDBRANCH  18  21
ENDBRANCH   1  18
TORSDOF 8
ENDMDL
MODEL 7
REMARK VINA RESULT:      -9.0      1.532      2.270
REMARK  8 active torsions:
REMARK  status: ('A' for Active; 'I' for Inactive)
REMARK    1  A    between atoms: O_2  and  C_3 
REMARK    2  A    between atoms: C_5  and  C_6 
REMARK    3  A    between atoms: C_6  and  N_7 
REMARK       I    between atoms: N_7  and  C_8 
REMARK    4  A    between atoms: C_8  and  C_9 
REMARK    5  A    between atoms: C_9  and  C_10 
REMARK    6  A    between atoms: C_10  and  N_11 
REMARK    7  A    between atoms: N_11  and  S_12 
REMARK    8  A    between atoms: S_12  and  C_13 
ROOT
HETATM    1  N   UNL     1      44.221 -13.221   9.036  1.00  0.00    -0.215 NA
HETATM    2  H   UNL     1      44.421 -14.120   9.481  1.00  0.00     0.139 HD
ENDROOT
BRANCH   1   3
HETATM    3  C   UNL     1      44.270 -13.195   7.559  1.00  0.00     0.113 C 
BRANCH   3   4
HETATM    4  C   UNL     1      44.982 -14.431   7.028  1.00  0.00     0.118 C 
BRANCH   4   5
HETATM    5  C   UNL     1      44.088 -15.648   7.104  1.00  0.00     0.219 C 
HETATM    6  N   UNL     1      43.612 -16.066   5.885  1.00  0.00    -0.357 N 
HETATM    7  H   UNL     1      44.031 -15.681   5.049  1.00  0.00     0.162 HD
HETATM    8  O   UNL     1      43.835 -16.211   8.163  1.00  0.00    -0.274 OA
BRANCH   6   9
HETATM    9  C   UNL     1      42.826 -17.271   5.763  1.00  0.00     0.161 C 
BRANCH   9  10
HETATM   10  C   UNL     1      42.745 -17.732   4.330  1.00  0.00    -0.038 A 
HETATM   11  C   UNL     1      41.832 -17.134   3.441  1.00  0.00     0.045 A 
HETATM   12  C   UNL     1      41.750 -17.544   2.110  1.00  0.00     0.068 A 
HETATM   13  C   UNL     1      42.589 -18.564   1.661  1.00  0.00     0.037 A 
HETATM   14  C   UNL     1      43.499 -19.169   2.531  1.00  0.00     0.003 A 
HETATM   15  C   UNL     1      43.576 -18.754   3.859  1.00  0.00     0.009 A 
BRANCH  12  16
HETATM   16  O   UNL     1      40.903 -17.036   1.165  1.00  0.00    -0.356 OA
HETATM   17  C   UNL     1      41.494 -16.462   0.004  1.00  0.00     0.210 C 
ENDBRANCH  12  16
ENDBRANCH   9  10
ENDBRANCH   6   9
ENDBRANCH   4   5
ENDBRANCH   3   4
ENDBRANCH   1   3
BRANCH   1  18
HETATM   18  S   UNL     1      45.074 -12.005   9.854  1.00  0.00     0.241 S 
HETATM   19  O   UNL     1      45.824 -12.680  10.891  1.00  0.00    -0.206 OA
HETATM   20  O   UNL     1      45.714 -11.184   8.854  1.00  0.00    -0.206 OA
BRANCH  18  21
HETATM   21  C   UNL     1      43.784 -11.081  10.637  1.00  0.00     0.075 A 
HETATM   22  C   UNL     1      44.014 -10.502  11.885  1.00  0.00     0.034 A 
HETATM   23  C   UNL     1      42.990  -9.826  12.586  1.00  0.00    -0.030 A 
HETATM   24  C   UNL     1      41.733  -9.698  11.977  1.00  0.00     0.041 A 
HETATM   25  C   UNL     1      43.374  -9.269  13.928  1.00  0.00     0.041 C 
HETATM   26  N   UNL     1      40.595  -9.072  12.508  1.00  0.00    -0.327 N 
HETATM   27  C   UNL     1      41.537 -10.256  10.695  1.00  0.00     0.031 A 
HETATM   28  C   UNL     1      40.289  -8.459  13.676  1.00  0.00     0.222 C 
HETATM   29  H   UNL     1      39.770  -9.078  11.917  1.00  0.00     0.169 HD
HETATM   30  O   UNL     1      39.144  -8.010  13.793  1.00  0.00    -0.273 OA
HETATM   31  C   UNL     1      41.281  -8.241  14.781  1.00  0.00     0.103 C 
HETATM   32  C   UNL     1      42.281  -9.357  14.975  1.00  0.00     0.014 C 
HETATM   33  C   UNL     1      42.547 -10.949  10.026  1.00  0.00     0.027 A 
ENDBRANCH  18  21
ENDBRANCH   1  18
TORSDOF 8
ENDMDL
MODEL 8
REMARK VINA RESULT:      -9.0      5.701     10.455
REMARK  8 active torsions:
REMARK  status: ('A' for Active; 'I' for Inactive)
REMARK    1  A    between atoms: O_2  and  C_3 
REMARK    2  A    between atoms: C_5  and  C_6 
REMARK    3  A    between atoms: C_6  and  N_7 
REMARK       I    between atoms: N_7  and  C_8 
REMARK    4  A    between atoms: C_8  and  C_9 
REMARK    5  A    between atoms: C_9  and  C_10 
REMARK    6  A    between atoms: C_10  and  N_11 
REMARK    7  A    between atoms: N_11  and  S_12 
REMARK    8  A    between atoms: S_12  and  C_13 
ROOT
HETATM    1  N   UNL     1      43.740 -15.163   5.837  1.00  0.00    -0.215 NA
HETATM    2  H   UNL     1      44.752 -15.303   5.873  1.00  0.00     0.139 HD
ENDROOT
BRANCH   1   3
HETATM    3  C   UNL     1      43.264 -13.772   5.994  1.00  0.00     0.113 C 
BRANCH   3   4
HETATM    4  C   UNL     1      42.837 -13.201   4.649  1.00  0.00     0.118 C 
BRANCH   4   5
HETATM    5  C   UNL     1      42.584 -14.304   3.645  1.00  0.00     0.219 C 
HETATM    6  N   UNL     1      41.305 -14.804   3.680  1.00  0.00    -0.357 N 
HETATM    7  H   UNL     1      40.605 -14.293   4.199  1.00  0.00     0.162 HD
HETATM    8  O   UNL     1      43.447 -14.691   2.866  1.00  0.00    -0.274 OA
BRANCH   6   9
HETATM    9  C   UNL     1      40.864 -15.791   2.723  1.00  0.00     0.161 C 
BRANCH   9  10
HETATM   10  C   UNL     1      40.102 -15.155   1.589  1.00  0.00    -0.038 A 
HETATM   11  C   UNL     1      40.722 -14.947   0.342  1.00  0.00     0.045 A 
HETATM   12  C   UNL     1      40.027 -14.366  -0.719  1.00  0.00     0.068 A 
HETATM   13  C   UNL     1      38.697 -13.988  -0.534  1.00  0.00     0.037 A 
HETATM   14  C   UNL     1      38.068 -14.185   0.697  1.00  0.00     0.003 A 
HETATM   15  C   UNL     1      38.767 -14.766   1.754  1.00  0.00     0.009 A 
BRANCH  12  16
HETATM   16  O   UNL     1      40.530 -14.118  -1.966  1.00  0.00    -0.356 OA
HETATM   17  C   UNL     1      39.597 -14.033  -3.037  1.00  0.00     0.210 C 
ENDBRANCH  12  16
ENDBRANCH   9  10
ENDBRANCH   6   9
ENDBRANCH   4   5
ENDBRANCH   3   4
ENDBRANCH   1   3
BRANCH   1  18
HETATM   18  S   UNL     1      42.991 -16.345   6.794  1.00  0.00     0.241 S 
HETATM   19  O   UNL     1      43.637 -16.272   8.086  1.00  0.00    -0.206 OA
HETATM   20  O   UNL     1      41.565 -16.180   6.639  1.00  0.00    -0.206 OA
BRANCH  18  21
HETATM   21  C   UNL     1      43.497 -17.855   6.022  1.00  0.00     0.075 A 
HETATM   22  C   UNL     1      43.483 -17.951   4.631  1.00  0.00     0.034 A 
HETATM   23  C   UNL     1      43.799 -19.162   3.972  1.00  0.00    -0.030 A 
HETATM   24  C   UNL     1      44.181 -20.266   4.746  1.00  0.00     0.041 A 
HETATM   25  C   UNL     1      43.725 -19.128   2.471  1.00  0.00     0.041 C 
HETATM   26  N   UNL     1      44.525 -21.546   4.284  1.00  0.00    -0.327 N 
HETATM   27  C   UNL     1      44.228 -20.130   6.151  1.00  0.00     0.031 A 
HETATM   28  C   UNL     1      44.579 -22.151   3.074  1.00  0.00     0.222 C 
HETATM   29  H   UNL     1      44.777 -22.222   4.998  1.00  0.00     0.169 HD
HETATM   30  O   UNL     1      44.940 -23.332   3.052  1.00  0.00    -0.273 OA
HETATM   31  C   UNL     1      44.298 -21.442   1.781  1.00  0.00     0.103 C 
HETATM   32  C   UNL     1      43.201 -20.405   1.844  1.00  0.00     0.014 C 
HETATM   33  C   UNL     1      43.885 -18.940   6.792  1.00  0.00     0.027 A 
ENDBRANCH  18  21
ENDBRANCH   1  18
TORSDOF 8
ENDMDL
MODEL 9
REMARK VINA RESULT:      -9.0      2.401     11.333
REMARK  8 active torsions:
REMARK  status: ('A' for Active; 'I' for Inactive)
REMARK    1  A    between atoms: O_2  and  C_3 
REMARK    2  A    between atoms: C_5  and  C_6 
REMARK    3  A    between atoms: C_6  and  N_7 
REMARK       I    between atoms: N_7  and  C_8 
REMARK    4  A    between atoms: C_8  and  C_9 
REMARK    5  A    between atoms: C_9  and  C_10 
REMARK    6  A    between atoms: C_10  and  N_11 
REMARK    7  A    between atoms: N_11  and  S_12 
REMARK    8  A    between atoms: S_12  and  C_13 
ROOT
HETATM    1  N   UNL     1      44.083 -15.046   6.191  1.00  0.00    -0.215 NA
HETATM    2  H   UNL     1      44.905 -15.498   5.783  1.00  0.00     0.139 HD
ENDROOT
BRANCH   1   3
HETATM    3  C   UNL     1      44.327 -13.798   6.945  1.00  0.00     0.113 C 
BRANCH   3   4
HETATM    4  C   UNL     1      45.817 -13.497   7.009  1.00  0.00     0.118 C 
BRANCH   4   5
HETATM    5  C   UNL     1      46.117 -12.453   8.061  1.00  0.00     0.219 C 
HETATM    6  N   UNL     1      45.226 -12.447   9.107  1.00  0.00    -0.357 N 
HETATM    7  H   UNL     1      44.590 -13.227   9.200  1.00  0.00     0.162 HD
HETATM    8  O   UNL     1      47.082 -11.702   7.982  1.00  0.00    -0.274 OA
BRANCH   6   9
HETATM    9  C   UNL     1      45.420 -11.582  10.247  1.00  0.00     0.161 C 
BRANCH   9  10
HETATM   10  C   UNL     1      44.167 -10.810  10.571  1.00  0.00    -0.038 A 
HETATM   11  C   UNL     1      43.162 -10.643   9.599  1.00  0.00     0.045 A 
HETATM   12  C   UNL     1      41.993  -9.937   9.886  1.00  0.00     0.068 A 
HETATM   13  C   UNL     1      41.826  -9.390  11.158  1.00  0.00     0.037 A 
HETATM   14  C   UNL     1      42.813  -9.545  12.133  1.00  0.00     0.003 A 
HETATM   15  C   UNL     1      43.979 -10.251  11.840  1.00  0.00     0.009 A 
BRANCH  12  16
HETATM   16  O   UNL     1      40.959  -9.714   9.021  1.00  0.00    -0.356 OA
HETATM   17  C   UNL     1      40.708 -10.712   8.038  1.00  0.00     0.210 C 
ENDBRANCH  12  16
ENDBRANCH   9  10
ENDBRANCH   6   9
ENDBRANCH   4   5
ENDBRANCH   3   4
ENDBRANCH   1   3
BRANCH   1  18
HETATM   18  S   UNL     1      43.130 -16.227   6.947  1.00  0.00     0.241 S 
HETATM   19  O   UNL     1      43.623 -16.321   8.303  1.00  0.00    -0.206 OA
HETATM   20  O   UNL     1      41.751 -15.917   6.652  1.00  0.00    -0.206 OA
BRANCH  18  21
HETATM   21  C   UNL     1      43.595 -17.709   6.099  1.00  0.00     0.075 A 
HETATM   22  C   UNL     1      43.502 -17.762   4.709  1.00  0.00     0.034 A 
HETATM   23  C   UNL     1      43.783 -18.949   3.995  1.00  0.00    -0.030 A 
HETATM   24  C   UNL     1      44.211 -20.076   4.711  1.00  0.00     0.041 A 
HETATM   25  C   UNL     1      43.624 -18.868   2.503  1.00  0.00     0.041 C 
HETATM   26  N   UNL     1      44.532 -21.339   4.189  1.00  0.00    -0.327 N 
HETATM   27  C   UNL     1      44.338 -19.984   6.114  1.00  0.00     0.031 A 
HETATM   28  C   UNL     1      44.518 -21.904   2.959  1.00  0.00     0.222 C 
HETATM   29  H   UNL     1      44.825 -22.036   4.866  1.00  0.00     0.169 HD
HETATM   30  O   UNL     1      44.880 -23.083   2.878  1.00  0.00    -0.273 OA
HETATM   31  C   UNL     1      44.162 -21.157   1.708  1.00  0.00     0.103 C 
HETATM   32  C   UNL     1      43.068 -20.127   1.866  1.00  0.00     0.014 C 
HETATM   33  C   UNL     1      44.028 -18.816   6.812  1.00  0.00     0.027 A 
ENDBRANCH  18  21
ENDBRANCH   1  18
TORSDOF 8
ENDMDL
MODEL 10
REMARK VINA RESULT:      -8.8      6.769     10.826
REMARK  8 active torsions:
REMARK  status: ('A' for Active; 'I' for Inactive)
REMARK    1  A    between atoms: O_2  and  C_3 
REMARK    2  A    between atoms: C_5  and  C_6 
REMARK    3  A    between atoms: C_6  and  N_7 
REMARK       I    between atoms: N_7  and  C_8 
REMARK    4  A    between atoms: C_8  and  C_9 
REMARK    5  A    between atoms: C_9  and  C_10 
REMARK    6  A    between atoms: C_10  and  N_11 
REMARK    7  A    between atoms: N_11  and  S_12 
REMARK    8  A    between atoms: S_12  and  C_13 
ROOT
HETATM    1  N   UNL     1      40.984 -14.357   3.698  1.00  0.00    -0.215 NA
HETATM    2  H   UNL     1      40.680 -15.237   4.121  1.00  0.00     0.139 HD
ENDROOT
BRANCH   1   3
HETATM    3  C   UNL     1      40.574 -14.129   2.295  1.00  0.00     0.113 C 
BRANCH   3   4
HETATM    4  C   UNL     1      40.136 -15.435   1.650  1.00  0.00     0.118 C 
BRANCH   4   5
HETATM    5  C   UNL     1      40.818 -15.638   0.316  1.00  0.00     0.219 C 
HETATM    6  N   UNL     1      40.224 -14.960  -0.721  1.00  0.00    -0.357 N 
HETATM    7  H   UNL     1      39.539 -14.251  -0.500  1.00  0.00     0.162 HD
HETATM    8  O   UNL     1      41.819 -16.333   0.191  1.00  0.00    -0.274 OA
BRANCH   6   9
HETATM    9  C   UNL     1      40.804 -14.962  -2.044  1.00  0.00     0.161 C 
BRANCH   9  10
HETATM   10  C   UNL     1      41.450 -13.639  -2.363  1.00  0.00    -0.038 A 
HETATM   11  C   UNL     1      42.220 -12.970  -1.393  1.00  0.00     0.045 A 
HETATM   12  C   UNL     1      42.831 -11.748  -1.676  1.00  0.00     0.068 A 
HETATM   13  C   UNL     1      42.671 -11.187  -2.943  1.00  0.00     0.037 A 
HETATM   14  C   UNL     1      41.909 -11.836  -3.916  1.00  0.00     0.003 A 
HETATM   15  C   UNL     1      41.301 -13.057  -3.627  1.00  0.00     0.009 A 
BRANCH  12  16
HETATM   16  O   UNL     1      43.595 -11.015  -0.812  1.00  0.00    -0.356 OA
HETATM   17  C   UNL     1      43.424  -9.602  -0.831  1.00  0.00     0.210 C 
ENDBRANCH  12  16
ENDBRANCH   9  10
ENDBRANCH   6   9
ENDBRANCH   4   5
ENDBRANCH   3   4
ENDBRANCH   1   3
BRANCH   1  18
HETATM   18  S   UNL     1      42.618 -14.105   4.072  1.00  0.00     0.241 S 
HETATM   19  O   UNL     1      43.218 -13.570   2.870  1.00  0.00    -0.206 OA
HETATM   20  O   UNL     1      42.666 -13.403   5.333  1.00  0.00    -0.206 OA
BRANCH  18  21
HETATM   21  C   UNL     1      43.228 -15.752   4.291  1.00  0.00     0.075 A 
HETATM   22  C   UNL     1      43.418 -16.567   3.177  1.00  0.00     0.034 A 
HETATM   23  C   UNL     1      43.824 -17.915   3.308  1.00  0.00    -0.030 A 
HETATM   24  C   UNL     1      44.087 -18.414   4.592  1.00  0.00     0.041 A 
HETATM   25  C   UNL     1      43.971 -18.682   2.024  1.00  0.00     0.041 C 
HETATM   26  N   UNL     1      44.493 -19.714   4.929  1.00  0.00    -0.327 N 
HETATM   27  C   UNL     1      43.929 -17.555   5.702  1.00  0.00     0.031 A 
HETATM   28  C   UNL     1      44.722 -20.859   4.244  1.00  0.00     0.222 C 
HETATM   29  H   UNL     1      44.636 -19.891   5.918  1.00  0.00     0.169 HD
HETATM   30  O   UNL     1      45.080 -21.844   4.899  1.00  0.00    -0.273 OA
HETATM   31  C   UNL     1      44.633 -20.962   2.750  1.00  0.00     0.103 C 
HETATM   32  C   UNL     1      43.542 -20.134   2.114  1.00  0.00     0.014 C 
HETATM   33  C   UNL     1      43.497 -16.235   5.562  1.00  0.00     0.027 A 
ENDBRANCH  18  21
ENDBRANCH   1  18
TORSDOF 8
ENDMDL
