MODEL 1
REMARK VINA RESULT:      -7.1      0.000      0.000
REMARK  4 active torsions:
REMARK  status: ('A' for Active; 'I' for Inactive)
REMARK    1  A    between atoms: C_5  and  N_6 
REMARK    2  A    between atoms: N_9  and  C_11 
REMARK    3  A    between atoms: C_11  and  C_12 
REMARK    4  A    between atoms: C_13  and  O_14 
ROOT
HETATM    1  N   UNL     1      43.634 -17.174   2.515  1.00  0.00    -0.363 N 
HETATM    2  C   UNL     1      43.327 -16.129   3.501  1.00  0.00     0.152 C 
HETATM    3  C   UNL     1      41.860 -16.139   3.974  1.00  0.00     0.255 C 
HETATM    4  N   UNL     1      40.953 -15.611   2.866  1.00  0.00    -0.066 N 
HETATM    5  H   UNL     1      41.510 -14.922   2.330  1.00  0.00     0.280 HD
HETATM    6  C   UNL     1      40.450 -16.632   1.891  1.00  0.00     0.237 C 
HETATM    7  C   UNL     1      41.463 -17.679   1.441  1.00  0.00     0.047 C 
HETATM    8  C   UNL     1      42.893 -17.180   1.252  1.00  0.00     0.126 C 
ENDROOT
BRANCH   4   9
HETATM    9  C   UNL     1      39.822 -14.756   3.402  1.00  0.00     0.276 C 
BRANCH   9  10
HETATM   10  C   UNL     1      40.279 -13.520   4.135  1.00  0.00     0.002 A 
HETATM   11  C   UNL     1      41.167 -12.601   3.557  1.00  0.00     0.073 A 
HETATM   12  C   UNL     1      41.563 -11.448   4.233  1.00  0.00     0.038 A 
HETATM   13  C   UNL     1      41.058 -11.190   5.508  1.00  0.00     0.022 A 
HETATM   14  C   UNL     1      40.161 -12.084   6.089  1.00  0.00     0.011 A 
HETATM   15 BR   UNL     1      39.469 -11.730   7.812  1.00  0.00    -0.051 Br
HETATM   16  C   UNL     1      39.767 -13.239   5.412  1.00  0.00     0.030 A 
BRANCH  11  17
HETATM   17  O   UNL     1      41.663 -12.871   2.308  1.00  0.00    -0.360 OA
HETATM   18  H   UNL     1      42.205 -13.685   2.375  1.00  0.00     0.217 HD
ENDBRANCH  11  17
ENDBRANCH   9  10
ENDBRANCH   4   9
BRANCH   1  19
HETATM   19  C   UNL     1      43.955 -18.417   3.087  1.00  0.00     0.147 A 
HETATM   20  N   UNL     1      44.215 -18.493   4.411  1.00  0.00    -0.132 NA
HETATM   21  N   UNL     1      44.556 -19.681   5.014  1.00  0.00    -0.153 NA
HETATM   22  C   UNL     1      44.652 -20.804   4.278  1.00  0.00     0.053 A 
HETATM   23  C   UNL     1      45.057 -22.066   4.971  1.00  0.00     0.072 C 
HETATM   24  C   UNL     1      44.380 -20.784   2.922  1.00  0.00     0.032 A 
HETATM   25  C   UNL     1      44.029 -19.574   2.323  1.00  0.00     0.054 A 
ENDBRANCH   1  19
TORSDOF 4
ENDMDL
MODEL 2
REMARK VINA RESULT:      -7.1      1.902      2.360
REMARK  4 active torsions:
REMARK  status: ('A' for Active; 'I' for Inactive)
REMARK    1  A    between atoms: C_5  and  N_6 
REMARK    2  A    between atoms: N_9  and  C_11 
REMARK    3  A    between atoms: C_11  and  C_12 
REMARK    4  A    between atoms: C_13  and  O_14 
ROOT
HETATM    1  N   UNL     1      43.611 -17.115   3.357  1.00  0.00    -0.363 N 
HETATM    2  C   UNL     1      42.397 -16.610   4.014  1.00  0.00     0.152 C 
HETATM    3  C   UNL     1      41.093 -17.029   3.306  1.00  0.00     0.255 C 
HETATM    4  N   UNL     1      40.932 -16.247   2.006  1.00  0.00    -0.066 N 
HETATM    5  H   UNL     1      41.380 -15.326   2.157  1.00  0.00     0.280 HD
HETATM    6  C   UNL     1      41.566 -16.857   0.793  1.00  0.00     0.237 C 
HETATM    7  C   UNL     1      42.946 -17.470   1.001  1.00  0.00     0.047 C 
HETATM    8  C   UNL     1      43.864 -16.728   1.968  1.00  0.00     0.126 C 
ENDROOT
BRANCH   4   9
HETATM    9  C   UNL     1      39.491 -15.859   1.739  1.00  0.00     0.276 C 
BRANCH   9  10
HETATM   10  C   UNL     1      39.202 -14.392   1.937  1.00  0.00     0.002 A 
HETATM   11  C   UNL     1      38.254 -13.712   1.158  1.00  0.00     0.073 A 
HETATM   12  C   UNL     1      37.975 -12.362   1.367  1.00  0.00     0.038 A 
HETATM   13  C   UNL     1      38.641 -11.671   2.379  1.00  0.00     0.022 A 
HETATM   14  C   UNL     1      39.573 -12.335   3.173  1.00  0.00     0.011 A 
HETATM   15 BR   UNL     1      40.468 -11.401   4.550  1.00  0.00    -0.051 Br
HETATM   16  C   UNL     1      39.852 -13.687   2.962  1.00  0.00     0.030 A 
BRANCH  11  17
HETATM   17  O   UNL     1      37.614 -14.401   0.161  1.00  0.00    -0.360 OA
HETATM   18  H   UNL     1      38.096 -14.227  -0.675  1.00  0.00     0.217 HD
ENDBRANCH  11  17
ENDBRANCH   9  10
ENDBRANCH   4   9
BRANCH   1  19
HETATM   19  C   UNL     1      43.965 -18.418   3.745  1.00  0.00     0.147 A 
HETATM   20  N   UNL     1      43.951 -18.751   5.055  1.00  0.00    -0.132 NA
HETATM   21  N   UNL     1      44.311 -20.006   5.486  1.00  0.00    -0.153 NA
HETATM   22  C   UNL     1      44.702 -20.936   4.595  1.00  0.00     0.053 A 
HETATM   23  C   UNL     1      45.115 -22.276   5.114  1.00  0.00     0.072 C 
HETATM   24  C   UNL     1      44.719 -20.652   3.242  1.00  0.00     0.032 A 
HETATM   25  C   UNL     1      44.346 -19.377   2.815  1.00  0.00     0.054 A 
ENDBRANCH   1  19
TORSDOF 4
ENDMDL
MODEL 3
REMARK VINA RESULT:      -7.0      2.215      2.545
REMARK  4 active torsions:
REMARK  status: ('A' for Active; 'I' for Inactive)
REMARK    1  A    between atoms: C_5  and  N_6 
REMARK    2  A    between atoms: N_9  and  C_11 
REMARK    3  A    between atoms: C_11  and  C_12 
REMARK    4  A    between atoms: C_13  and  O_14 
ROOT
HETATM    1  N   UNL     1      43.667 -17.287   2.026  1.00  0.00    -0.363 N 
HETATM    2  C   UNL     1      43.721 -16.089   2.874  1.00  0.00     0.152 C 
HETATM    3  C   UNL     1      42.411 -15.816   3.639  1.00  0.00     0.255 C 
HETATM    4  N   UNL     1      41.342 -15.306   2.677  1.00  0.00    -0.066 N 
HETATM    5  H   UNL     1      41.838 -14.785   1.932  1.00  0.00     0.280 HD
HETATM    6  C   UNL     1      40.512 -16.358   2.006  1.00  0.00     0.237 C 
HETATM    7  C   UNL     1      41.264 -17.595   1.528  1.00  0.00     0.047 C 
HETATM    8  C   UNL     1      42.660 -17.346   0.964  1.00  0.00     0.126 C 
ENDROOT
BRANCH   4   9
HETATM    9  C   UNL     1      40.474 -14.228   3.294  1.00  0.00     0.276 C 
BRANCH   9  10
HETATM   10  C   UNL     1      40.138 -13.096   2.356  1.00  0.00     0.002 A 
HETATM   11  C   UNL     1      41.131 -12.291   1.780  1.00  0.00     0.073 A 
HETATM   12  C   UNL     1      40.811 -11.264   0.894  1.00  0.00     0.038 A 
HETATM   13  C   UNL     1      39.477 -11.034   0.559  1.00  0.00     0.022 A 
HETATM   14  C   UNL     1      38.479 -11.836   1.109  1.00  0.00     0.011 A 
HETATM   15 BR   UNL     1      36.672 -11.532   0.647  1.00  0.00    -0.051 Br
HETATM   16  C   UNL     1      38.801 -12.863   1.997  1.00  0.00     0.030 A 
BRANCH  11  17
HETATM   17  O   UNL     1      42.438 -12.520   2.125  1.00  0.00    -0.360 OA
HETATM   18  H   UNL     1      42.497 -13.438   2.466  1.00  0.00     0.217 HD
ENDBRANCH  11  17
ENDBRANCH   9  10
ENDBRANCH   4   9
BRANCH   1  19
HETATM   19  C   UNL     1      43.963 -18.479   2.710  1.00  0.00     0.147 A 
HETATM   20  N   UNL     1      44.240 -18.437   4.032  1.00  0.00    -0.132 NA
HETATM   21  N   UNL     1      44.557 -19.572   4.741  1.00  0.00    -0.153 NA
HETATM   22  C   UNL     1      44.611 -20.762   4.114  1.00  0.00     0.053 A 
HETATM   23  C   UNL     1      44.991 -21.964   4.919  1.00  0.00     0.072 C 
HETATM   24  C   UNL     1      44.320 -20.863   2.766  1.00  0.00     0.032 A 
HETATM   25  C   UNL     1      43.994 -19.705   2.058  1.00  0.00     0.054 A 
ENDBRANCH   1  19
TORSDOF 4
ENDMDL
MODEL 4
REMARK VINA RESULT:      -7.0      3.524      4.500
REMARK  4 active torsions:
REMARK  status: ('A' for Active; 'I' for Inactive)
REMARK    1  A    between atoms: C_5  and  N_6 
REMARK    2  A    between atoms: N_9  and  C_11 
REMARK    3  A    between atoms: C_11  and  C_12 
REMARK    4  A    between atoms: C_13  and  O_14 
ROOT
HETATM    1  N   UNL     1      42.219 -17.186   3.893  1.00  0.00    -0.363 N 
HETATM    2  C   UNL     1      40.882 -16.985   3.319  1.00  0.00     0.152 C 
HETATM    3  C   UNL     1      40.899 -16.267   1.955  1.00  0.00     0.255 C 
HETATM    4  N   UNL     1      41.234 -14.791   2.147  1.00  0.00    -0.066 N 
HETATM    5  H   UNL     1      40.862 -14.521   3.075  1.00  0.00     0.280 HD
HETATM    6  C   UNL     1      42.693 -14.446   2.136  1.00  0.00     0.237 C 
HETATM    7  C   UNL     1      43.611 -15.411   2.878  1.00  0.00     0.047 C 
HETATM    8  C   UNL     1      43.047 -16.008   4.163  1.00  0.00     0.126 C 
ENDROOT
BRANCH   4   9
HETATM    9  C   UNL     1      40.447 -13.892   1.215  1.00  0.00     0.276 C 
BRANCH   9  10
HETATM   10  C   UNL     1      41.203 -13.473  -0.021  1.00  0.00     0.002 A 
HETATM   11  C   UNL     1      41.216 -14.257  -1.184  1.00  0.00     0.073 A 
HETATM   12  C   UNL     1      41.896 -13.848  -2.329  1.00  0.00     0.038 A 
HETATM   13  C   UNL     1      42.571 -12.627  -2.329  1.00  0.00     0.022 A 
HETATM   14  C   UNL     1      42.554 -11.828  -1.188  1.00  0.00     0.011 A 
HETATM   15 BR   UNL     1      43.459 -10.169  -1.192  1.00  0.00    -0.051 Br
HETATM   16  C   UNL     1      41.873 -12.239  -0.041  1.00  0.00     0.030 A 
BRANCH  11  17
HETATM   17  O   UNL     1      40.557 -15.459  -1.167  1.00  0.00    -0.360 OA
HETATM   18  H   UNL     1      39.621 -15.286  -1.400  1.00  0.00     0.217 HD
ENDBRANCH  11  17
ENDBRANCH   9  10
ENDBRANCH   4   9
BRANCH   1  19
HETATM   19  C   UNL     1      42.867 -18.344   3.430  1.00  0.00     0.147 A 
HETATM   20  N   UNL     1      42.494 -18.889   2.251  1.00  0.00    -0.132 NA
HETATM   21  N   UNL     1      43.082 -20.034   1.766  1.00  0.00    -0.153 NA
HETATM   22  C   UNL     1      44.045 -20.648   2.477  1.00  0.00     0.053 A 
HETATM   23  C   UNL     1      44.632 -21.908   1.925  1.00  0.00     0.072 C 
HETATM   24  C   UNL     1      44.475 -20.123   3.682  1.00  0.00     0.032 A 
HETATM   25  C   UNL     1      43.876 -18.958   4.162  1.00  0.00     0.054 A 
ENDBRANCH   1  19
TORSDOF 4
ENDMDL
MODEL 5
REMARK VINA RESULT:      -6.9      2.697      3.704
REMARK  4 active torsions:
REMARK  status: ('A' for Active; 'I' for Inactive)
REMARK    1  A    between atoms: C_5  and  N_6 
REMARK    2  A    between atoms: N_9  and  C_11 
REMARK    3  A    between atoms: C_11  and  C_12 
REMARK    4  A    between atoms: C_13  and  O_14 
ROOT
HETATM    1  N   UNL     1      42.264 -17.642   6.036  1.00  0.00    -0.363 N 
HETATM    2  C   UNL     1      41.468 -16.594   5.381  1.00  0.00     0.152 C 
HETATM    3  C   UNL     1      42.287 -15.344   5.002  1.00  0.00     0.255 C 
HETATM    4  N   UNL     1      42.633 -14.548   6.257  1.00  0.00    -0.066 N 
HETATM    5  H   UNL     1      41.858 -14.700   6.927  1.00  0.00     0.280 HD
HETATM    6  C   UNL     1      43.902 -14.940   6.950  1.00  0.00     0.237 C 
HETATM    7  C   UNL     1      44.172 -16.437   7.050  1.00  0.00     0.047 C 
HETATM    8  C   UNL     1      42.948 -17.317   7.289  1.00  0.00     0.126 C 
ENDROOT
BRANCH   4   9
HETATM    9  C   UNL     1      42.567 -13.051   6.029  1.00  0.00     0.276 C 
BRANCH   9  10
HETATM   10  C   UNL     1      41.332 -12.593   5.296  1.00  0.00     0.002 A 
HETATM   11  C   UNL     1      40.044 -12.793   5.815  1.00  0.00     0.073 A 
HETATM   12  C   UNL     1      38.910 -12.343   5.141  1.00  0.00     0.038 A 
HETATM   13  C   UNL     1      39.053 -11.667   3.930  1.00  0.00     0.022 A 
HETATM   14  C   UNL     1      40.325 -11.444   3.408  1.00  0.00     0.011 A 
HETATM   15 BR   UNL     1      40.520 -10.519   1.772  1.00  0.00    -0.051 Br
HETATM   16  C   UNL     1      41.460 -11.897   4.084  1.00  0.00     0.030 A 
BRANCH  11  17
HETATM   17  O   UNL     1      39.917 -13.468   7.002  1.00  0.00    -0.360 OA
HETATM   18  H   UNL     1      39.302 -14.216   6.852  1.00  0.00     0.217 HD
ENDBRANCH  11  17
ENDBRANCH   9  10
ENDBRANCH   4   9
BRANCH   1  19
HETATM   19  C   UNL     1      42.924 -18.498   5.137  1.00  0.00     0.147 A 
HETATM   20  N   UNL     1      42.613 -18.451   3.822  1.00  0.00    -0.132 NA
HETATM   21  N   UNL     1      43.214 -19.282   2.907  1.00  0.00    -0.153 NA
HETATM   22  C   UNL     1      44.127 -20.182   3.315  1.00  0.00     0.053 A 
HETATM   23  C   UNL     1      44.730 -21.087   2.289  1.00  0.00     0.072 C 
HETATM   24  C   UNL     1      44.493 -20.261   4.647  1.00  0.00     0.032 A 
HETATM   25  C   UNL     1      43.881 -19.407   5.565  1.00  0.00     0.054 A 
ENDBRANCH   1  19
TORSDOF 4
ENDMDL
MODEL 6
REMARK VINA RESULT:      -6.9      3.912      7.104
REMARK  4 active torsions:
REMARK  status: ('A' for Active; 'I' for Inactive)
REMARK    1  A    between atoms: C_5  and  N_6 
REMARK    2  A    between atoms: N_9  and  C_11 
REMARK    3  A    between atoms: C_11  and  C_12 
REMARK    4  A    between atoms: C_13  and  O_14 
ROOT
HETATM    1  N   UNL     1      41.156 -13.349   4.231  1.00  0.00    -0.363 N 
HETATM    2  C   UNL     1      42.593 -13.230   4.518  1.00  0.00     0.152 C 
HETATM    3  C   UNL     1      43.273 -14.577   4.832  1.00  0.00     0.255 C 
HETATM    4  N   UNL     1      42.854 -15.062   6.217  1.00  0.00    -0.066 N 
HETATM    5  H   UNL     1      42.683 -14.215   6.788  1.00  0.00     0.280 HD
HETATM    6  C   UNL     1      41.607 -15.892   6.269  1.00  0.00     0.237 C 
HETATM    7  C   UNL     1      40.459 -15.425   5.382  1.00  0.00     0.047 C 
HETATM    8  C   UNL     1      40.284 -13.914   5.263  1.00  0.00     0.126 C 
ENDROOT
BRANCH   4   9
HETATM    9  C   UNL     1      43.992 -15.726   6.967  1.00  0.00     0.276 C 
BRANCH   9  10
HETATM   10  C   UNL     1      44.015 -17.229   6.845  1.00  0.00     0.002 A 
HETATM   11  C   UNL     1      43.784 -18.066   7.946  1.00  0.00     0.073 A 
HETATM   12  C   UNL     1      43.782 -19.454   7.817  1.00  0.00     0.038 A 
HETATM   13  C   UNL     1      44.003 -20.028   6.565  1.00  0.00     0.022 A 
HETATM   14  C   UNL     1      44.218 -19.211   5.457  1.00  0.00     0.011 A 
HETATM   15 BR   UNL     1      44.506 -19.989   3.759  1.00  0.00    -0.051 Br
HETATM   16  C   UNL     1      44.220 -17.821   5.589  1.00  0.00     0.030 A 
BRANCH  11  17
HETATM   17  O   UNL     1      43.578 -17.488   9.172  1.00  0.00    -0.360 OA
HETATM   18  H   UNL     1      44.449 -17.426   9.619  1.00  0.00     0.217 HD
ENDBRANCH  11  17
ENDBRANCH   9  10
ENDBRANCH   4   9
BRANCH   1  19
HETATM   19  C   UNL     1      40.870 -13.666   2.893  1.00  0.00     0.147 A 
HETATM   20  N   UNL     1      41.835 -13.534   1.956  1.00  0.00    -0.132 NA
HETATM   21  N   UNL     1      41.599 -13.809   0.630  1.00  0.00    -0.153 NA
HETATM   22  C   UNL     1      40.376 -14.208   0.234  1.00  0.00     0.053 A 
HETATM   23  C   UNL     1      40.157 -14.465  -1.223  1.00  0.00     0.072 C 
HETATM   24  C   UNL     1      39.357 -14.375   1.155  1.00  0.00     0.032 A 
HETATM   25  C   UNL     1      39.611 -14.099   2.499  1.00  0.00     0.054 A 
ENDBRANCH   1  19
TORSDOF 4
ENDMDL
MODEL 7
REMARK VINA RESULT:      -6.8      3.660      8.031
REMARK  4 active torsions:
REMARK  status: ('A' for Active; 'I' for Inactive)
REMARK    1  A    between atoms: C_5  and  N_6 
REMARK    2  A    between atoms: N_9  and  C_11 
REMARK    3  A    between atoms: C_11  and  C_12 
REMARK    4  A    between atoms: C_13  and  O_14 
ROOT
HETATM    1  N   UNL     1      41.538 -13.669   5.645  1.00  0.00    -0.363 N 
HETATM    2  C   UNL     1      42.886 -13.735   5.063  1.00  0.00     0.152 C 
HETATM    3  C   UNL     1      42.925 -14.398   3.672  1.00  0.00     0.255 C 
HETATM    4  N   UNL     1      42.713 -15.903   3.806  1.00  0.00    -0.066 N 
HETATM    5  H   UNL     1      43.110 -16.178   4.722  1.00  0.00     0.280 HD
HETATM    6  C   UNL     1      41.289 -16.368   3.780  1.00  0.00     0.237 C 
HETATM    7  C   UNL     1      40.296 -15.513   4.559  1.00  0.00     0.047 C 
HETATM    8  C   UNL     1      40.812 -14.921   5.867  1.00  0.00     0.126 C 
ENDROOT
BRANCH   4   9
HETATM    9  C   UNL     1      43.570 -16.697   2.839  1.00  0.00     0.276 C 
BRANCH   9  10
HETATM   10  C   UNL     1      43.943 -18.072   3.332  1.00  0.00     0.002 A 
HETATM   11  C   UNL     1      44.269 -18.315   4.675  1.00  0.00     0.073 A 
HETATM   12  C   UNL     1      44.587 -19.595   5.125  1.00  0.00     0.038 A 
HETATM   13  C   UNL     1      44.570 -20.664   4.229  1.00  0.00     0.022 A 
HETATM   14  C   UNL     1      44.232 -20.443   2.896  1.00  0.00     0.011 A 
HETATM   15 BR   UNL     1      44.198 -21.893   1.685  1.00  0.00    -0.051 Br
HETATM   16  C   UNL     1      43.915 -19.160   2.446  1.00  0.00     0.030 A 
BRANCH  11  17
HETATM   17  O   UNL     1      44.292 -17.253   5.542  1.00  0.00    -0.360 OA
HETATM   18  H   UNL     1      43.363 -17.031   5.761  1.00  0.00     0.217 HD
ENDBRANCH  11  17
ENDBRANCH   9  10
ENDBRANCH   4   9
BRANCH   1  19
HETATM   19  C   UNL     1      40.795 -12.552   5.227  1.00  0.00     0.147 A 
HETATM   20  N   UNL     1      39.503 -12.430   5.607  1.00  0.00    -0.132 NA
HETATM   21  N   UNL     1      38.728 -11.368   5.207  1.00  0.00    -0.153 NA
HETATM   22  C   UNL     1      39.249 -10.421   4.404  1.00  0.00     0.053 A 
HETATM   23  C   UNL     1      38.359  -9.302   3.968  1.00  0.00     0.072 C 
HETATM   24  C   UNL     1      40.569 -10.489   3.999  1.00  0.00     0.032 A 
HETATM   25  C   UNL     1      41.348 -11.569   4.417  1.00  0.00     0.054 A 
ENDBRANCH   1  19
TORSDOF 4
ENDMDL
MODEL 8
REMARK VINA RESULT:      -6.8      3.955      6.896
REMARK  4 active torsions:
REMARK  status: ('A' for Active; 'I' for Inactive)
REMARK    1  A    between atoms: C_5  and  N_6 
REMARK    2  A    between atoms: N_9  and  C_11 
REMARK    3  A    between atoms: C_11  and  C_12 
REMARK    4  A    between atoms: C_13  and  O_14 
ROOT
HETATM    1  N   UNL     1      41.711 -14.598   0.524  1.00  0.00    -0.363 N 
HETATM    2  C   UNL     1      42.224 -15.895   0.988  1.00  0.00     0.152 C 
HETATM    3  C   UNL     1      41.256 -16.641   1.927  1.00  0.00     0.255 C 
HETATM    4  N   UNL     1      41.227 -15.961   3.293  1.00  0.00    -0.066 N 
HETATM    5  H   UNL     1      42.167 -15.551   3.440  1.00  0.00     0.280 HD
HETATM    6  C   UNL     1      40.230 -14.853   3.450  1.00  0.00     0.237 C 
HETATM    7  C   UNL     1      40.093 -13.907   2.263  1.00  0.00     0.047 C 
HETATM    8  C   UNL     1      41.387 -13.578   1.524  1.00  0.00     0.126 C 
ENDROOT
BRANCH   4   9
HETATM    9  C   UNL     1      41.133 -16.955   4.433  1.00  0.00     0.276 C 
BRANCH   9  10
HETATM   10  C   UNL     1      42.465 -17.348   5.020  1.00  0.00     0.002 A 
HETATM   11  C   UNL     1      43.103 -16.570   5.997  1.00  0.00     0.073 A 
HETATM   12  C   UNL     1      44.322 -16.956   6.552  1.00  0.00     0.038 A 
HETATM   13  C   UNL     1      44.920 -18.147   6.139  1.00  0.00     0.022 A 
HETATM   14  C   UNL     1      44.292 -18.940   5.182  1.00  0.00     0.011 A 
HETATM   15 BR   UNL     1      45.096 -20.558   4.630  1.00  0.00    -0.051 Br
HETATM   16  C   UNL     1      43.071 -18.552   4.626  1.00  0.00     0.030 A 
BRANCH  11  17
HETATM   17  O   UNL     1      42.510 -15.397   6.386  1.00  0.00    -0.360 OA
HETATM   18  H   UNL     1      41.648 -15.335   5.924  1.00  0.00     0.217 HD
ENDBRANCH  11  17
ENDBRANCH   9  10
ENDBRANCH   4   9
BRANCH   1  19
HETATM   19  C   UNL     1      40.880 -14.689  -0.606  1.00  0.00     0.147 A 
HETATM   20  N   UNL     1      39.744 -13.958  -0.658  1.00  0.00    -0.132 NA
HETATM   21  N   UNL     1      38.887 -14.029  -1.731  1.00  0.00    -0.153 NA
HETATM   22  C   UNL     1      39.164 -14.853  -2.758  1.00  0.00     0.053 A 
HETATM   23  C   UNL     1      38.187 -14.921  -3.888  1.00  0.00     0.072 C 
HETATM   24  C   UNL     1      40.321 -15.611  -2.762  1.00  0.00     0.032 A 
HETATM   25  C   UNL     1      41.186 -15.526  -1.671  1.00  0.00     0.054 A 
ENDBRANCH   1  19
TORSDOF 4
ENDMDL
MODEL 9
REMARK VINA RESULT:      -6.8      3.961      5.105
REMARK  4 active torsions:
REMARK  status: ('A' for Active; 'I' for Inactive)
REMARK    1  A    between atoms: C_5  and  N_6 
REMARK    2  A    between atoms: N_9  and  C_11 
REMARK    3  A    between atoms: C_11  and  C_12 
REMARK    4  A    between atoms: C_13  and  O_14 
ROOT
HETATM    1  N   UNL     1      41.296 -16.895   3.261  1.00  0.00    -0.363 N 
HETATM    2  C   UNL     1      40.813 -16.924   1.873  1.00  0.00     0.152 C 
HETATM    3  C   UNL     1      41.713 -16.149   0.891  1.00  0.00     0.255 C 
HETATM    4  N   UNL     1      41.548 -14.648   1.107  1.00  0.00    -0.066 N 
HETATM    5  H   UNL     1      40.575 -14.500   1.428  1.00  0.00     0.280 HD
HETATM    6  C   UNL     1      42.453 -14.031   2.129  1.00  0.00     0.237 C 
HETATM    7  C   UNL     1      42.664 -14.839   3.404  1.00  0.00     0.047 C 
HETATM    8  C   UNL     1      41.444 -15.596   3.921  1.00  0.00     0.126 C 
ENDROOT
BRANCH   4   9
HETATM    9  C   UNL     1      41.574 -13.870  -0.194  1.00  0.00     0.276 C 
BRANCH   9  10
HETATM   10  C   UNL     1      40.290 -13.945  -0.982  1.00  0.00     0.002 A 
HETATM   11  C   UNL     1      39.187 -13.133  -0.680  1.00  0.00     0.073 A 
HETATM   12  C   UNL     1      38.014 -13.192  -1.431  1.00  0.00     0.038 A 
HETATM   13  C   UNL     1      37.934 -14.065  -2.516  1.00  0.00     0.022 A 
HETATM   14  C   UNL     1      39.027 -14.866  -2.840  1.00  0.00     0.011 A 
HETATM   15 BR   UNL     1      38.923 -16.041  -4.316  1.00  0.00    -0.051 Br
HETATM   16  C   UNL     1      40.201 -14.807  -2.086  1.00  0.00     0.030 A 
BRANCH  11  17
HETATM   17  O   UNL     1      39.275 -12.286   0.395  1.00  0.00    -0.360 OA
HETATM   18  H   UNL     1      38.502 -11.684   0.360  1.00  0.00     0.217 HD
ENDBRANCH  11  17
ENDBRANCH   9  10
ENDBRANCH   4   9
BRANCH   1  19
HETATM   19  C   UNL     1      42.252 -17.884   3.549  1.00  0.00     0.147 A 
HETATM   20  N   UNL     1      42.570 -18.149   4.836  1.00  0.00    -0.132 NA
HETATM   21  N   UNL     1      43.515 -19.091   5.169  1.00  0.00    -0.153 NA
HETATM   22  C   UNL     1      44.160 -19.767   4.199  1.00  0.00     0.053 A 
HETATM   23  C   UNL     1      45.202 -20.758   4.608  1.00  0.00     0.072 C 
HETATM   24  C   UNL     1      43.861 -19.546   2.867  1.00  0.00     0.032 A 
HETATM   25  C   UNL     1      42.896 -18.592   2.542  1.00  0.00     0.054 A 
ENDBRANCH   1  19
TORSDOF 4
ENDMDL
MODEL 10
REMARK VINA RESULT:      -6.8      3.600      4.626
REMARK  4 active torsions:
REMARK  status: ('A' for Active; 'I' for Inactive)
REMARK    1  A    between atoms: C_5  and  N_6 
REMARK    2  A    between atoms: N_9  and  C_11 
REMARK    3  A    between atoms: C_11  and  C_12 
REMARK    4  A    between atoms: C_13  and  O_14 
ROOT
HETATM    1  N   UNL     1      41.926 -16.564   4.097  1.00  0.00    -0.363 N 
HETATM    2  C   UNL     1      40.704 -16.175   3.379  1.00  0.00     0.152 C 
HETATM    3  C   UNL     1      40.972 -15.329   2.119  1.00  0.00     0.255 C 
HETATM    4  N   UNL     1      41.401 -13.921   2.518  1.00  0.00    -0.066 N 
HETATM    5  H   UNL     1      40.927 -13.709   3.414  1.00  0.00     0.280 HD
HETATM    6  C   UNL     1      42.871 -13.722   2.736  1.00  0.00     0.237 C 
HETATM    7  C   UNL     1      43.591 -14.843   3.476  1.00  0.00     0.047 C 
HETATM    8  C   UNL     1      42.804 -15.507   4.602  1.00  0.00     0.126 C 
ENDROOT
BRANCH   4   9
HETATM    9  C   UNL     1      40.831 -12.859   1.599  1.00  0.00     0.276 C 
BRANCH   9  10
HETATM   10  C   UNL     1      41.344 -12.930   0.183  1.00  0.00     0.002 A 
HETATM   11  C   UNL     1      42.284 -12.014  -0.312  1.00  0.00     0.073 A 
HETATM   12  C   UNL     1      42.772 -12.104  -1.615  1.00  0.00     0.038 A 
HETATM   13  C   UNL     1      42.329 -13.134  -2.445  1.00  0.00     0.022 A 
HETATM   14  C   UNL     1      41.409 -14.063  -1.964  1.00  0.00     0.011 A 
HETATM   15 BR   UNL     1      40.817 -15.464  -3.085  1.00  0.00    -0.051 Br
HETATM   16  C   UNL     1      40.921 -13.970  -0.660  1.00  0.00     0.030 A 
BRANCH  11  17
HETATM   17  O   UNL     1      42.703 -11.000   0.511  1.00  0.00    -0.360 OA
HETATM   18  H   UNL     1      43.647 -10.829   0.311  1.00  0.00     0.217 HD
ENDBRANCH  11  17
ENDBRANCH   9  10
ENDBRANCH   4   9
BRANCH   1  19
HETATM   19  C   UNL     1      42.532 -17.729   3.594  1.00  0.00     0.147 A 
HETATM   20  N   UNL     1      43.357 -18.446   4.388  1.00  0.00    -0.132 NA
HETATM   21  N   UNL     1      43.991 -19.580   3.937  1.00  0.00    -0.153 NA
HETATM   22  C   UNL     1      43.807 -19.992   2.668  1.00  0.00     0.053 A 
HETATM   23  C   UNL     1      44.543 -21.211   2.212  1.00  0.00     0.072 C 
HETATM   24  C   UNL     1      42.961 -19.303   1.819  1.00  0.00     0.032 A 
HETATM   25  C   UNL     1      42.318 -18.158   2.291  1.00  0.00     0.054 A 
ENDBRANCH   1  19
TORSDOF 4
ENDMDL
