MODEL 1
REMARK VINA RESULT:      -9.7      0.000      0.000
REMARK  7 active torsions:
REMARK  status: ('A' for Active; 'I' for Inactive)
REMARK    1  A    between atoms: N_2  and  C_4 
REMARK    2  A    between atoms: N_2  and  C_23 
REMARK    3  A    between atoms: C_4  and  C_5 
REMARK       I    between atoms: C_5  and  N_6 
REMARK    4  A    between atoms: N_6  and  C_7 
REMARK    5  A    between atoms: C_8  and  O_9 
REMARK    6  A    between atoms: C_23  and  C_24 
REMARK       I    between atoms: C_24  and  N_25 
REMARK    7  A    between atoms: N_25  and  C_26 
ROOT
HETATM    1  C   UNL     1      40.719 -14.360   5.130  1.00  0.00     0.248 C 
HETATM    2  N   UNL     1      41.725 -14.561   4.227  1.00  0.00    -0.323 N 
HETATM    3  O   UNL     1      40.224 -15.191   5.895  1.00  0.00    -0.271 OA
HETATM    4  H   UNL     1      42.268 -13.766   3.892  1.00  0.00     0.169 HD
ENDROOT
BRANCH   1   5
HETATM    5  C   UNL     1      40.215 -12.918   5.241  1.00  0.00     0.337 C 
BRANCH   5   6
HETATM    6  N   UNL     1      40.608 -12.368   6.626  1.00  0.00    -0.058 N 
HETATM    7  C   UNL     1      39.471 -11.697   7.323  1.00  0.00     0.270 C 
HETATM    8  H   UNL     1      40.831 -13.233   7.154  1.00  0.00     0.280 HD
BRANCH   6   9
HETATM    9  C   UNL     1      41.875 -11.514   6.622  1.00  0.00     0.337 C 
BRANCH   9  10
HETATM   10  C   UNL     1      42.077 -10.653   7.874  1.00  0.00     0.248 C 
HETATM   11  N   UNL     1      42.344 -11.358   9.031  1.00  0.00    -0.326 N 
HETATM   12  H   UNL     1      42.565 -12.347   8.961  1.00  0.00     0.169 HD
HETATM   13  O   UNL     1      42.096  -9.428   7.758  1.00  0.00    -0.271 OA
BRANCH  11  14
HETATM   14  C   UNL     1      42.481 -10.805  10.326  1.00  0.00     0.036 A 
HETATM   15  C   UNL     1      41.411 -10.302  11.070  1.00  0.00     0.055 A 
HETATM   16  C   UNL     1      41.617  -9.786  12.358  1.00  0.00     0.058 A 
HETATM   17 CL   UNL     1      40.236  -9.189  13.209  1.00  0.00    -0.082 Cl
HETATM   18  C   UNL     1      42.899  -9.772  12.911  1.00  0.00     0.055 A 
HETATM   19 CL   UNL     1      43.226  -9.150  14.486  1.00  0.00    -0.083 Cl
HETATM   20  C   UNL     1      43.969 -10.280  12.173  1.00  0.00     0.028 A 
HETATM   21  C   UNL     1      43.761 -10.800  10.891  1.00  0.00     0.031 A 
ENDBRANCH  11  14
ENDBRANCH   9  10
ENDBRANCH   6   9
ENDBRANCH   5   6
ENDBRANCH   1   5
BRANCH   2  22
HETATM   22  C   UNL     1      42.237 -15.802   3.783  1.00  0.00     0.071 A 
HETATM   23  C   UNL     1      41.799 -16.241   2.520  1.00  0.00     0.096 A 
HETATM   24  C   UNL     1      42.130 -17.507   2.014  1.00  0.00     0.054 A 
HETATM   25  C   UNL     1      42.956 -18.334   2.798  1.00  0.00     0.014 A 
HETATM   26  C   UNL     1      43.415 -17.850   4.017  1.00  0.00     0.089 A 
HETATM   27  C   UNL     1      43.478 -19.657   2.681  1.00  0.00     0.011 A 
HETATM   28  O   UNL     1      44.201 -18.774   4.634  1.00  0.00    -0.309 OA
HETATM   29  C   UNL     1      43.092 -16.598   4.548  1.00  0.00     0.070 A 
HETATM   30  C   UNL     1      44.234 -19.871   3.829  1.00  0.00     0.087 A 
HETATM   31  C   UNL     1      44.916 -21.053   4.108  1.00  0.00     0.038 A 
HETATM   32  C   UNL     1      44.808 -22.076   3.160  1.00  0.00     0.003 A 
HETATM   33  C   UNL     1      44.054 -21.904   1.995  1.00  0.00     0.001 A 
HETATM   34  C   UNL     1      43.385 -20.699   1.739  1.00  0.00     0.015 A 
BRANCH  23  35
HETATM   35  O   UNL     1      40.982 -15.385   1.812  1.00  0.00    -0.354 OA
HETATM   36  C   UNL     1      41.434 -15.234   0.463  1.00  0.00     0.210 C 
ENDBRANCH  23  35
ENDBRANCH   2  22
TORSDOF 7
ENDMDL
MODEL 2
REMARK VINA RESULT:      -9.4      3.435      5.161
REMARK  7 active torsions:
REMARK  status: ('A' for Active; 'I' for Inactive)
REMARK    1  A    between atoms: N_2  and  C_4 
REMARK    2  A    between atoms: N_2  and  C_23 
REMARK    3  A    between atoms: C_4  and  C_5 
REMARK       I    between atoms: C_5  and  N_6 
REMARK    4  A    between atoms: N_6  and  C_7 
REMARK    5  A    between atoms: C_8  and  O_9 
REMARK    6  A    between atoms: C_23  and  C_24 
REMARK       I    between atoms: C_24  and  N_25 
REMARK    7  A    between atoms: N_25  and  C_26 
ROOT
HETATM    1  C   UNL     1      44.713 -14.019   7.693  1.00  0.00     0.248 C 
HETATM    2  N   UNL     1      43.833 -15.039   7.456  1.00  0.00    -0.323 N 
HETATM    3  O   UNL     1      45.590 -13.598   6.935  1.00  0.00    -0.271 OA
HETATM    4  H   UNL     1      42.965 -15.088   7.988  1.00  0.00     0.169 HD
ENDROOT
BRANCH   1   5
HETATM    5  C   UNL     1      44.522 -13.283   9.023  1.00  0.00     0.337 C 
BRANCH   5   6
HETATM    6  N   UNL     1      44.522 -11.767   8.746  1.00  0.00    -0.058 N 
HETATM    7  C   UNL     1      45.764 -11.094   9.227  1.00  0.00     0.270 C 
HETATM    8  H   UNL     1      44.528 -11.730   7.709  1.00  0.00     0.280 HD
BRANCH   6   9
HETATM    9  C   UNL     1      43.254 -11.050   9.207  1.00  0.00     0.337 C 
BRANCH   9  10
HETATM   10  C   UNL     1      42.313 -10.614   8.078  1.00  0.00     0.248 C 
HETATM   11  N   UNL     1      41.747 -11.649   7.358  1.00  0.00    -0.326 N 
HETATM   12  H   UNL     1      41.834 -12.596   7.712  1.00  0.00     0.169 HD
HETATM   13  O   UNL     1      42.043  -9.420   7.954  1.00  0.00    -0.271 OA
BRANCH  11  14
HETATM   14  C   UNL     1      40.920 -11.510   6.219  1.00  0.00     0.036 A 
HETATM   15  C   UNL     1      41.260 -10.739   5.104  1.00  0.00     0.055 A 
HETATM   16  C   UNL     1      40.399 -10.663   3.999  1.00  0.00     0.058 A 
HETATM   17 CL   UNL     1      40.901  -9.691   2.661  1.00  0.00    -0.082 Cl
HETATM   18  C   UNL     1      39.189 -11.361   4.003  1.00  0.00     0.055 A 
HETATM   19 CL   UNL     1      38.081 -11.310   2.682  1.00  0.00    -0.083 Cl
HETATM   20  C   UNL     1      38.849 -12.136   5.112  1.00  0.00     0.028 A 
HETATM   21  C   UNL     1      39.712 -12.216   6.211  1.00  0.00     0.031 A 
ENDBRANCH  11  14
ENDBRANCH   9  10
ENDBRANCH   6   9
ENDBRANCH   5   6
ENDBRANCH   1   5
BRANCH   2  22
HETATM   22  C   UNL     1      43.898 -15.997   6.419  1.00  0.00     0.071 A 
HETATM   23  C   UNL     1      43.230 -15.670   5.225  1.00  0.00     0.096 A 
HETATM   24  C   UNL     1      43.109 -16.579   4.164  1.00  0.00     0.054 A 
HETATM   25  C   UNL     1      43.713 -17.843   4.307  1.00  0.00     0.014 A 
HETATM   26  C   UNL     1      44.411 -18.116   5.478  1.00  0.00     0.089 A 
HETATM   27  C   UNL     1      43.794 -19.029   3.518  1.00  0.00     0.011 A 
HETATM   28  O   UNL     1      44.932 -19.373   5.442  1.00  0.00    -0.309 OA
HETATM   29  C   UNL     1      44.537 -17.232   6.552  1.00  0.00     0.070 A 
HETATM   30  C   UNL     1      44.552 -19.929   4.260  1.00  0.00     0.087 A 
HETATM   31  C   UNL     1      44.864 -21.220   3.841  1.00  0.00     0.038 A 
HETATM   32  C   UNL     1      44.360 -21.614   2.597  1.00  0.00     0.003 A 
HETATM   33  C   UNL     1      43.589 -20.742   1.823  1.00  0.00     0.001 A 
HETATM   34  C   UNL     1      43.298 -19.444   2.268  1.00  0.00     0.015 A 
BRANCH  23  35
HETATM   35  O   UNL     1      42.650 -14.420   5.159  1.00  0.00    -0.354 OA
HETATM   36  C   UNL     1      41.889 -14.266   3.957  1.00  0.00     0.210 C 
ENDBRANCH  23  35
ENDBRANCH   2  22
TORSDOF 7
ENDMDL
MODEL 3
REMARK VINA RESULT:      -9.3      1.780      2.938
REMARK  7 active torsions:
REMARK  status: ('A' for Active; 'I' for Inactive)
REMARK    1  A    between atoms: N_2  and  C_4 
REMARK    2  A    between atoms: N_2  and  C_23 
REMARK    3  A    between atoms: C_4  and  C_5 
REMARK       I    between atoms: C_5  and  N_6 
REMARK    4  A    between atoms: N_6  and  C_7 
REMARK    5  A    between atoms: C_8  and  O_9 
REMARK    6  A    between atoms: C_23  and  C_24 
REMARK       I    between atoms: C_24  and  N_25 
REMARK    7  A    between atoms: N_25  and  C_26 
ROOT
HETATM    1  C   UNL     1      41.619 -13.958   5.390  1.00  0.00     0.248 C 
HETATM    2  N   UNL     1      42.807 -14.545   5.053  1.00  0.00    -0.323 N 
HETATM    3  O   UNL     1      40.588 -14.521   5.763  1.00  0.00    -0.271 OA
HETATM    4  H   UNL     1      43.666 -13.994   5.077  1.00  0.00     0.169 HD
ENDROOT
BRANCH   1   5
HETATM    5  C   UNL     1      41.613 -12.427   5.365  1.00  0.00     0.337 C 
BRANCH   5   6
HETATM    6  N   UNL     1      40.161 -11.948   5.166  1.00  0.00    -0.058 N 
HETATM    7  C   UNL     1      39.814 -11.746   3.729  1.00  0.00     0.270 C 
HETATM    8  H   UNL     1      39.611 -12.758   5.510  1.00  0.00     0.280 HD
BRANCH   6   9
HETATM    9  C   UNL     1      39.776 -10.750   6.033  1.00  0.00     0.337 C 
BRANCH   9  10
HETATM   10  C   UNL     1      40.203 -10.853   7.502  1.00  0.00     0.248 C 
HETATM   11  N   UNL     1      41.181  -9.958   7.889  1.00  0.00    -0.326 N 
HETATM   12  H   UNL     1      41.423  -9.196   7.264  1.00  0.00     0.169 HD
HETATM   13  O   UNL     1      39.596 -11.622   8.246  1.00  0.00    -0.271 OA
BRANCH  11  14
HETATM   14  C   UNL     1      41.804  -9.910   9.158  1.00  0.00     0.036 A 
HETATM   15  C   UNL     1      43.026 -10.526   9.446  1.00  0.00     0.055 A 
HETATM   16  C   UNL     1      43.596 -10.420  10.723  1.00  0.00     0.058 A 
HETATM   17 CL   UNL     1      45.111 -11.207  10.988  1.00  0.00    -0.082 Cl
HETATM   18  C   UNL     1      42.945  -9.694  11.723  1.00  0.00     0.055 A 
HETATM   19 CL   UNL     1      43.586  -9.525  13.316  1.00  0.00    -0.083 Cl
HETATM   20  C   UNL     1      41.729  -9.072  11.438  1.00  0.00     0.028 A 
HETATM   21  C   UNL     1      41.165  -9.174  10.161  1.00  0.00     0.031 A 
ENDBRANCH  11  14
ENDBRANCH   9  10
ENDBRANCH   6   9
ENDBRANCH   5   6
ENDBRANCH   1   5
BRANCH   2  22
HETATM   22  C   UNL     1      43.041 -15.916   4.805  1.00  0.00     0.071 A 
HETATM   23  C   UNL     1      43.571 -16.661   5.876  1.00  0.00     0.096 A 
HETATM   24  C   UNL     1      43.966 -17.999   5.730  1.00  0.00     0.054 A 
HETATM   25  C   UNL     1      43.786 -18.606   4.473  1.00  0.00     0.014 A 
HETATM   26  C   UNL     1      43.210 -17.859   3.451  1.00  0.00     0.089 A 
HETATM   27  C   UNL     1      44.077 -19.884   3.907  1.00  0.00     0.011 A 
HETATM   28  O   UNL     1      43.107 -18.602   2.315  1.00  0.00    -0.309 OA
HETATM   29  C   UNL     1      42.818 -16.524   3.567  1.00  0.00     0.070 A 
HETATM   30  C   UNL     1      43.637 -19.825   2.588  1.00  0.00     0.087 A 
HETATM   31  C   UNL     1      43.742 -20.878   1.682  1.00  0.00     0.038 A 
HETATM   32  C   UNL     1      44.340 -22.052   2.152  1.00  0.00     0.003 A 
HETATM   33  C   UNL     1      44.800 -22.150   3.468  1.00  0.00     0.001 A 
HETATM   34  C   UNL     1      44.673 -21.076   4.360  1.00  0.00     0.015 A 
BRANCH  23  35
HETATM   35  O   UNL     1      43.734 -15.999   7.074  1.00  0.00    -0.354 OA
HETATM   36  C   UNL     1      43.442 -16.856   8.182  1.00  0.00     0.210 C 
ENDBRANCH  23  35
ENDBRANCH   2  22
TORSDOF 7
ENDMDL
MODEL 4
REMARK VINA RESULT:      -9.2      1.554      2.227
REMARK  7 active torsions:
REMARK  status: ('A' for Active; 'I' for Inactive)
REMARK    1  A    between atoms: N_2  and  C_4 
REMARK    2  A    between atoms: N_2  and  C_23 
REMARK    3  A    between atoms: C_4  and  C_5 
REMARK       I    between atoms: C_5  and  N_6 
REMARK    4  A    between atoms: N_6  and  C_7 
REMARK    5  A    between atoms: C_8  and  O_9 
REMARK    6  A    between atoms: C_23  and  C_24 
REMARK       I    between atoms: C_24  and  N_25 
REMARK    7  A    between atoms: N_25  and  C_26 
ROOT
HETATM    1  C   UNL     1      41.413 -14.039   4.210  1.00  0.00     0.248 C 
HETATM    2  N   UNL     1      42.604 -14.438   3.670  1.00  0.00    -0.323 N 
HETATM    3  O   UNL     1      40.570 -14.748   4.765  1.00  0.00    -0.271 OA
HETATM    4  H   UNL     1      43.351 -13.755   3.539  1.00  0.00     0.169 HD
ENDROOT
BRANCH   1   5
HETATM    5  C   UNL     1      41.150 -12.531   4.180  1.00  0.00     0.337 C 
BRANCH   5   6
HETATM    6  N   UNL     1      39.633 -12.296   4.315  1.00  0.00    -0.058 N 
HETATM    7  C   UNL     1      38.976 -12.011   3.006  1.00  0.00     0.270 C 
HETATM    8  H   UNL     1      39.293 -13.222   4.640  1.00  0.00     0.280 HD
BRANCH   6   9
HETATM    9  C   UNL     1      39.252 -11.281   5.392  1.00  0.00     0.337 C 
BRANCH   9  10
HETATM   10  C   UNL     1      39.734 -11.630   6.805  1.00  0.00     0.248 C 
HETATM   11  N   UNL     1      40.418 -10.620   7.454  1.00  0.00    -0.326 N 
HETATM   12  H   UNL     1      40.407  -9.686   7.055  1.00  0.00     0.169 HD
HETATM   13  O   UNL     1      39.401 -12.706   7.300  1.00  0.00    -0.271 OA
BRANCH  11  14
HETATM   14  C   UNL     1      41.037 -10.721   8.722  1.00  0.00     0.036 A 
HETATM   15  C   UNL     1      42.415 -10.601   8.924  1.00  0.00     0.055 A 
HETATM   16  C   UNL     1      42.958 -10.692  10.213  1.00  0.00     0.058 A 
HETATM   17 CL   UNL     1      44.671 -10.527  10.371  1.00  0.00    -0.082 Cl
HETATM   18  C   UNL     1      42.123 -10.903  11.313  1.00  0.00     0.055 A 
HETATM   19 CL   UNL     1      42.722 -11.029  12.926  1.00  0.00    -0.083 Cl
HETATM   20  C   UNL     1      40.746 -11.016  11.116  1.00  0.00     0.028 A 
HETATM   21  C   UNL     1      40.205 -10.919   9.829  1.00  0.00     0.031 A 
ENDBRANCH  11  14
ENDBRANCH   9  10
ENDBRANCH   6   9
ENDBRANCH   5   6
ENDBRANCH   1   5
BRANCH   2  22
HETATM   22  C   UNL     1      43.014 -15.761   3.391  1.00  0.00     0.071 A 
HETATM   23  C   UNL     1      42.813 -16.212   2.073  1.00  0.00     0.096 A 
HETATM   24  C   UNL     1      43.058 -17.539   1.693  1.00  0.00     0.054 A 
HETATM   25  C   UNL     1      43.554 -18.424   2.669  1.00  0.00     0.014 A 
HETATM   26  C   UNL     1      43.792 -17.934   3.949  1.00  0.00     0.089 A 
HETATM   27  C   UNL     1      43.888 -19.810   2.713  1.00  0.00     0.011 A 
HETATM   28  O   UNL     1      44.273 -18.919   4.756  1.00  0.00    -0.309 OA
HETATM   29  C   UNL     1      43.547 -16.620   4.355  1.00  0.00     0.070 A 
HETATM   30  C   UNL     1      44.324 -20.056   4.011  1.00  0.00     0.087 A 
HETATM   31  C   UNL     1      44.743 -21.302   4.472  1.00  0.00     0.038 A 
HETATM   32  C   UNL     1      44.702 -22.356   3.553  1.00  0.00     0.003 A 
HETATM   33  C   UNL     1      44.265 -22.153   2.241  1.00  0.00     0.001 A 
HETATM   34  C   UNL     1      43.856 -20.884   1.804  1.00  0.00     0.015 A 
BRANCH  23  35
HETATM   35  O   UNL     1      42.312 -15.296   1.172  1.00  0.00    -0.354 OA
HETATM   36  C   UNL     1      41.061 -15.732   0.632  1.00  0.00     0.210 C 
ENDBRANCH  23  35
ENDBRANCH   2  22
TORSDOF 7
ENDMDL
MODEL 5
REMARK VINA RESULT:      -9.1      5.614      7.628
REMARK  7 active torsions:
REMARK  status: ('A' for Active; 'I' for Inactive)
REMARK    1  A    between atoms: N_2  and  C_4 
REMARK    2  A    between atoms: N_2  and  C_23 
REMARK    3  A    between atoms: C_4  and  C_5 
REMARK       I    between atoms: C_5  and  N_6 
REMARK    4  A    between atoms: N_6  and  C_7 
REMARK    5  A    between atoms: C_8  and  O_9 
REMARK    6  A    between atoms: C_23  and  C_24 
REMARK       I    between atoms: C_24  and  N_25 
REMARK    7  A    between atoms: N_25  and  C_26 
ROOT
HETATM    1  C   UNL     1      42.933 -13.632   4.619  1.00  0.00     0.248 C 
HETATM    2  N   UNL     1      42.215 -14.790   4.511  1.00  0.00    -0.323 N 
HETATM    3  O   UNL     1      44.043 -13.393   4.138  1.00  0.00    -0.271 OA
HETATM    4  H   UNL     1      41.205 -14.772   4.656  1.00  0.00     0.169 HD
ENDROOT
BRANCH   1   5
HETATM    5  C   UNL     1      42.232 -12.491   5.363  1.00  0.00     0.337 C 
BRANCH   5   6
HETATM    6  N   UNL     1      41.598 -11.547   4.323  1.00  0.00    -0.058 N 
HETATM    7  C   UNL     1      41.372 -10.172   4.858  1.00  0.00     0.270 C 
HETATM    8  H   UNL     1      42.339 -11.483   3.600  1.00  0.00     0.280 HD
BRANCH   6   9
HETATM    9  C   UNL     1      40.357 -12.117   3.637  1.00  0.00     0.337 C 
BRANCH   9  10
HETATM   10  C   UNL     1      40.353 -11.996   2.109  1.00  0.00     0.248 C 
HETATM   11  N   UNL     1      41.551 -12.307   1.495  1.00  0.00    -0.326 N 
HETATM   12  H   UNL     1      42.280 -12.753   2.043  1.00  0.00     0.169 HD
HETATM   13  O   UNL     1      39.294 -11.746   1.534  1.00  0.00    -0.271 OA
BRANCH  11  14
HETATM   14  C   UNL     1      41.828 -12.190   0.113  1.00  0.00     0.036 A 
HETATM   15  C   UNL     1      41.629 -13.222  -0.807  1.00  0.00     0.055 A 
HETATM   16  C   UNL     1      41.907 -13.029  -2.168  1.00  0.00     0.058 A 
HETATM   17 CL   UNL     1      41.626 -14.358  -3.237  1.00  0.00    -0.082 Cl
HETATM   18  C   UNL     1      42.388 -11.796  -2.618  1.00  0.00     0.055 A 
HETATM   19 CL   UNL     1      42.754 -11.489  -4.275  1.00  0.00    -0.083 Cl
HETATM   20  C   UNL     1      42.582 -10.761  -1.702  1.00  0.00     0.028 A 
HETATM   21  C   UNL     1      42.298 -10.954  -0.346  1.00  0.00     0.031 A 
ENDBRANCH  11  14
ENDBRANCH   9  10
ENDBRANCH   6   9
ENDBRANCH   5   6
ENDBRANCH   1   5
BRANCH   2  22
HETATM   22  C   UNL     1      42.682 -16.044   4.056  1.00  0.00     0.071 A 
HETATM   23  C   UNL     1      42.354 -16.388   2.731  1.00  0.00     0.096 A 
HETATM   24  C   UNL     1      42.646 -17.650   2.194  1.00  0.00     0.054 A 
HETATM   25  C   UNL     1      43.320 -18.575   3.014  1.00  0.00     0.014 A 
HETATM   26  C   UNL     1      43.677 -18.185   4.300  1.00  0.00     0.089 A 
HETATM   27  C   UNL     1      43.756 -19.928   2.880  1.00  0.00     0.011 A 
HETATM   28  O   UNL     1      44.322 -19.196   4.944  1.00  0.00    -0.309 OA
HETATM   29  C   UNL     1      43.389 -16.940   4.862  1.00  0.00     0.070 A 
HETATM   30  C   UNL     1      44.364 -20.253   4.088  1.00  0.00     0.087 A 
HETATM   31  C   UNL     1      44.925 -21.496   4.371  1.00  0.00     0.038 A 
HETATM   32  C   UNL     1      44.848 -22.462   3.362  1.00  0.00     0.003 A 
HETATM   33  C   UNL     1      44.240 -22.177   2.136  1.00  0.00     0.001 A 
HETATM   34  C   UNL     1      43.691 -20.913   1.877  1.00  0.00     0.015 A 
BRANCH  23  35
HETATM   35  O   UNL     1      41.682 -15.439   1.990  1.00  0.00    -0.354 OA
HETATM   36  C   UNL     1      40.370 -15.889   1.641  1.00  0.00     0.210 C 
ENDBRANCH  23  35
ENDBRANCH   2  22
TORSDOF 7
ENDMDL
MODEL 6
REMARK VINA RESULT:      -9.1      6.574      8.902
REMARK  7 active torsions:
REMARK  status: ('A' for Active; 'I' for Inactive)
REMARK    1  A    between atoms: N_2  and  C_4 
REMARK    2  A    between atoms: N_2  and  C_23 
REMARK    3  A    between atoms: C_4  and  C_5 
REMARK       I    between atoms: C_5  and  N_6 
REMARK    4  A    between atoms: N_6  and  C_7 
REMARK    5  A    between atoms: C_8  and  O_9 
REMARK    6  A    between atoms: C_23  and  C_24 
REMARK       I    between atoms: C_24  and  N_25 
REMARK    7  A    between atoms: N_25  and  C_26 
ROOT
HETATM    1  C   UNL     1      42.706 -13.623   3.422  1.00  0.00     0.248 C 
HETATM    2  N   UNL     1      42.081 -14.815   3.185  1.00  0.00    -0.323 N 
HETATM    3  O   UNL     1      43.921 -13.412   3.468  1.00  0.00    -0.271 OA
HETATM    4  H   UNL     1      41.118 -14.821   2.850  1.00  0.00     0.169 HD
ENDROOT
BRANCH   1   5
HETATM    5  C   UNL     1      41.779 -12.413   3.570  1.00  0.00     0.337 C 
BRANCH   5   6
HETATM    6  N   UNL     1      41.816 -11.605   2.258  1.00  0.00    -0.058 N 
HETATM    7  C   UNL     1      40.611 -10.742   2.080  1.00  0.00     0.270 C 
HETATM    8  H   UNL     1      42.629 -10.978   2.406  1.00  0.00     0.280 HD
BRANCH   6   9
HETATM    9  C   UNL     1      42.122 -12.444   1.018  1.00  0.00     0.337 C 
BRANCH   9  10
HETATM   10  C   UNL     1      40.893 -13.050   0.331  1.00  0.00     0.248 C 
HETATM   11  N   UNL     1      40.875 -12.931  -1.046  1.00  0.00    -0.326 N 
HETATM   12  H   UNL     1      41.720 -12.629  -1.522  1.00  0.00     0.169 HD
HETATM   13  O   UNL     1      40.080 -13.678   1.008  1.00  0.00    -0.271 OA
BRANCH  11  14
HETATM   14  C   UNL     1      39.819 -13.328  -1.898  1.00  0.00     0.036 A 
HETATM   15  C   UNL     1      39.866 -14.459  -2.717  1.00  0.00     0.055 A 
HETATM   16  C   UNL     1      38.772 -14.804  -3.523  1.00  0.00     0.058 A 
HETATM   17 CL   UNL     1      38.915 -16.223  -4.500  1.00  0.00    -0.082 Cl
HETATM   18  C   UNL     1      37.618 -14.017  -3.514  1.00  0.00     0.055 A 
HETATM   19 CL   UNL     1      36.237 -14.379  -4.481  1.00  0.00    -0.083 Cl
HETATM   20  C   UNL     1      37.564 -12.890  -2.692  1.00  0.00     0.028 A 
HETATM   21  C   UNL     1      38.655 -12.551  -1.884  1.00  0.00     0.031 A 
ENDBRANCH  11  14
ENDBRANCH   9  10
ENDBRANCH   6   9
ENDBRANCH   5   6
ENDBRANCH   1   5
BRANCH   2  22
HETATM   22  C   UNL     1      42.665 -16.102   3.202  1.00  0.00     0.071 A 
HETATM   23  C   UNL     1      42.826 -16.730   1.952  1.00  0.00     0.096 A 
HETATM   24  C   UNL     1      43.275 -18.053   1.834  1.00  0.00     0.054 A 
HETATM   25  C   UNL     1      43.603 -18.745   3.015  1.00  0.00     0.014 A 
HETATM   26  C   UNL     1      43.484 -18.079   4.230  1.00  0.00     0.089 A 
HETATM   27  C   UNL     1      44.042 -20.065   3.335  1.00  0.00     0.011 A 
HETATM   28  O   UNL     1      43.846 -18.893   5.259  1.00  0.00    -0.309 OA
HETATM   29  C   UNL     1      43.029 -16.767   4.375  1.00  0.00     0.070 A 
HETATM   30  C   UNL     1      44.177 -20.097   4.719  1.00  0.00     0.087 A 
HETATM   31  C   UNL     1      44.586 -21.218   5.439  1.00  0.00     0.038 A 
HETATM   32  C   UNL     1      44.863 -22.371   4.698  1.00  0.00     0.003 A 
HETATM   33  C   UNL     1      44.734 -22.383   3.306  1.00  0.00     0.001 A 
HETATM   34  C   UNL     1      44.327 -21.237   2.608  1.00  0.00     0.015 A 
BRANCH  23  35
HETATM   35  O   UNL     1      42.473 -15.998   0.838  1.00  0.00    -0.354 OA
HETATM   36  C   UNL     1      41.505 -16.694   0.048  1.00  0.00     0.210 C 
ENDBRANCH  23  35
ENDBRANCH   2  22
TORSDOF 7
ENDMDL
MODEL 7
REMARK VINA RESULT:      -8.7      1.608      2.603
REMARK  7 active torsions:
REMARK  status: ('A' for Active; 'I' for Inactive)
REMARK    1  A    between atoms: N_2  and  C_4 
REMARK    2  A    between atoms: N_2  and  C_23 
REMARK    3  A    between atoms: C_4  and  C_5 
REMARK       I    between atoms: C_5  and  N_6 
REMARK    4  A    between atoms: N_6  and  C_7 
REMARK    5  A    between atoms: C_8  and  O_9 
REMARK    6  A    between atoms: C_23  and  C_24 
REMARK       I    between atoms: C_24  and  N_25 
REMARK    7  A    between atoms: N_25  and  C_26 
ROOT
HETATM    1  C   UNL     1      41.935 -13.136   3.415  1.00  0.00     0.248 C 
HETATM    2  N   UNL     1      41.295 -14.271   3.830  1.00  0.00    -0.323 N 
HETATM    3  O   UNL     1      42.990 -13.062   2.780  1.00  0.00    -0.271 OA
HETATM    4  H   UNL     1      40.300 -14.236   4.048  1.00  0.00     0.169 HD
ENDROOT
BRANCH   1   5
HETATM    5  C   UNL     1      41.208 -11.823   3.719  1.00  0.00     0.337 C 
BRANCH   5   6
HETATM    6  N   UNL     1      40.813 -11.817   5.210  1.00  0.00    -0.058 N 
HETATM    7  C   UNL     1      39.645 -10.932   5.491  1.00  0.00     0.270 C 
HETATM    8  H   UNL     1      40.506 -12.796   5.362  1.00  0.00     0.280 HD
BRANCH   6   9
HETATM    9  C   UNL     1      41.980 -11.564   6.163  1.00  0.00     0.337 C 
BRANCH   9  10
HETATM   10  C   UNL     1      41.676 -10.596   7.312  1.00  0.00     0.248 C 
HETATM   11  N   UNL     1      41.292 -11.197   8.495  1.00  0.00    -0.326 N 
HETATM   12  H   UNL     1      41.404 -12.202   8.593  1.00  0.00     0.169 HD
HETATM   13  O   UNL     1      41.889  -9.395   7.152  1.00  0.00    -0.271 OA
BRANCH  11  14
HETATM   14  C   UNL     1      40.876 -10.526   9.668  1.00  0.00     0.036 A 
HETATM   15  C   UNL     1      39.548 -10.174   9.930  1.00  0.00     0.055 A 
HETATM   16  C   UNL     1      39.204  -9.527  11.125  1.00  0.00     0.058 A 
HETATM   17 CL   UNL     1      37.538  -9.134  11.369  1.00  0.00    -0.082 Cl
HETATM   18  C   UNL     1      40.188  -9.226  12.070  1.00  0.00     0.055 A 
HETATM   19 CL   UNL     1      39.837  -8.428  13.558  1.00  0.00    -0.083 Cl
HETATM   20  C   UNL     1      41.513  -9.581  11.815  1.00  0.00     0.028 A 
HETATM   21  C   UNL     1      41.854 -10.233  10.624  1.00  0.00     0.031 A 
ENDBRANCH  11  14
ENDBRANCH   9  10
ENDBRANCH   6   9
ENDBRANCH   5   6
ENDBRANCH   1   5
BRANCH   2  22
HETATM   22  C   UNL     1      41.818 -15.584   3.856  1.00  0.00     0.071 A 
HETATM   23  C   UNL     1      42.490 -15.963   5.033  1.00  0.00     0.096 A 
HETATM   24  C   UNL     1      43.163 -17.189   5.146  1.00  0.00     0.054 A 
HETATM   25  C   UNL     1      43.122 -18.066   4.046  1.00  0.00     0.014 A 
HETATM   26  C   UNL     1      42.404 -17.684   2.918  1.00  0.00     0.089 A 
HETATM   27  C   UNL     1      43.681 -19.343   3.740  1.00  0.00     0.011 A 
HETATM   28  O   UNL     1      42.467 -18.650   1.961  1.00  0.00    -0.309 OA
HETATM   29  C   UNL     1      41.736 -16.466   2.777  1.00  0.00     0.070 A 
HETATM   30  C   UNL     1      43.246 -19.651   2.455  1.00  0.00     0.087 A 
HETATM   31  C   UNL     1      43.577 -20.822   1.777  1.00  0.00     0.038 A 
HETATM   32  C   UNL     1      44.410 -21.722   2.451  1.00  0.00     0.003 A 
HETATM   33  C   UNL     1      44.874 -21.447   3.740  1.00  0.00     0.001 A 
HETATM   34  C   UNL     1      44.517 -20.263   4.401  1.00  0.00     0.015 A 
BRANCH  23  35
HETATM   35  O   UNL     1      42.502 -15.049   6.065  1.00  0.00    -0.354 OA
HETATM   36  C   UNL     1      43.840 -14.707   6.438  1.00  0.00     0.210 C 
ENDBRANCH  23  35
ENDBRANCH   2  22
TORSDOF 7
ENDMDL
MODEL 8
REMARK VINA RESULT:      -8.6      5.501      9.311
REMARK  7 active torsions:
REMARK  status: ('A' for Active; 'I' for Inactive)
REMARK    1  A    between atoms: N_2  and  C_4 
REMARK    2  A    between atoms: N_2  and  C_23 
REMARK    3  A    between atoms: C_4  and  C_5 
REMARK       I    between atoms: C_5  and  N_6 
REMARK    4  A    between atoms: N_6  and  C_7 
REMARK    5  A    between atoms: C_8  and  O_9 
REMARK    6  A    between atoms: C_23  and  C_24 
REMARK       I    between atoms: C_24  and  N_25 
REMARK    7  A    between atoms: N_25  and  C_26 
ROOT
HETATM    1  C   UNL     1      42.164 -14.878   4.054  1.00  0.00     0.248 C 
HETATM    2  N   UNL     1      41.282 -14.044   3.425  1.00  0.00    -0.323 N 
HETATM    3  O   UNL     1      43.294 -15.193   3.675  1.00  0.00    -0.271 OA
HETATM    4  H   UNL     1      40.536 -13.603   3.963  1.00  0.00     0.169 HD
ENDROOT
BRANCH   1   5
HETATM    5  C   UNL     1      41.708 -15.411   5.416  1.00  0.00     0.337 C 
BRANCH   5   6
HETATM    6  N   UNL     1      42.651 -14.853   6.500  1.00  0.00    -0.058 N 
HETATM    7  C   UNL     1      43.430 -13.670   6.031  1.00  0.00     0.270 C 
HETATM    8  H   UNL     1      41.985 -14.522   7.224  1.00  0.00     0.280 HD
BRANCH   6   9
HETATM    9  C   UNL     1      43.535 -15.910   7.161  1.00  0.00     0.337 C 
BRANCH   9  10
HETATM   10  C   UNL     1      43.460 -17.303   6.526  1.00  0.00     0.248 C 
HETATM   11  N   UNL     1      44.297 -17.497   5.444  1.00  0.00    -0.326 N 
HETATM   12  H   UNL     1      45.015 -16.806   5.251  1.00  0.00     0.169 HD
HETATM   13  O   UNL     1      42.766 -18.166   7.063  1.00  0.00    -0.271 OA
BRANCH  11  14
HETATM   14  C   UNL     1      44.350 -18.657   4.636  1.00  0.00     0.036 A 
HETATM   15  C   UNL     1      44.764 -19.908   5.103  1.00  0.00     0.055 A 
HETATM   16  C   UNL     1      44.773 -21.021   4.249  1.00  0.00     0.058 A 
HETATM   17 CL   UNL     1      45.294 -22.530   4.911  1.00  0.00    -0.082 Cl
HETATM   18  C   UNL     1      44.365 -20.889   2.920  1.00  0.00     0.055 A 
HETATM   19 CL   UNL     1      44.353 -22.213   1.814  1.00  0.00    -0.083 Cl
HETATM   20  C   UNL     1      43.944 -19.643   2.453  1.00  0.00     0.028 A 
HETATM   21  C   UNL     1      43.931 -18.535   3.307  1.00  0.00     0.031 A 
ENDBRANCH  11  14
ENDBRANCH   9  10
ENDBRANCH   6   9
ENDBRANCH   5   6
ENDBRANCH   1   5
BRANCH   2  22
HETATM   22  C   UNL     1      41.355 -13.571   2.096  1.00  0.00     0.071 A 
HETATM   23  C   UNL     1      41.038 -14.499   1.086  1.00  0.00     0.096 A 
HETATM   24  C   UNL     1      41.190 -14.200  -0.276  1.00  0.00     0.054 A 
HETATM   25  C   UNL     1      41.642 -12.912  -0.622  1.00  0.00     0.014 A 
HETATM   26  C   UNL     1      41.894 -12.001   0.398  1.00  0.00     0.089 A 
HETATM   27  C   UNL     1      41.958 -12.235  -1.837  1.00  0.00     0.011 A 
HETATM   28  O   UNL     1      42.315 -10.813  -0.115  1.00  0.00    -0.309 OA
HETATM   29  C   UNL     1      41.762 -12.277   1.761  1.00  0.00     0.070 A 
HETATM   30  C   UNL     1      42.360 -10.956  -1.468  1.00  0.00     0.087 A 
HETATM   31  C   UNL     1      42.761  -9.971  -2.368  1.00  0.00     0.038 A 
HETATM   32  C   UNL     1      42.758 -10.322  -3.722  1.00  0.00     0.003 A 
HETATM   33  C   UNL     1      42.367 -11.599  -4.135  1.00  0.00     0.001 A 
HETATM   34  C   UNL     1      41.960 -12.567  -3.205  1.00  0.00     0.015 A 
BRANCH  23  35
HETATM   35  O   UNL     1      40.615 -15.745   1.496  1.00  0.00    -0.354 OA
HETATM   36  C   UNL     1      41.367 -16.782   0.859  1.00  0.00     0.210 C 
ENDBRANCH  23  35
ENDBRANCH   2  22
TORSDOF 7
ENDMDL
MODEL 9
REMARK VINA RESULT:      -8.5      4.433     10.989
REMARK  7 active torsions:
REMARK  status: ('A' for Active; 'I' for Inactive)
REMARK    1  A    between atoms: N_2  and  C_4 
REMARK    2  A    between atoms: N_2  and  C_23 
REMARK    3  A    between atoms: C_4  and  C_5 
REMARK       I    between atoms: C_5  and  N_6 
REMARK    4  A    between atoms: N_6  and  C_7 
REMARK    5  A    between atoms: C_8  and  O_9 
REMARK    6  A    between atoms: C_23  and  C_24 
REMARK       I    between atoms: C_24  and  N_25 
REMARK    7  A    between atoms: N_25  and  C_26 
ROOT
HETATM    1  C   UNL     1      40.659 -11.960   6.052  1.00  0.00     0.248 C 
HETATM    2  N   UNL     1      41.864 -11.479   6.482  1.00  0.00    -0.323 N 
HETATM    3  O   UNL     1      39.566 -11.844   6.612  1.00  0.00    -0.271 OA
HETATM    4  H   UNL     1      42.620 -11.343   5.811  1.00  0.00     0.169 HD
ENDROOT
BRANCH   1   5
HETATM    5  C   UNL     1      40.677 -12.651   4.686  1.00  0.00     0.337 C 
BRANCH   5   6
HETATM    6  N   UNL     1      41.092 -14.122   4.888  1.00  0.00    -0.058 N 
HETATM    7  C   UNL     1      40.420 -14.753   6.062  1.00  0.00     0.270 C 
HETATM    8  H   UNL     1      40.719 -14.578   4.034  1.00  0.00     0.280 HD
BRANCH   6   9
HETATM    9  C   UNL     1      42.603 -14.349   4.889  1.00  0.00     0.337 C 
BRANCH   9  10
HETATM   10  C   UNL     1      43.083 -15.494   3.989  1.00  0.00     0.248 C 
HETATM   11  N   UNL     1      42.750 -16.761   4.428  1.00  0.00    -0.326 N 
HETATM   12  H   UNL     1      42.081 -16.856   5.186  1.00  0.00     0.169 HD
HETATM   13  O   UNL     1      43.621 -15.223   2.916  1.00  0.00    -0.271 OA
BRANCH  11  14
HETATM   14  C   UNL     1      43.149 -17.977   3.827  1.00  0.00     0.036 A 
HETATM   15  C   UNL     1      43.957 -18.925   4.460  1.00  0.00     0.055 A 
HETATM   16  C   UNL     1      44.298 -20.121   3.811  1.00  0.00     0.058 A 
HETATM   17 CL   UNL     1      45.297 -21.240   4.671  1.00  0.00    -0.082 Cl
HETATM   18  C   UNL     1      43.829 -20.376   2.520  1.00  0.00     0.055 A 
HETATM   19 CL   UNL     1      44.211 -21.822   1.661  1.00  0.00    -0.083 Cl
HETATM   20  C   UNL     1      43.017 -19.435   1.887  1.00  0.00     0.028 A 
HETATM   21  C   UNL     1      42.673 -18.245   2.540  1.00  0.00     0.031 A 
ENDBRANCH  11  14
ENDBRANCH   9  10
ENDBRANCH   6   9
ENDBRANCH   5   6
ENDBRANCH   1   5
BRANCH   2  22
HETATM   22  C   UNL     1      42.174 -10.980   7.768  1.00  0.00     0.071 A 
HETATM   23  C   UNL     1      43.259 -11.587   8.427  1.00  0.00     0.096 A 
HETATM   24  C   UNL     1      43.596 -11.276   9.752  1.00  0.00     0.054 A 
HETATM   25  C   UNL     1      42.832 -10.296  10.413  1.00  0.00     0.014 A 
HETATM   26  C   UNL     1      41.801  -9.676   9.716  1.00  0.00     0.089 A 
HETATM   27  C   UNL     1      42.812  -9.731  11.724  1.00  0.00     0.011 A 
HETATM   28  O   UNL     1      41.177  -8.756  10.502  1.00  0.00    -0.309 OA
HETATM   29  C   UNL     1      41.439  -9.975   8.401  1.00  0.00     0.070 A 
HETATM   30  C   UNL     1      41.783  -8.794  11.720  1.00  0.00     0.087 A 
HETATM   31  C   UNL     1      41.429  -8.017  12.820  1.00  0.00     0.038 A 
HETATM   32  C   UNL     1      42.164  -8.220  13.992  1.00  0.00     0.003 A 
HETATM   33  C   UNL     1      43.202  -9.155  14.040  1.00  0.00     0.001 A 
HETATM   34  C   UNL     1      43.541  -9.917  12.913  1.00  0.00     0.015 A 
BRANCH  23  35
HETATM   35  O   UNL     1      43.955 -12.549   7.725  1.00  0.00    -0.354 OA
HETATM   36  C   UNL     1      45.196 -12.860   8.364  1.00  0.00     0.210 C 
ENDBRANCH  23  35
ENDBRANCH   2  22
TORSDOF 7
ENDMDL
MODEL 10
REMARK VINA RESULT:      -8.3      4.085     10.035
REMARK  7 active torsions:
REMARK  status: ('A' for Active; 'I' for Inactive)
REMARK    1  A    between atoms: N_2  and  C_4 
REMARK    2  A    between atoms: N_2  and  C_23 
REMARK    3  A    between atoms: C_4  and  C_5 
REMARK       I    between atoms: C_5  and  N_6 
REMARK    4  A    between atoms: N_6  and  C_7 
REMARK    5  A    between atoms: C_8  and  O_9 
REMARK    6  A    between atoms: C_23  and  C_24 
REMARK       I    between atoms: C_24  and  N_25 
REMARK    7  A    between atoms: N_25  and  C_26 
ROOT
HETATM    1  C   UNL     1      40.233 -14.998   3.324  1.00  0.00     0.248 C 
HETATM    2  N   UNL     1      39.945 -13.672   3.492  1.00  0.00    -0.323 N 
HETATM    3  O   UNL     1      40.602 -15.797   4.188  1.00  0.00    -0.271 OA
HETATM    4  H   UNL     1      39.352 -13.196   2.812  1.00  0.00     0.169 HD
ENDROOT
BRANCH   1   5
HETATM    5  C   UNL     1      39.994 -15.549   1.916  1.00  0.00     0.337 C 
BRANCH   5   6
HETATM    6  N   UNL     1      41.221 -15.214   1.045  1.00  0.00    -0.058 N 
HETATM    7  C   UNL     1      40.942 -14.138   0.049  1.00  0.00     0.270 C 
HETATM    8  H   UNL     1      41.889 -14.831   1.740  1.00  0.00     0.280 HD
BRANCH   6   9
HETATM    9  C   UNL     1      41.889 -16.435   0.414  1.00  0.00     0.337 C 
BRANCH   9  10
HETATM   10  C   UNL     1      42.885 -17.166   1.322  1.00  0.00     0.248 C 
HETATM   11  N   UNL     1      42.537 -18.462   1.646  1.00  0.00    -0.326 N 
HETATM   12  H   UNL     1      41.773 -18.904   1.144  1.00  0.00     0.169 HD
HETATM   13  O   UNL     1      43.947 -16.613   1.607  1.00  0.00    -0.271 OA
BRANCH  11  14
HETATM   14  C   UNL     1      43.238 -19.311   2.534  1.00  0.00     0.036 A 
HETATM   15  C   UNL     1      43.476 -19.003   3.876  1.00  0.00     0.055 A 
HETATM   16  C   UNL     1      44.162 -19.902   4.705  1.00  0.00     0.058 A 
HETATM   17 CL   UNL     1      44.407 -19.442   6.352  1.00  0.00    -0.082 Cl
HETATM   18  C   UNL     1      44.616 -21.121   4.193  1.00  0.00     0.055 A 
HETATM   19 CL   UNL     1      45.470 -22.272   5.153  1.00  0.00    -0.083 Cl
HETATM   20  C   UNL     1      44.375 -21.435   2.855  1.00  0.00     0.028 A 
HETATM   21  C   UNL     1      43.684 -20.539   2.032  1.00  0.00     0.031 A 
ENDBRANCH  11  14
ENDBRANCH   9  10
ENDBRANCH   6   9
ENDBRANCH   5   6
ENDBRANCH   1   5
BRANCH   2  22
HETATM   22  C   UNL     1      40.251 -12.867   4.613  1.00  0.00     0.071 A 
HETATM   23  C   UNL     1      41.594 -12.463   4.742  1.00  0.00     0.096 A 
HETATM   24  C   UNL     1      42.059 -11.769   5.868  1.00  0.00     0.054 A 
HETATM   25  C   UNL     1      41.128 -11.447   6.874  1.00  0.00     0.014 A 
HETATM   26  C   UNL     1      39.800 -11.814   6.692  1.00  0.00     0.089 A 
HETATM   27  C   UNL     1      41.186 -10.810   8.150  1.00  0.00     0.011 A 
HETATM   28  O   UNL     1      39.044 -11.419   7.753  1.00  0.00    -0.309 OA
HETATM   29  C   UNL     1      39.313 -12.514   5.585  1.00  0.00     0.070 A 
HETATM   30  C   UNL     1      39.884 -10.818   8.639  1.00  0.00     0.087 A 
HETATM   31  C   UNL     1      39.509 -10.289   9.872  1.00  0.00     0.038 A 
HETATM   32  C   UNL     1      40.528  -9.730  10.650  1.00  0.00     0.003 A 
HETATM   33  C   UNL     1      41.850  -9.707  10.197  1.00  0.00     0.001 A 
HETATM   34  C   UNL     1      42.197 -10.240   8.948  1.00  0.00     0.015 A 
BRANCH  23  35
HETATM   35  O   UNL     1      42.453 -12.825   3.725  1.00  0.00    -0.354 OA
HETATM   36  C   UNL     1      43.528 -13.629   4.219  1.00  0.00     0.210 C 
ENDBRANCH  23  35
ENDBRANCH   2  22
TORSDOF 7
ENDMDL
