MODEL 1
REMARK VINA RESULT:      -9.4      0.000      0.000
REMARK  6 active torsions:
REMARK  status: ('A' for Active; 'I' for Inactive)
REMARK    1  A    between atoms: O_2  and  C_3 
REMARK    2  A    between atoms: C_7  and  C_8 
REMARK    3  A    between atoms: C_8  and  N_9 
REMARK       I    between atoms: N_9  and  C_10 
REMARK    4  A    between atoms: C_10  and  C_12 
REMARK    5  A    between atoms: N_14  and  C_15 
REMARK    6  A    between atoms: C_23  and  C_27 
ROOT
HETATM    1  C   UNL     1      43.599 -15.544   6.097  1.00  0.00     0.060 C 
HETATM    2  C   UNL     1      42.633 -14.986   5.279  1.00  0.00     0.115 C 
HETATM    3  N   UNL     1      42.452 -15.782   4.161  1.00  0.00    -0.321 N 
HETATM    4  C   UNL     1      43.188 -16.954   4.341  1.00  0.00     0.051 A 
HETATM    5  C   UNL     1      43.228 -18.165   3.610  1.00  0.00     0.043 A 
HETATM    6  C   UNL     1      44.109 -19.188   4.001  1.00  0.00    -0.021 A 
HETATM    7  C   UNL     1      44.914 -19.003   5.125  1.00  0.00     0.013 A 
HETATM    8  C   UNL     1      44.840 -17.827   5.880  1.00  0.00     0.016 A 
HETATM    9  C   UNL     1      43.953 -16.795   5.503  1.00  0.00     0.008 A 
ENDROOT
BRANCH   1  10
HETATM   10  C   UNL     1      44.164 -14.957   7.312  1.00  0.00     0.254 C 
HETATM   11  N   UNL     1      44.773 -13.735   7.130  1.00  0.00    -0.353 N 
HETATM   12  H   UNL     1      44.608 -13.241   6.267  1.00  0.00     0.163 HD
HETATM   13  O   UNL     1      44.087 -15.509   8.404  1.00  0.00    -0.268 OA
BRANCH  11  14
HETATM   14  C   UNL     1      45.321 -12.991   8.239  1.00  0.00     0.161 C 
BRANCH  14  15
HETATM   15  C   UNL     1      44.260 -12.194   8.950  1.00  0.00    -0.038 A 
HETATM   16  C   UNL     1      43.321 -11.453   8.220  1.00  0.00     0.009 A 
HETATM   17  C   UNL     1      42.340 -10.713   8.878  1.00  0.00     0.003 A 
HETATM   18  C   UNL     1      42.286 -10.698  10.274  1.00  0.00     0.037 A 
HETATM   19  C   UNL     1      43.218 -11.422  11.017  1.00  0.00     0.068 A 
HETATM   20  C   UNL     1      44.203 -12.160  10.351  1.00  0.00     0.045 A 
BRANCH  19  21
HETATM   21  O   UNL     1      43.279 -11.491  12.382  1.00  0.00    -0.356 OA
HETATM   22  C   UNL     1      43.092 -10.273  13.092  1.00  0.00     0.210 C 
ENDBRANCH  19  21
ENDBRANCH  14  15
ENDBRANCH  11  14
ENDBRANCH   1  10
BRANCH   3  23
HETATM   23  C   UNL     1      41.667 -15.404   3.028  1.00  0.00     0.039 A 
HETATM   24  C   UNL     1      40.272 -15.531   3.050  1.00  0.00     0.030 A 
HETATM   25  C   UNL     1      39.514 -15.186   1.928  1.00  0.00     0.002 A 
HETATM   26  C   UNL     1      40.141 -14.720   0.775  1.00  0.00     0.000 A 
HETATM   27  C   UNL     1      41.530 -14.607   0.738  1.00  0.00     0.002 A 
HETATM   28  C   UNL     1      42.294 -14.954   1.856  1.00  0.00     0.030 A 
ENDBRANCH   3  23
BRANCH   6  29
HETATM   29  C   UNL     1      44.158 -20.426   3.239  1.00  0.00     0.010 A 
HETATM   30  C   UNL     1      44.648 -21.709   3.584  1.00  0.00     0.152 A 
HETATM   31  N   UNL     1      44.494 -22.605   2.605  1.00  0.00    -0.187 NA
HETATM   32  N   UNL     1      43.906 -21.899   1.627  1.00  0.00    -0.289 N 
HETATM   33  H   UNL     1      43.681 -22.375   0.759  1.00  0.00     0.188 HD
HETATM   34  C   UNL     1      43.680 -20.594   1.955  1.00  0.00     0.123 A 
ENDBRANCH   6  29
TORSDOF 6
ENDMDL
MODEL 2
REMARK VINA RESULT:      -9.3      4.021      8.935
REMARK  6 active torsions:
REMARK  status: ('A' for Active; 'I' for Inactive)
REMARK    1  A    between atoms: O_2  and  C_3 
REMARK    2  A    between atoms: C_7  and  C_8 
REMARK    3  A    between atoms: C_8  and  N_9 
REMARK       I    between atoms: N_9  and  C_10 
REMARK    4  A    between atoms: C_10  and  C_12 
REMARK    5  A    between atoms: N_14  and  C_15 
REMARK    6  A    between atoms: C_23  and  C_27 
ROOT
HETATM    1  C   UNL     1      40.852 -15.229   2.133  1.00  0.00     0.060 C 
HETATM    2  C   UNL     1      41.532 -14.596   3.158  1.00  0.00     0.115 C 
HETATM    3  N   UNL     1      42.350 -15.505   3.805  1.00  0.00    -0.321 N 
HETATM    4  C   UNL     1      42.328 -16.699   3.083  1.00  0.00     0.051 A 
HETATM    5  C   UNL     1      43.098 -17.880   3.187  1.00  0.00     0.043 A 
HETATM    6  C   UNL     1      42.831 -18.967   2.336  1.00  0.00    -0.021 A 
HETATM    7  C   UNL     1      41.822 -18.852   1.379  1.00  0.00     0.013 A 
HETATM    8  C   UNL     1      41.091 -17.666   1.240  1.00  0.00     0.016 A 
HETATM    9  C   UNL     1      41.357 -16.565   2.082  1.00  0.00     0.008 A 
ENDROOT
BRANCH   1  10
HETATM   10  C   UNL     1      39.807 -14.651   1.288  1.00  0.00     0.254 C 
HETATM   11  N   UNL     1      40.271 -13.936   0.207  1.00  0.00    -0.353 N 
HETATM   12  H   UNL     1      41.241 -14.035  -0.052  1.00  0.00     0.163 HD
HETATM   13  O   UNL     1      38.614 -14.804   1.525  1.00  0.00    -0.268 OA
BRANCH  11  14
HETATM   14  C   UNL     1      39.371 -13.358  -0.762  1.00  0.00     0.161 C 
BRANCH  14  15
HETATM   15  C   UNL     1      39.177 -14.264  -1.949  1.00  0.00    -0.038 A 
HETATM   16  C   UNL     1      40.216 -15.100  -2.380  1.00  0.00     0.009 A 
HETATM   17  C   UNL     1      40.038 -15.936  -3.480  1.00  0.00     0.003 A 
HETATM   18  C   UNL     1      38.822 -15.946  -4.168  1.00  0.00     0.037 A 
HETATM   19  C   UNL     1      37.780 -15.114  -3.759  1.00  0.00     0.068 A 
HETATM   20  C   UNL     1      37.966 -14.273  -2.657  1.00  0.00     0.045 A 
BRANCH  19  21
HETATM   21  O   UNL     1      36.546 -15.025  -4.344  1.00  0.00    -0.356 OA
HETATM   22  C   UNL     1      36.101 -13.722  -4.699  1.00  0.00     0.210 C 
ENDBRANCH  19  21
ENDBRANCH  14  15
ENDBRANCH  11  14
ENDBRANCH   1  10
BRANCH   3  23
HETATM   23  C   UNL     1      43.048 -15.231   5.023  1.00  0.00     0.039 A 
HETATM   24  C   UNL     1      43.847 -14.086   5.147  1.00  0.00     0.030 A 
HETATM   25  C   UNL     1      44.548 -13.840   6.330  1.00  0.00     0.002 A 
HETATM   26  C   UNL     1      44.462 -14.734   7.394  1.00  0.00     0.000 A 
HETATM   27  C   UNL     1      43.683 -15.883   7.274  1.00  0.00     0.002 A 
HETATM   28  C   UNL     1      42.983 -16.137   6.091  1.00  0.00     0.030 A 
ENDBRANCH   3  23
BRANCH   6  29
HETATM   29  C   UNL     1      43.615 -20.186   2.455  1.00  0.00     0.010 A 
HETATM   30  C   UNL     1      43.607 -21.373   1.684  1.00  0.00     0.152 A 
HETATM   31  N   UNL     1      44.505 -22.270   2.103  1.00  0.00    -0.187 NA
HETATM   32  N   UNL     1      45.091 -21.662   3.145  1.00  0.00    -0.289 N 
HETATM   33  H   UNL     1      45.826 -22.157   3.639  1.00  0.00     0.188 HD
HETATM   34  C   UNL     1      44.599 -20.414   3.396  1.00  0.00     0.123 A 
ENDBRANCH   6  29
TORSDOF 6
ENDMDL
MODEL 3
REMARK VINA RESULT:      -9.2      2.464      5.024
REMARK  6 active torsions:
REMARK  status: ('A' for Active; 'I' for Inactive)
REMARK    1  A    between atoms: O_2  and  C_3 
REMARK    2  A    between atoms: C_7  and  C_8 
REMARK    3  A    between atoms: C_8  and  N_9 
REMARK       I    between atoms: N_9  and  C_10 
REMARK    4  A    between atoms: C_10  and  C_12 
REMARK    5  A    between atoms: N_14  and  C_15 
REMARK    6  A    between atoms: C_23  and  C_27 
ROOT
HETATM    1  C   UNL     1      44.566 -14.390   6.973  1.00  0.00     0.060 C 
HETATM    2  C   UNL     1      44.932 -15.724   6.976  1.00  0.00     0.115 C 
HETATM    3  N   UNL     1      44.015 -16.461   6.249  1.00  0.00    -0.321 N 
HETATM    4  C   UNL     1      43.139 -15.570   5.627  1.00  0.00     0.051 A 
HETATM    5  C   UNL     1      42.138 -15.760   4.647  1.00  0.00     0.043 A 
HETATM    6  C   UNL     1      41.362 -14.669   4.219  1.00  0.00    -0.021 A 
HETATM    7  C   UNL     1      41.611 -13.404   4.752  1.00  0.00     0.013 A 
HETATM    8  C   UNL     1      42.635 -13.204   5.685  1.00  0.00     0.016 A 
HETATM    9  C   UNL     1      43.427 -14.290   6.115  1.00  0.00     0.008 A 
ENDROOT
BRANCH   1  10
HETATM   10  C   UNL     1      45.203 -13.306   7.719  1.00  0.00     0.254 C 
HETATM   11  N   UNL     1      44.494 -12.867   8.815  1.00  0.00    -0.353 N 
HETATM   12  H   UNL     1      43.731 -13.436   9.151  1.00  0.00     0.163 HD
HETATM   13  O   UNL     1      46.289 -12.836   7.394  1.00  0.00    -0.268 OA
BRANCH  11  14
HETATM   14  C   UNL     1      45.015 -11.850   9.696  1.00  0.00     0.161 C 
BRANCH  14  15
HETATM   15  C   UNL     1      43.912 -11.015  10.293  1.00  0.00    -0.038 A 
HETATM   16  C   UNL     1      42.788 -10.676   9.528  1.00  0.00     0.009 A 
HETATM   17  C   UNL     1      41.769  -9.901  10.079  1.00  0.00     0.003 A 
HETATM   18  C   UNL     1      41.859  -9.450  11.398  1.00  0.00     0.037 A 
HETATM   19  C   UNL     1      42.976  -9.771  12.170  1.00  0.00     0.068 A 
HETATM   20  C   UNL     1      43.998 -10.545  11.611  1.00  0.00     0.045 A 
BRANCH  19  21
HETATM   21  O   UNL     1      43.190  -9.393  13.468  1.00  0.00    -0.356 OA
HETATM   22  C   UNL     1      42.423 -10.061  14.463  1.00  0.00     0.210 C 
ENDBRANCH  19  21
ENDBRANCH  14  15
ENDBRANCH  11  14
ENDBRANCH   1  10
BRANCH   3  23
HETATM   23  C   UNL     1      43.989 -17.890   6.207  1.00  0.00     0.039 A 
HETATM   24  C   UNL     1      43.612 -18.633   7.334  1.00  0.00     0.030 A 
HETATM   25  C   UNL     1      43.616 -20.030   7.293  1.00  0.00     0.002 A 
HETATM   26  C   UNL     1      44.002 -20.695   6.132  1.00  0.00     0.000 A 
HETATM   27  C   UNL     1      44.394 -19.965   5.012  1.00  0.00     0.002 A 
HETATM   28  C   UNL     1      44.397 -18.568   5.048  1.00  0.00     0.030 A 
ENDBRANCH   3  23
BRANCH   6  29
HETATM   29  C   UNL     1      40.323 -14.870   3.221  1.00  0.00     0.010 A 
HETATM   30  C   UNL     1      39.411 -13.960   2.635  1.00  0.00     0.152 A 
HETATM   31  N   UNL     1      38.615 -14.534   1.727  1.00  0.00    -0.187 NA
HETATM   32  N   UNL     1      39.013 -15.815   1.729  1.00  0.00    -0.289 N 
HETATM   33  H   UNL     1      38.547 -16.464   1.104  1.00  0.00     0.188 HD
HETATM   34  C   UNL     1      40.033 -16.068   2.600  1.00  0.00     0.123 A 
ENDBRANCH   6  29
TORSDOF 6
ENDMDL
MODEL 4
REMARK VINA RESULT:      -9.1      3.811      8.914
REMARK  6 active torsions:
REMARK  status: ('A' for Active; 'I' for Inactive)
REMARK    1  A    between atoms: O_2  and  C_3 
REMARK    2  A    between atoms: C_7  and  C_8 
REMARK    3  A    between atoms: C_8  and  N_9 
REMARK       I    between atoms: N_9  and  C_10 
REMARK    4  A    between atoms: C_10  and  C_12 
REMARK    5  A    between atoms: N_14  and  C_15 
REMARK    6  A    between atoms: C_23  and  C_27 
ROOT
HETATM    1  C   UNL     1      41.766 -15.746   1.244  1.00  0.00     0.060 C 
HETATM    2  C   UNL     1      42.066 -17.081   1.453  1.00  0.00     0.115 C 
HETATM    3  N   UNL     1      42.818 -17.215   2.607  1.00  0.00    -0.321 N 
HETATM    4  C   UNL     1      42.861 -15.973   3.242  1.00  0.00     0.051 A 
HETATM    5  C   UNL     1      43.332 -15.580   4.516  1.00  0.00     0.043 A 
HETATM    6  C   UNL     1      43.288 -14.226   4.891  1.00  0.00    -0.021 A 
HETATM    7  C   UNL     1      42.754 -13.290   4.005  1.00  0.00     0.013 A 
HETATM    8  C   UNL     1      42.241 -13.683   2.764  1.00  0.00     0.016 A 
HETATM    9  C   UNL     1      42.270 -15.041   2.380  1.00  0.00     0.008 A 
ENDROOT
BRANCH   1  10
HETATM   10  C   UNL     1      41.092 -15.173   0.080  1.00  0.00     0.254 C 
HETATM   11  N   UNL     1      41.866 -15.103  -1.057  1.00  0.00    -0.353 N 
HETATM   12  H   UNL     1      42.728 -15.626  -1.082  1.00  0.00     0.163 HD
HETATM   13  O   UNL     1      39.926 -14.795   0.118  1.00  0.00    -0.268 OA
BRANCH  11  14
HETATM   14  C   UNL     1      41.332 -14.625  -2.309  1.00  0.00     0.161 C 
BRANCH  14  15
HETATM   15  C   UNL     1      41.782 -13.219  -2.604  1.00  0.00    -0.038 A 
HETATM   16  C   UNL     1      41.465 -12.614  -3.828  1.00  0.00     0.009 A 
HETATM   17  C   UNL     1      41.884 -11.314  -4.102  1.00  0.00     0.003 A 
HETATM   18  C   UNL     1      42.631 -10.600  -3.161  1.00  0.00     0.037 A 
HETATM   19  C   UNL     1      42.964 -11.189  -1.941  1.00  0.00     0.068 A 
HETATM   20  C   UNL     1      42.544 -12.497  -1.673  1.00  0.00     0.045 A 
BRANCH  19  21
HETATM   21  O   UNL     1      43.688 -10.605  -0.938  1.00  0.00    -0.356 OA
HETATM   22  C   UNL     1      44.017  -9.231  -1.104  1.00  0.00     0.210 C 
ENDBRANCH  19  21
ENDBRANCH  14  15
ENDBRANCH  11  14
ENDBRANCH   1  10
BRANCH   3  23
HETATM   23  C   UNL     1      43.452 -18.430   3.013  1.00  0.00     0.039 A 
HETATM   24  C   UNL     1      43.675 -19.463   2.093  1.00  0.00     0.030 A 
HETATM   25  C   UNL     1      44.269 -20.659   2.504  1.00  0.00     0.002 A 
HETATM   26  C   UNL     1      44.638 -20.836   3.836  1.00  0.00     0.000 A 
HETATM   27  C   UNL     1      44.404 -19.821   4.761  1.00  0.00     0.002 A 
HETATM   28  C   UNL     1      43.806 -18.624   4.357  1.00  0.00     0.030 A 
ENDBRANCH   3  23
BRANCH   6  29
HETATM   29  C   UNL     1      43.787 -13.823   6.197  1.00  0.00     0.010 A 
HETATM   30  C   UNL     1      44.906 -14.270   6.940  1.00  0.00     0.152 A 
HETATM   31  N   UNL     1      45.045 -13.631   8.105  1.00  0.00    -0.187 NA
HETATM   32  N   UNL     1      44.014 -12.773   8.114  1.00  0.00    -0.289 N 
HETATM   33  H   UNL     1      43.905 -12.161   8.916  1.00  0.00     0.188 HD
HETATM   34  C   UNL     1      43.234 -12.844   6.997  1.00  0.00     0.123 A 
ENDBRANCH   6  29
TORSDOF 6
ENDMDL
MODEL 5
REMARK VINA RESULT:      -9.1      3.718      7.818
REMARK  6 active torsions:
REMARK  status: ('A' for Active; 'I' for Inactive)
REMARK    1  A    between atoms: O_2  and  C_3 
REMARK    2  A    between atoms: C_7  and  C_8 
REMARK    3  A    between atoms: C_8  and  N_9 
REMARK       I    between atoms: N_9  and  C_10 
REMARK    4  A    between atoms: C_10  and  C_12 
REMARK    5  A    between atoms: N_14  and  C_15 
REMARK    6  A    between atoms: C_23  and  C_27 
ROOT
HETATM    1  C   UNL     1      42.013 -15.850   1.789  1.00  0.00     0.060 C 
HETATM    2  C   UNL     1      42.491 -15.064   2.823  1.00  0.00     0.115 C 
HETATM    3  N   UNL     1      43.072 -15.867   3.789  1.00  0.00    -0.321 N 
HETATM    4  C   UNL     1      43.120 -17.172   3.295  1.00  0.00     0.051 A 
HETATM    5  C   UNL     1      43.754 -18.341   3.777  1.00  0.00     0.043 A 
HETATM    6  C   UNL     1      43.602 -19.555   3.085  1.00  0.00    -0.021 A 
HETATM    7  C   UNL     1      42.845 -19.581   1.913  1.00  0.00     0.013 A 
HETATM    8  C   UNL     1      42.259 -18.416   1.407  1.00  0.00     0.016 A 
HETATM    9  C   UNL     1      42.412 -17.189   2.087  1.00  0.00     0.008 A 
ENDROOT
BRANCH   1  10
HETATM   10  C   UNL     1      41.232 -15.399   0.637  1.00  0.00     0.254 C 
HETATM   11  N   UNL     1      41.936 -15.335  -0.545  1.00  0.00    -0.353 N 
HETATM   12  H   UNL     1      42.835 -15.790  -0.592  1.00  0.00     0.163 HD
HETATM   13  O   UNL     1      40.043 -15.113   0.724  1.00  0.00    -0.268 OA
BRANCH  11  14
HETATM   14  C   UNL     1      41.297 -14.974  -1.787  1.00  0.00     0.161 C 
BRANCH  14  15
HETATM   15  C   UNL     1      41.720 -13.606  -2.252  1.00  0.00    -0.038 A 
HETATM   16  C   UNL     1      41.381 -13.156  -3.535  1.00  0.00     0.009 A 
HETATM   17  C   UNL     1      41.775 -11.891  -3.966  1.00  0.00     0.003 A 
HETATM   18  C   UNL     1      42.516 -11.059  -3.124  1.00  0.00     0.037 A 
HETATM   19  C   UNL     1      42.871 -11.493  -1.847  1.00  0.00     0.068 A 
HETATM   20  C   UNL     1      42.477 -12.766  -1.421  1.00  0.00     0.045 A 
BRANCH  19  21
HETATM   21  O   UNL     1      43.594 -10.782  -0.928  1.00  0.00    -0.356 OA
HETATM   22  C   UNL     1      43.970  -9.460  -1.295  1.00  0.00     0.210 C 
ENDBRANCH  19  21
ENDBRANCH  14  15
ENDBRANCH  11  14
ENDBRANCH   1  10
BRANCH   3  23
HETATM   23  C   UNL     1      43.496 -15.399   5.071  1.00  0.00     0.039 A 
HETATM   24  C   UNL     1      43.980 -14.093   5.231  1.00  0.00     0.030 A 
HETATM   25  C   UNL     1      44.420 -13.652   6.482  1.00  0.00     0.002 A 
HETATM   26  C   UNL     1      44.387 -14.510   7.579  1.00  0.00     0.000 A 
HETATM   27  C   UNL     1      43.923 -15.815   7.425  1.00  0.00     0.002 A 
HETATM   28  C   UNL     1      43.486 -16.263   6.176  1.00  0.00     0.030 A 
ENDBRANCH   3  23
BRANCH   6  29
HETATM   29  C   UNL     1      44.243 -20.758   3.591  1.00  0.00     0.010 A 
HETATM   30  C   UNL     1      44.871 -21.022   4.832  1.00  0.00     0.152 A 
HETATM   31  N   UNL     1      45.327 -22.274   4.928  1.00  0.00    -0.187 NA
HETATM   32  N   UNL     1      44.995 -22.818   3.747  1.00  0.00    -0.289 N 
HETATM   33  H   UNL     1      45.240 -23.788   3.579  1.00  0.00     0.188 HD
HETATM   34  C   UNL     1      44.343 -21.956   2.914  1.00  0.00     0.123 A 
ENDBRANCH   6  29
TORSDOF 6
ENDMDL
MODEL 6
REMARK VINA RESULT:      -8.8      3.902      9.734
REMARK  6 active torsions:
REMARK  status: ('A' for Active; 'I' for Inactive)
REMARK    1  A    between atoms: O_2  and  C_3 
REMARK    2  A    between atoms: C_7  and  C_8 
REMARK    3  A    between atoms: C_8  and  N_9 
REMARK       I    between atoms: N_9  and  C_10 
REMARK    4  A    between atoms: C_10  and  C_12 
REMARK    5  A    between atoms: N_14  and  C_15 
REMARK    6  A    between atoms: C_23  and  C_27 
ROOT
HETATM    1  C   UNL     1      40.702 -15.452   2.520  1.00  0.00     0.060 C 
HETATM    2  C   UNL     1      41.159 -16.757   2.576  1.00  0.00     0.115 C 
HETATM    3  N   UNL     1      42.205 -16.847   3.477  1.00  0.00    -0.321 N 
HETATM    4  C   UNL     1      42.314 -15.622   4.137  1.00  0.00     0.051 A 
HETATM    5  C   UNL     1      43.078 -15.217   5.256  1.00  0.00     0.043 A 
HETATM    6  C   UNL     1      43.023 -13.882   5.694  1.00  0.00    -0.021 A 
HETATM    7  C   UNL     1      42.191 -12.980   5.031  1.00  0.00     0.013 A 
HETATM    8  C   UNL     1      41.395 -13.390   3.955  1.00  0.00     0.016 A 
HETATM    9  C   UNL     1      41.434 -14.729   3.512  1.00  0.00     0.008 A 
ENDROOT
BRANCH   1  10
HETATM   10  C   UNL     1      39.691 -14.918   1.608  1.00  0.00     0.254 C 
HETATM   11  N   UNL     1      40.190 -14.136   0.590  1.00  0.00    -0.353 N 
HETATM   12  H   UNL     1      41.182 -14.161   0.410  1.00  0.00     0.163 HD
HETATM   13  O   UNL     1      38.496 -15.159   1.741  1.00  0.00    -0.268 OA
BRANCH  11  14
HETATM   14  C   UNL     1      39.332 -13.588  -0.433  1.00  0.00     0.161 C 
BRANCH  14  15
HETATM   15  C   UNL     1      39.376 -14.411  -1.693  1.00  0.00    -0.038 A 
HETATM   16  C   UNL     1      40.522 -15.149  -2.019  1.00  0.00     0.009 A 
HETATM   17  C   UNL     1      40.564 -15.908  -3.186  1.00  0.00     0.003 A 
HETATM   18  C   UNL     1      39.464 -15.938  -4.048  1.00  0.00     0.037 A 
HETATM   19  C   UNL     1      38.319 -15.202  -3.745  1.00  0.00     0.068 A 
HETATM   20  C   UNL     1      38.284 -14.438  -2.574  1.00  0.00     0.045 A 
BRANCH  19  21
HETATM   21  O   UNL     1      37.179 -15.141  -4.500  1.00  0.00    -0.356 OA
HETATM   22  C   UNL     1      36.325 -14.025  -4.279  1.00  0.00     0.210 C 
ENDBRANCH  19  21
ENDBRANCH  14  15
ENDBRANCH  11  14
ENDBRANCH   1  10
BRANCH   3  23
HETATM   23  C   UNL     1      43.026 -18.006   3.639  1.00  0.00     0.039 A 
HETATM   24  C   UNL     1      43.560 -18.666   2.524  1.00  0.00     0.030 A 
HETATM   25  C   UNL     1      44.338 -19.815   2.690  1.00  0.00     0.002 A 
HETATM   26  C   UNL     1      44.583 -20.317   3.966  1.00  0.00     0.000 A 
HETATM   27  C   UNL     1      44.042 -19.677   5.079  1.00  0.00     0.002 A 
HETATM   28  C   UNL     1      43.259 -18.530   4.920  1.00  0.00     0.030 A 
ENDBRANCH   3  23
BRANCH   6  29
HETATM   29  C   UNL     1      43.822 -13.465   6.836  1.00  0.00     0.010 A 
HETATM   30  C   UNL     1      45.094 -13.896   7.284  1.00  0.00     0.152 A 
HETATM   31  N   UNL     1      45.506 -13.247   8.377  1.00  0.00    -0.187 NA
HETATM   32  N   UNL     1      44.499 -12.399   8.635  1.00  0.00    -0.289 N 
HETATM   33  H   UNL     1      44.583 -11.782   9.436  1.00  0.00     0.188 HD
HETATM   34  C   UNL     1      43.471 -12.486   7.742  1.00  0.00     0.123 A 
ENDBRANCH   6  29
TORSDOF 6
ENDMDL
MODEL 7
REMARK VINA RESULT:      -8.3      2.951      5.822
REMARK  6 active torsions:
REMARK  status: ('A' for Active; 'I' for Inactive)
REMARK    1  A    between atoms: O_2  and  C_3 
REMARK    2  A    between atoms: C_7  and  C_8 
REMARK    3  A    between atoms: C_8  and  N_9 
REMARK       I    between atoms: N_9  and  C_10 
REMARK    4  A    between atoms: C_10  and  C_12 
REMARK    5  A    between atoms: N_14  and  C_15 
REMARK    6  A    between atoms: C_23  and  C_27 
ROOT
HETATM    1  C   UNL     1      41.522 -12.408   5.141  1.00  0.00     0.060 C 
HETATM    2  C   UNL     1      42.202 -13.597   5.336  1.00  0.00     0.115 C 
HETATM    3  N   UNL     1      41.865 -14.496   4.340  1.00  0.00    -0.321 N 
HETATM    4  C   UNL     1      41.089 -13.823   3.394  1.00  0.00     0.051 A 
HETATM    5  C   UNL     1      40.629 -14.198   2.111  1.00  0.00     0.043 A 
HETATM    6  C   UNL     1      39.814 -13.320   1.376  1.00  0.00    -0.021 A 
HETATM    7  C   UNL     1      39.492 -12.074   1.916  1.00  0.00     0.013 A 
HETATM    8  C   UNL     1      39.988 -11.680   3.164  1.00  0.00     0.016 A 
HETATM    9  C   UNL     1      40.815 -12.549   3.907  1.00  0.00     0.008 A 
ENDROOT
BRANCH   1  10
HETATM   10  C   UNL     1      41.510 -11.250   6.035  1.00  0.00     0.254 C 
HETATM   11  N   UNL     1      41.520 -11.558   7.377  1.00  0.00    -0.353 N 
HETATM   12  H   UNL     1      41.749 -12.502   7.650  1.00  0.00     0.163 HD
HETATM   13  O   UNL     1      41.503 -10.098   5.614  1.00  0.00    -0.268 OA
BRANCH  11  14
HETATM   14  C   UNL     1      41.578 -10.532   8.389  1.00  0.00     0.161 C 
BRANCH  14  15
HETATM   15  C   UNL     1      42.744 -10.736   9.320  1.00  0.00    -0.038 A 
HETATM   16  C   UNL     1      42.799 -10.059  10.546  1.00  0.00     0.009 A 
HETATM   17  C   UNL     1      43.879 -10.245  11.406  1.00  0.00     0.003 A 
HETATM   18  C   UNL     1      44.921 -11.106  11.054  1.00  0.00     0.037 A 
HETATM   19  C   UNL     1      44.888 -11.781   9.834  1.00  0.00     0.068 A 
HETATM   20  C   UNL     1      43.803 -11.586   8.971  1.00  0.00     0.045 A 
BRANCH  19  21
HETATM   21  O   UNL     1      45.839 -12.646   9.367  1.00  0.00    -0.356 OA
HETATM   22  C   UNL     1      46.286 -12.446   8.032  1.00  0.00     0.210 C 
ENDBRANCH  19  21
ENDBRANCH  14  15
ENDBRANCH  11  14
ENDBRANCH   1  10
BRANCH   3  23
HETATM   23  C   UNL     1      42.240 -15.875   4.344  1.00  0.00     0.039 A 
HETATM   24  C   UNL     1      41.589 -16.791   5.182  1.00  0.00     0.030 A 
HETATM   25  C   UNL     1      41.981 -18.132   5.201  1.00  0.00     0.002 A 
HETATM   26  C   UNL     1      43.028 -18.568   4.392  1.00  0.00     0.000 A 
HETATM   27  C   UNL     1      43.692 -17.660   3.569  1.00  0.00     0.002 A 
HETATM   28  C   UNL     1      43.308 -16.317   3.548  1.00  0.00     0.030 A 
ENDBRANCH   3  23
BRANCH   6  29
HETATM   29  C   UNL     1      39.330 -13.715   0.062  1.00  0.00     0.010 A 
HETATM   30  C   UNL     1      40.030 -14.041  -1.124  1.00  0.00     0.152 A 
HETATM   31  N   UNL     1      39.218 -14.379  -2.130  1.00  0.00    -0.187 NA
HETATM   32  N   UNL     1      37.994 -14.270  -1.593  1.00  0.00    -0.289 N 
HETATM   33  H   UNL     1      37.192 -14.483  -2.177  1.00  0.00     0.188 HD
HETATM   34  C   UNL     1      38.005 -13.880  -0.285  1.00  0.00     0.123 A 
ENDBRANCH   6  29
TORSDOF 6
ENDMDL
MODEL 8
REMARK VINA RESULT:      -8.3      1.979      3.153
REMARK  6 active torsions:
REMARK  status: ('A' for Active; 'I' for Inactive)
REMARK    1  A    between atoms: O_2  and  C_3 
REMARK    2  A    between atoms: C_7  and  C_8 
REMARK    3  A    between atoms: C_8  and  N_9 
REMARK       I    between atoms: N_9  and  C_10 
REMARK    4  A    between atoms: C_10  and  C_12 
REMARK    5  A    between atoms: N_14  and  C_15 
REMARK    6  A    between atoms: C_23  and  C_27 
ROOT
HETATM    1  C   UNL     1      41.148 -13.486   5.134  1.00  0.00     0.060 C 
HETATM    2  C   UNL     1      40.823 -13.266   3.808  1.00  0.00     0.115 C 
HETATM    3  N   UNL     1      41.452 -14.206   3.011  1.00  0.00    -0.321 N 
HETATM    4  C   UNL     1      42.053 -15.149   3.847  1.00  0.00     0.051 A 
HETATM    5  C   UNL     1      42.667 -16.394   3.578  1.00  0.00     0.043 A 
HETATM    6  C   UNL     1      43.237 -17.134   4.628  1.00  0.00    -0.021 A 
HETATM    7  C   UNL     1      43.164 -16.638   5.930  1.00  0.00     0.013 A 
HETATM    8  C   UNL     1      42.513 -15.431   6.206  1.00  0.00     0.016 A 
HETATM    9  C   UNL     1      41.929 -14.683   5.161  1.00  0.00     0.008 A 
ENDROOT
BRANCH   1  10
HETATM   10  C   UNL     1      40.785 -12.646   6.275  1.00  0.00     0.254 C 
HETATM   11  N   UNL     1      41.795 -11.829   6.732  1.00  0.00    -0.353 N 
HETATM   12  H   UNL     1      42.607 -11.700   6.149  1.00  0.00     0.163 HD
HETATM   13  O   UNL     1      39.664 -12.666   6.773  1.00  0.00    -0.268 OA
BRANCH  11  14
HETATM   14  C   UNL     1      41.581 -10.891   7.807  1.00  0.00     0.161 C 
BRANCH  14  15
HETATM   15  C   UNL     1      42.695 -10.944   8.820  1.00  0.00    -0.038 A 
HETATM   16  C   UNL     1      42.624 -10.179   9.992  1.00  0.00     0.009 A 
HETATM   17  C   UNL     1      43.656 -10.226  10.928  1.00  0.00     0.003 A 
HETATM   18  C   UNL     1      44.774 -11.033  10.704  1.00  0.00     0.037 A 
HETATM   19  C   UNL     1      44.866 -11.793   9.539  1.00  0.00     0.068 A 
HETATM   20  C   UNL     1      43.829 -11.739   8.600  1.00  0.00     0.045 A 
BRANCH  19  21
HETATM   21  O   UNL     1      45.902 -12.619   9.197  1.00  0.00    -0.356 OA
HETATM   22  C   UNL     1      46.107 -12.846   7.808  1.00  0.00     0.210 C 
ENDBRANCH  19  21
ENDBRANCH  14  15
ENDBRANCH  11  14
ENDBRANCH   1  10
BRANCH   3  23
HETATM   23  C   UNL     1      41.482 -14.155   1.582  1.00  0.00     0.039 A 
HETATM   24  C   UNL     1      41.131 -15.277   0.819  1.00  0.00     0.030 A 
HETATM   25  C   UNL     1      41.190 -15.228  -0.576  1.00  0.00     0.002 A 
HETATM   26  C   UNL     1      41.607 -14.064  -1.219  1.00  0.00     0.000 A 
HETATM   27  C   UNL     1      41.974 -12.950  -0.467  1.00  0.00     0.002 A 
HETATM   28  C   UNL     1      41.921 -12.994   0.929  1.00  0.00     0.030 A 
ENDBRANCH   3  23
BRANCH   6  29
HETATM   29  C   UNL     1      43.880 -18.408   4.346  1.00  0.00     0.010 A 
HETATM   30  C   UNL     1      44.068 -19.101   3.126  1.00  0.00     0.152 A 
HETATM   31  N   UNL     1      44.735 -20.249   3.278  1.00  0.00    -0.187 NA
HETATM   32  N   UNL     1      44.976 -20.297   4.597  1.00  0.00    -0.289 N 
HETATM   33  H   UNL     1      45.484 -21.095   4.964  1.00  0.00     0.188 HD
HETATM   34  C   UNL     1      44.489 -19.220   5.280  1.00  0.00     0.123 A 
ENDBRANCH   6  29
TORSDOF 6
ENDMDL
MODEL 9
REMARK VINA RESULT:      -8.2      5.017      9.320
REMARK  6 active torsions:
REMARK  status: ('A' for Active; 'I' for Inactive)
REMARK    1  A    between atoms: O_2  and  C_3 
REMARK    2  A    between atoms: C_7  and  C_8 
REMARK    3  A    between atoms: C_8  and  N_9 
REMARK       I    between atoms: N_9  and  C_10 
REMARK    4  A    between atoms: C_10  and  C_12 
REMARK    5  A    between atoms: N_14  and  C_15 
REMARK    6  A    between atoms: C_23  and  C_27 
ROOT
HETATM    1  C   UNL     1      41.827 -13.808   0.444  1.00  0.00     0.060 C 
HETATM    2  C   UNL     1      41.041 -14.647  -0.326  1.00  0.00     0.115 C 
HETATM    3  N   UNL     1      40.678 -14.002  -1.495  1.00  0.00    -0.321 N 
HETATM    4  C   UNL     1      41.375 -12.795  -1.559  1.00  0.00     0.051 A 
HETATM    5  C   UNL     1      41.519 -11.841  -2.593  1.00  0.00     0.043 A 
HETATM    6  C   UNL     1      42.265 -10.671  -2.366  1.00  0.00    -0.021 A 
HETATM    7  C   UNL     1      42.877 -10.482  -1.127  1.00  0.00     0.013 A 
HETATM    8  C   UNL     1      42.779 -11.448  -0.119  1.00  0.00     0.016 A 
HETATM    9  C   UNL     1      42.040 -12.631  -0.338  1.00  0.00     0.008 A 
ENDROOT
BRANCH   1  10
HETATM   10  C   UNL     1      42.316 -14.066   1.798  1.00  0.00     0.254 C 
HETATM   11  N   UNL     1      41.990 -15.306   2.301  1.00  0.00    -0.353 N 
HETATM   12  H   UNL     1      41.648 -16.007   1.662  1.00  0.00     0.163 HD
HETATM   13  O   UNL     1      42.972 -13.242   2.426  1.00  0.00    -0.268 OA
BRANCH  11  14
HETATM   14  C   UNL     1      42.453 -15.743   3.596  1.00  0.00     0.161 C 
BRANCH  14  15
HETATM   15  C   UNL     1      43.100 -17.101   3.525  1.00  0.00    -0.038 A 
HETATM   16  C   UNL     1      43.132 -17.808   2.316  1.00  0.00     0.009 A 
HETATM   17  C   UNL     1      43.728 -19.066   2.250  1.00  0.00     0.003 A 
HETATM   18  C   UNL     1      44.296 -19.637   3.391  1.00  0.00     0.037 A 
HETATM   19  C   UNL     1      44.266 -18.952   4.605  1.00  0.00     0.068 A 
HETATM   20  C   UNL     1      43.662 -17.691   4.667  1.00  0.00     0.045 A 
BRANCH  19  21
HETATM   21  O   UNL     1      44.782 -19.396   5.792  1.00  0.00    -0.356 OA
HETATM   22  C   UNL     1      44.345 -18.726   6.969  1.00  0.00     0.210 C 
ENDBRANCH  19  21
ENDBRANCH  14  15
ENDBRANCH  11  14
ENDBRANCH   1  10
BRANCH   3  23
HETATM   23  C   UNL     1      39.719 -14.511  -2.426  1.00  0.00     0.039 A 
HETATM   24  C   UNL     1      38.408 -14.014  -2.445  1.00  0.00     0.030 A 
HETATM   25  C   UNL     1      37.469 -14.536  -3.339  1.00  0.00     0.002 A 
HETATM   26  C   UNL     1      37.828 -15.561  -4.212  1.00  0.00     0.000 A 
HETATM   27  C   UNL     1      39.123 -16.072  -4.188  1.00  0.00     0.002 A 
HETATM   28  C   UNL     1      40.066 -15.557  -3.294  1.00  0.00     0.030 A 
ENDBRANCH   3  23
BRANCH   6  29
HETATM   29  C   UNL     1      42.398  -9.685  -3.427  1.00  0.00     0.010 A 
HETATM   30  C   UNL     1      42.443  -9.837  -4.834  1.00  0.00     0.152 A 
HETATM   31  N   UNL     1      42.552  -8.672  -5.479  1.00  0.00    -0.187 NA
HETATM   32  N   UNL     1      42.580  -7.768  -4.488  1.00  0.00    -0.289 N 
HETATM   33  H   UNL     1      42.659  -6.787  -4.734  1.00  0.00     0.188 HD
HETATM   34  C   UNL     1      42.487  -8.320  -3.243  1.00  0.00     0.123 A 
ENDBRANCH   6  29
TORSDOF 6
ENDMDL
MODEL 10
REMARK VINA RESULT:      -8.1      3.062      8.116
REMARK  6 active torsions:
REMARK  status: ('A' for Active; 'I' for Inactive)
REMARK    1  A    between atoms: O_2  and  C_3 
REMARK    2  A    between atoms: C_7  and  C_8 
REMARK    3  A    between atoms: C_8  and  N_9 
REMARK       I    between atoms: N_9  and  C_10 
REMARK    4  A    between atoms: C_10  and  C_12 
REMARK    5  A    between atoms: N_14  and  C_15 
REMARK    6  A    between atoms: C_23  and  C_27 
ROOT
HETATM    1  C   UNL     1      41.584 -15.314   3.354  1.00  0.00     0.060 C 
HETATM    2  C   UNL     1      40.895 -14.155   3.044  1.00  0.00     0.115 C 
HETATM    3  N   UNL     1      41.153 -13.189   4.001  1.00  0.00    -0.321 N 
HETATM    4  C   UNL     1      42.152 -13.673   4.846  1.00  0.00     0.051 A 
HETATM    5  C   UNL     1      42.909 -13.050   5.866  1.00  0.00     0.043 A 
HETATM    6  C   UNL     1      43.843 -13.801   6.601  1.00  0.00    -0.021 A 
HETATM    7  C   UNL     1      44.029 -15.148   6.292  1.00  0.00     0.013 A 
HETATM    8  C   UNL     1      43.318 -15.754   5.250  1.00  0.00     0.016 A 
HETATM    9  C   UNL     1      42.384 -15.009   4.499  1.00  0.00     0.008 A 
ENDROOT
BRANCH   1  10
HETATM   10  C   UNL     1      41.490 -16.599   2.664  1.00  0.00     0.254 C 
HETATM   11  N   UNL     1      42.679 -17.063   2.146  1.00  0.00    -0.353 N 
HETATM   12  H   UNL     1      43.536 -16.626   2.449  1.00  0.00     0.163 HD
HETATM   13  O   UNL     1      40.434 -17.215   2.566  1.00  0.00    -0.268 OA
BRANCH  11  14
HETATM   14  C   UNL     1      42.772 -18.347   1.493  1.00  0.00     0.161 C 
BRANCH  14  15
HETATM   15  C   UNL     1      43.464 -19.362   2.363  1.00  0.00    -0.038 A 
HETATM   16  C   UNL     1      43.775 -20.632   1.859  1.00  0.00     0.009 A 
HETATM   17  C   UNL     1      44.414 -21.574   2.664  1.00  0.00     0.003 A 
HETATM   18  C   UNL     1      44.746 -21.262   3.985  1.00  0.00     0.037 A 
HETATM   19  C   UNL     1      44.436 -20.006   4.506  1.00  0.00     0.068 A 
HETATM   20  C   UNL     1      43.791 -19.067   3.695  1.00  0.00     0.045 A 
BRANCH  19  21
HETATM   21  O   UNL     1      44.702 -19.575   5.777  1.00  0.00    -0.356 OA
HETATM   22  C   UNL     1      43.853 -20.065   6.809  1.00  0.00     0.210 C 
ENDBRANCH  19  21
ENDBRANCH  14  15
ENDBRANCH  11  14
ENDBRANCH   1  10
BRANCH   3  23
HETATM   23  C   UNL     1      40.459 -11.942   4.087  1.00  0.00     0.039 A 
HETATM   24  C   UNL     1      41.166 -10.733   4.150  1.00  0.00     0.030 A 
HETATM   25  C   UNL     1      40.481  -9.520   4.263  1.00  0.00     0.002 A 
HETATM   26  C   UNL     1      39.089  -9.504   4.320  1.00  0.00     0.000 A 
HETATM   27  C   UNL     1      38.380 -10.702   4.275  1.00  0.00     0.002 A 
HETATM   28  C   UNL     1      39.059 -11.919   4.166  1.00  0.00     0.030 A 
ENDBRANCH   3  23
BRANCH   6  29
HETATM   29  C   UNL     1      44.609 -13.161   7.659  1.00  0.00     0.010 A 
HETATM   30  C   UNL     1      45.993 -12.884   7.764  1.00  0.00     0.152 A 
HETATM   31  N   UNL     1      46.312 -12.255   8.899  1.00  0.00    -0.187 NA
HETATM   32  N   UNL     1      45.134 -12.127   9.527  1.00  0.00    -0.289 N 
HETATM   33  H   UNL     1      45.118 -11.667  10.431  1.00  0.00     0.188 HD
HETATM   34  C   UNL     1      44.084 -12.648   8.828  1.00  0.00     0.123 A 
ENDBRANCH   6  29
TORSDOF 6
ENDMDL
