MODEL 1
REMARK VINA RESULT:      -8.8      0.000      0.000
REMARK  2 active torsions:
REMARK  status: ('A' for Active; 'I' for Inactive)
REMARK    1  A    between atoms: C_2  and  N_3 
REMARK    2  A    between atoms: N_3  and  C_4 
ROOT
HETATM    1  C   UNL     1      42.578 -15.459   4.592  1.00  0.00     0.143 A 
HETATM    2  N   UNL     1      42.821 -14.313   5.274  1.00  0.00    -0.223 NA
HETATM    3  C   UNL     1      43.673 -14.320   6.304  1.00  0.00     0.236 A 
HETATM    4  N   UNL     1      44.342 -15.362   6.784  1.00  0.00    -0.234 NA
HETATM    5  C   UNL     1      44.116 -16.483   6.082  1.00  0.00     0.114 A 
HETATM    6  C   UNL     1      43.299 -16.627   4.969  1.00  0.00     0.053 A 
HETATM    7  S   UNL     1      44.854 -17.933   6.563  1.00  0.00    -0.073 SA
HETATM    8  C   UNL     1      44.157 -18.799   5.273  1.00  0.00    -0.008 C 
HETATM    9  C   UNL     1      43.404 -17.987   4.435  1.00  0.00    -0.028 C 
HETATM   10  C   UNL     1      42.804 -18.497   3.151  1.00  0.00     0.041 C 
HETATM   11  C   UNL     1      43.827 -19.141   2.209  1.00  0.00     0.005 C 
HETATM   12  C   UNL     1      44.262 -20.552   2.606  1.00  0.00     0.001 C 
HETATM   13  C   UNL     1      45.147 -20.623   3.851  1.00  0.00     0.005 C 
HETATM   14  C   UNL     1      44.419 -20.271   5.146  1.00  0.00     0.047 C 
ENDROOT
BRANCH   1  15
HETATM   15  N   UNL     1      41.579 -15.484   3.601  1.00  0.00    -0.340 N 
HETATM   16  H   UNL     1      40.656 -15.461   4.010  1.00  0.00     0.167 HD
BRANCH  15  17
HETATM   17  C   UNL     1      41.596 -15.083   2.251  1.00  0.00     0.036 A 
HETATM   18  C   UNL     1      41.203 -15.910   1.192  1.00  0.00     0.032 A 
HETATM   19  C   UNL     1      41.212 -15.453  -0.131  1.00  0.00     0.042 A 
HETATM   20  C   UNL     1      41.596 -14.147  -0.412  1.00  0.00     0.102 A 
HETATM   21  C   UNL     1      41.991 -13.305   0.629  1.00  0.00     0.104 A 
HETATM   22  O   UNL     1      41.567 -13.760  -1.726  1.00  0.00    -0.346 OA
HETATM   23  C   UNL     1      41.968 -13.762   1.947  1.00  0.00     0.069 A 
HETATM   24  O   UNL     1      42.407 -12.012   0.431  1.00  0.00    -0.346 OA
HETATM   25  C   UNL     1      42.730 -11.775  -0.944  1.00  0.00     0.202 C 
HETATM   26  C   UNL     1      41.648 -12.336  -1.853  1.00  0.00     0.202 C 
ENDBRANCH  15  17
ENDBRANCH   1  15
TORSDOF 2
ENDMDL
MODEL 2
REMARK VINA RESULT:      -8.8      1.636      1.941
REMARK  2 active torsions:
REMARK  status: ('A' for Active; 'I' for Inactive)
REMARK    1  A    between atoms: C_2  and  N_3 
REMARK    2  A    between atoms: N_3  and  C_4 
ROOT
HETATM    1  C   UNL     1      42.282 -15.726   4.940  1.00  0.00     0.143 A 
HETATM    2  N   UNL     1      42.569 -14.630   5.685  1.00  0.00    -0.223 NA
HETATM    3  C   UNL     1      43.594 -14.658   6.542  1.00  0.00     0.236 A 
HETATM    4  N   UNL     1      44.409 -15.679   6.784  1.00  0.00    -0.234 NA
HETATM    5  C   UNL     1      44.135 -16.746   6.019  1.00  0.00     0.114 A 
HETATM    6  C   UNL     1      43.138 -16.857   5.059  1.00  0.00     0.053 A 
HETATM    7  S   UNL     1      45.045 -18.165   6.207  1.00  0.00    -0.073 SA
HETATM    8  C   UNL     1      44.183 -18.966   4.976  1.00  0.00    -0.008 C 
HETATM    9  C   UNL     1      43.235 -18.149   4.375  1.00  0.00    -0.028 C 
HETATM   10  C   UNL     1      42.445 -18.589   3.170  1.00  0.00     0.041 C 
HETATM   11  C   UNL     1      43.318 -19.055   2.000  1.00  0.00     0.005 C 
HETATM   12  C   UNL     1      43.913 -20.453   2.164  1.00  0.00     0.001 C 
HETATM   13  C   UNL     1      45.016 -20.561   3.217  1.00  0.00     0.005 C 
HETATM   14  C   UNL     1      44.516 -20.393   4.650  1.00  0.00     0.047 C 
ENDROOT
BRANCH   1  15
HETATM   15  N   UNL     1      41.122 -15.747   4.144  1.00  0.00    -0.340 N 
HETATM   16  H   UNL     1      40.289 -15.809   4.711  1.00  0.00     0.167 HD
BRANCH  15  17
HETATM   17  C   UNL     1      40.873 -15.253   2.848  1.00  0.00     0.036 A 
HETATM   18  C   UNL     1      41.868 -15.093   1.877  1.00  0.00     0.032 A 
HETATM   19  C   UNL     1      41.562 -14.625   0.593  1.00  0.00     0.042 A 
HETATM   20  C   UNL     1      40.247 -14.329   0.256  1.00  0.00     0.102 A 
HETATM   21  C   UNL     1      39.239 -14.482   1.210  1.00  0.00     0.104 A 
HETATM   22  O   UNL     1      40.016 -13.890  -1.021  1.00  0.00    -0.346 OA
HETATM   23  C   UNL     1      39.547 -14.962   2.484  1.00  0.00     0.069 A 
HETATM   24  O   UNL     1      37.921 -14.189   0.963  1.00  0.00    -0.346 OA
HETATM   25  C   UNL     1      37.780 -13.386  -0.215  1.00  0.00     0.202 C 
HETATM   26  C   UNL     1      38.623 -13.946  -1.349  1.00  0.00     0.202 C 
ENDBRANCH  15  17
ENDBRANCH   1  15
TORSDOF 2
ENDMDL
MODEL 3
REMARK VINA RESULT:      -8.6      0.788      1.566
REMARK  2 active torsions:
REMARK  status: ('A' for Active; 'I' for Inactive)
REMARK    1  A    between atoms: C_2  and  N_3 
REMARK    2  A    between atoms: N_3  and  C_4 
ROOT
HETATM    1  C   UNL     1      42.742 -15.340   4.763  1.00  0.00     0.143 A 
HETATM    2  N   UNL     1      43.037 -14.241   5.499  1.00  0.00    -0.223 NA
HETATM    3  C   UNL     1      43.890 -14.335   6.524  1.00  0.00     0.236 A 
HETATM    4  N   UNL     1      44.513 -15.428   6.950  1.00  0.00    -0.234 NA
HETATM    5  C   UNL     1      44.237 -16.502   6.195  1.00  0.00     0.114 A 
HETATM    6  C   UNL     1      43.411 -16.556   5.080  1.00  0.00     0.053 A 
HETATM    7  S   UNL     1      44.911 -18.005   6.602  1.00  0.00    -0.073 SA
HETATM    8  C   UNL     1      44.174 -18.776   5.274  1.00  0.00    -0.008 C 
HETATM    9  C   UNL     1      43.456 -17.892   4.480  1.00  0.00    -0.028 C 
HETATM   10  C   UNL     1      42.831 -18.311   3.175  1.00  0.00     0.041 C 
HETATM   11  C   UNL     1      43.823 -18.953   2.199  1.00  0.00     0.005 C 
HETATM   12  C   UNL     1      44.196 -20.400   2.525  1.00  0.00     0.001 C 
HETATM   13  C   UNL     1      45.080 -20.570   3.761  1.00  0.00     0.005 C 
HETATM   14  C   UNL     1      44.370 -20.250   5.074  1.00  0.00     0.047 C 
ENDROOT
BRANCH   1  15
HETATM   15  N   UNL     1      41.741 -15.274   3.777  1.00  0.00    -0.340 N 
HETATM   16  H   UNL     1      40.823 -15.411   4.174  1.00  0.00     0.167 HD
BRANCH  15  17
HETATM   17  C   UNL     1      41.709 -14.629   2.524  1.00  0.00     0.036 A 
HETATM   18  C   UNL     1      41.960 -13.263   2.350  1.00  0.00     0.032 A 
HETATM   19  C   UNL     1      41.944 -12.676   1.079  1.00  0.00     0.042 A 
HETATM   20  C   UNL     1      41.696 -13.457  -0.044  1.00  0.00     0.102 A 
HETATM   21  C   UNL     1      41.444 -14.821   0.107  1.00  0.00     0.104 A 
HETATM   22  O   UNL     1      41.710 -12.822  -1.258  1.00  0.00    -0.346 OA
HETATM   23  C   UNL     1      41.474 -15.404   1.375  1.00  0.00     0.069 A 
HETATM   24  O   UNL     1      41.167 -15.655  -0.948  1.00  0.00    -0.346 OA
HETATM   25  C   UNL     1      40.812 -14.909  -2.118  1.00  0.00     0.202 C 
HETATM   26  C   UNL     1      41.784 -13.761  -2.337  1.00  0.00     0.202 C 
ENDBRANCH  15  17
ENDBRANCH   1  15
TORSDOF 2
ENDMDL
MODEL 4
REMARK VINA RESULT:      -8.4      3.163      4.423
REMARK  2 active torsions:
REMARK  status: ('A' for Active; 'I' for Inactive)
REMARK    1  A    between atoms: C_2  and  N_3 
REMARK    2  A    between atoms: N_3  and  C_4 
ROOT
HETATM    1  C   UNL     1      41.754 -13.908   0.544  1.00  0.00     0.143 A 
HETATM    2  N   UNL     1      41.507 -12.591   0.751  1.00  0.00    -0.223 NA
HETATM    3  C   UNL     1      41.291 -12.141   1.990  1.00  0.00     0.236 A 
HETATM    4  N   UNL     1      41.271 -12.854   3.110  1.00  0.00    -0.234 NA
HETATM    5  C   UNL     1      41.546 -14.150   2.897  1.00  0.00     0.114 A 
HETATM    6  C   UNL     1      41.834 -14.759   1.682  1.00  0.00     0.053 A 
HETATM    7  S   UNL     1      41.534 -15.232   4.203  1.00  0.00    -0.073 SA
HETATM    8  C   UNL     1      41.966 -16.547   3.210  1.00  0.00    -0.008 C 
HETATM    9  C   UNL     1      42.177 -16.167   1.891  1.00  0.00    -0.028 C 
HETATM   10  C   UNL     1      42.701 -17.127   0.854  1.00  0.00     0.041 C 
HETATM   11  C   UNL     1      44.017 -17.803   1.254  1.00  0.00     0.005 C 
HETATM   12  C   UNL     1      43.873 -18.931   2.275  1.00  0.00     0.001 C 
HETATM   13  C   UNL     1      43.512 -18.473   3.689  1.00  0.00     0.005 C 
HETATM   14  C   UNL     1      42.096 -17.915   3.812  1.00  0.00     0.047 C 
ENDROOT
BRANCH   1  15
HETATM   15  N   UNL     1      41.841 -14.406  -0.769  1.00  0.00    -0.340 N 
HETATM   16  H   UNL     1      42.671 -14.967  -0.895  1.00  0.00     0.167 HD
BRANCH  15  17
HETATM   17  C   UNL     1      40.848 -14.665  -1.734  1.00  0.00     0.036 A 
HETATM   18  C   UNL     1      40.873 -15.770  -2.593  1.00  0.00     0.032 A 
HETATM   19  C   UNL     1      39.845 -15.997  -3.516  1.00  0.00     0.042 A 
HETATM   20  C   UNL     1      38.762 -15.128  -3.579  1.00  0.00     0.102 A 
HETATM   21  C   UNL     1      38.718 -14.020  -2.731  1.00  0.00     0.104 A 
HETATM   22  O   UNL     1      37.785 -15.417  -4.495  1.00  0.00    -0.346 OA
HETATM   23  C   UNL     1      39.738 -13.805  -1.803  1.00  0.00     0.069 A 
HETATM   24  O   UNL     1      37.696 -13.103  -2.748  1.00  0.00    -0.346 OA
HETATM   25  C   UNL     1      36.918 -13.215  -3.946  1.00  0.00     0.202 C 
HETATM   26  C   UNL     1      36.591 -14.670  -4.237  1.00  0.00     0.202 C 
ENDBRANCH  15  17
ENDBRANCH   1  15
TORSDOF 2
ENDMDL
MODEL 5
REMARK VINA RESULT:      -8.4      3.431      6.919
REMARK  2 active torsions:
REMARK  status: ('A' for Active; 'I' for Inactive)
REMARK    1  A    between atoms: C_2  and  N_3 
REMARK    2  A    between atoms: N_3  and  C_4 
ROOT
HETATM    1  C   UNL     1      42.030 -15.745   4.140  1.00  0.00     0.143 A 
HETATM    2  N   UNL     1      41.621 -15.816   5.431  1.00  0.00    -0.223 NA
HETATM    3  C   UNL     1      40.544 -15.131   5.826  1.00  0.00     0.236 A 
HETATM    4  N   UNL     1      39.785 -14.332   5.084  1.00  0.00    -0.234 NA
HETATM    5  C   UNL     1      40.181 -14.294   3.803  1.00  0.00     0.114 A 
HETATM    6  C   UNL     1      41.247 -14.978   3.233  1.00  0.00     0.053 A 
HETATM    7  S   UNL     1      39.358 -13.299   2.703  1.00  0.00    -0.073 SA
HETATM    8  C   UNL     1      40.353 -13.784   1.409  1.00  0.00    -0.008 C 
HETATM    9  C   UNL     1      41.283 -14.744   1.787  1.00  0.00    -0.028 C 
HETATM   10  C   UNL     1      42.181 -15.427   0.789  1.00  0.00     0.041 C 
HETATM   11  C   UNL     1      41.422 -16.091  -0.366  1.00  0.00     0.005 C 
HETATM   12  C   UNL     1      40.912 -15.123  -1.435  1.00  0.00     0.001 C 
HETATM   13  C   UNL     1      39.750 -14.233  -0.992  1.00  0.00     0.005 C 
HETATM   14  C   UNL     1      40.140 -13.187   0.050  1.00  0.00     0.047 C 
ENDROOT
BRANCH   1  15
HETATM   15  N   UNL     1      43.240 -16.350   3.756  1.00  0.00    -0.340 N 
HETATM   16  H   UNL     1      43.981 -15.669   3.667  1.00  0.00     0.167 HD
BRANCH  15  17
HETATM   17  C   UNL     1      43.717 -17.665   3.922  1.00  0.00     0.036 A 
HETATM   18  C   UNL     1      44.320 -18.127   5.098  1.00  0.00     0.032 A 
HETATM   19  C   UNL     1      44.752 -19.453   5.222  1.00  0.00     0.042 A 
HETATM   20  C   UNL     1      44.566 -20.346   4.172  1.00  0.00     0.102 A 
HETATM   21  C   UNL     1      43.967 -19.906   2.991  1.00  0.00     0.104 A 
HETATM   22  O   UNL     1      44.998 -21.631   4.366  1.00  0.00    -0.346 OA
HETATM   23  C   UNL     1      43.526 -18.587   2.877  1.00  0.00     0.069 A 
HETATM   24  O   UNL     1      43.770 -20.718   1.902  1.00  0.00    -0.346 OA
HETATM   25  C   UNL     1      44.563 -21.907   1.991  1.00  0.00     0.202 C 
HETATM   26  C   UNL     1      44.457 -22.518   3.379  1.00  0.00     0.202 C 
ENDBRANCH  15  17
ENDBRANCH   1  15
TORSDOF 2
ENDMDL
MODEL 6
REMARK VINA RESULT:      -8.3      2.156      2.754
REMARK  2 active torsions:
REMARK  status: ('A' for Active; 'I' for Inactive)
REMARK    1  A    between atoms: C_2  and  N_3 
REMARK    2  A    between atoms: N_3  and  C_4 
ROOT
HETATM    1  C   UNL     1      40.180 -14.651   3.582  1.00  0.00     0.143 A 
HETATM    2  N   UNL     1      40.072 -13.438   4.178  1.00  0.00    -0.223 NA
HETATM    3  C   UNL     1      40.861 -13.132   5.212  1.00  0.00     0.236 A 
HETATM    4  N   UNL     1      41.781 -13.908   5.776  1.00  0.00    -0.234 NA
HETATM    5  C   UNL     1      41.899 -15.093   5.159  1.00  0.00     0.114 A 
HETATM    6  C   UNL     1      41.187 -15.539   4.053  1.00  0.00     0.053 A 
HETATM    7  S   UNL     1      42.998 -16.239   5.755  1.00  0.00    -0.073 SA
HETATM    8  C   UNL     1      42.610 -17.355   4.529  1.00  0.00    -0.008 C 
HETATM    9  C   UNL     1      41.685 -16.849   3.626  1.00  0.00    -0.028 C 
HETATM   10  C   UNL     1      41.289 -17.596   2.379  1.00  0.00     0.041 C 
HETATM   11  C   UNL     1      42.479 -17.992   1.497  1.00  0.00     0.005 C 
HETATM   12  C   UNL     1      43.279 -19.192   2.004  1.00  0.00     0.001 C 
HETATM   13  C   UNL     1      44.113 -18.923   3.258  1.00  0.00     0.005 C 
HETATM   14  C   UNL     1      43.277 -18.699   4.516  1.00  0.00     0.047 C 
ENDROOT
BRANCH   1  15
HETATM   15  N   UNL     1      39.257 -15.026   2.588  1.00  0.00    -0.340 N 
HETATM   16  H   UNL     1      38.384 -15.331   2.993  1.00  0.00     0.167 HD
BRANCH  15  17
HETATM   17  C   UNL     1      39.136 -14.643   1.238  1.00  0.00     0.036 A 
HETATM   18  C   UNL     1      37.960 -14.122   0.685  1.00  0.00     0.032 A 
HETATM   19  C   UNL     1      37.900 -13.729  -0.658  1.00  0.00     0.042 A 
HETATM   20  C   UNL     1      39.028 -13.832  -1.464  1.00  0.00     0.102 A 
HETATM   21  C   UNL     1      40.211 -14.348  -0.931  1.00  0.00     0.104 A 
HETATM   22  O   UNL     1      38.905 -13.416  -2.763  1.00  0.00    -0.346 OA
HETATM   23  C   UNL     1      40.269 -14.726   0.411  1.00  0.00     0.069 A 
HETATM   24  O   UNL     1      41.360 -14.505  -1.666  1.00  0.00    -0.346 OA
HETATM   25  C   UNL     1      41.090 -14.432  -3.071  1.00  0.00     0.202 C 
HETATM   26  C   UNL     1      40.185 -13.251  -3.382  1.00  0.00     0.202 C 
ENDBRANCH  15  17
ENDBRANCH   1  15
TORSDOF 2
ENDMDL
MODEL 7
REMARK VINA RESULT:      -8.0      3.247      5.083
REMARK  2 active torsions:
REMARK  status: ('A' for Active; 'I' for Inactive)
REMARK    1  A    between atoms: C_2  and  N_3 
REMARK    2  A    between atoms: N_3  and  C_4 
ROOT
HETATM    1  C   UNL     1      42.985 -15.887   2.986  1.00  0.00     0.143 A 
HETATM    2  N   UNL     1      42.571 -15.620   1.723  1.00  0.00    -0.223 NA
HETATM    3  C   UNL     1      42.648 -16.567   0.783  1.00  0.00     0.236 A 
HETATM    4  N   UNL     1      43.115 -17.802   0.926  1.00  0.00    -0.234 NA
HETATM    5  C   UNL     1      43.493 -18.064   2.186  1.00  0.00     0.114 A 
HETATM    6  C   UNL     1      43.435 -17.205   3.277  1.00  0.00     0.053 A 
HETATM    7  S   UNL     1      44.153 -19.581   2.563  1.00  0.00    -0.073 SA
HETATM    8  C   UNL     1      44.335 -19.174   4.207  1.00  0.00    -0.008 C 
HETATM    9  C   UNL     1      43.848 -17.906   4.495  1.00  0.00    -0.028 C 
HETATM   10  C   UNL     1      43.773 -17.377   5.904  1.00  0.00     0.041 C 
HETATM   11  C   UNL     1      42.999 -18.290   6.861  1.00  0.00     0.005 C 
HETATM   12  C   UNL     1      43.769 -19.525   7.329  1.00  0.00     0.001 C 
HETATM   13  C   UNL     1      43.984 -20.592   6.255  1.00  0.00     0.005 C 
HETATM   14  C   UNL     1      44.948 -20.167   5.149  1.00  0.00     0.047 C 
ENDROOT
BRANCH   1  15
HETATM   15  N   UNL     1      43.037 -14.853   3.938  1.00  0.00    -0.340 N 
HETATM   16  H   UNL     1      43.883 -14.309   3.846  1.00  0.00     0.167 HD
BRANCH  15  17
HETATM   17  C   UNL     1      42.016 -14.170   4.628  1.00  0.00     0.036 A 
HETATM   18  C   UNL     1      40.674 -14.570   4.617  1.00  0.00     0.032 A 
HETATM   19  C   UNL     1      39.701 -13.873   5.344  1.00  0.00     0.042 A 
HETATM   20  C   UNL     1      40.063 -12.773   6.113  1.00  0.00     0.102 A 
HETATM   21  C   UNL     1      41.396 -12.358   6.138  1.00  0.00     0.104 A 
HETATM   22  O   UNL     1      39.065 -12.146   6.810  1.00  0.00    -0.346 OA
HETATM   23  C   UNL     1      42.364 -13.064   5.423  1.00  0.00     0.069 A 
HETATM   24  O   UNL     1      41.829 -11.269   6.852  1.00  0.00    -0.346 OA
HETATM   25  C   UNL     1      40.733 -10.432   7.239  1.00  0.00     0.202 C 
HETATM   26  C   UNL     1      39.597 -11.267   7.808  1.00  0.00     0.202 C 
ENDBRANCH  15  17
ENDBRANCH   1  15
TORSDOF 2
ENDMDL
MODEL 8
REMARK VINA RESULT:      -8.0      3.675      7.023
REMARK  2 active torsions:
REMARK  status: ('A' for Active; 'I' for Inactive)
REMARK    1  A    between atoms: C_2  and  N_3 
REMARK    2  A    between atoms: N_3  and  C_4 
ROOT
HETATM    1  C   UNL     1      40.344 -15.015   2.340  1.00  0.00     0.143 A 
HETATM    2  N   UNL     1      39.834 -14.509   3.490  1.00  0.00    -0.223 NA
HETATM    3  C   UNL     1      39.847 -13.190   3.701  1.00  0.00     0.236 A 
HETATM    4  N   UNL     1      40.333 -12.254   2.893  1.00  0.00    -0.234 NA
HETATM    5  C   UNL     1      40.806 -12.763   1.745  1.00  0.00     0.114 A 
HETATM    6  C   UNL     1      40.823 -14.098   1.363  1.00  0.00     0.053 A 
HETATM    7  S   UNL     1      41.502 -11.728   0.596  1.00  0.00    -0.073 SA
HETATM    8  C   UNL     1      41.804 -13.010  -0.483  1.00  0.00    -0.008 C 
HETATM    9  C   UNL     1      41.331 -14.226  -0.006  1.00  0.00    -0.028 C 
HETATM   10  C   UNL     1      41.357 -15.480  -0.840  1.00  0.00     0.041 C 
HETATM   11  C   UNL     1      40.663 -15.328  -2.198  1.00  0.00     0.005 C 
HETATM   12  C   UNL     1      41.475 -14.570  -3.249  1.00  0.00     0.001 C 
HETATM   13  C   UNL     1      41.616 -13.070  -2.991  1.00  0.00     0.005 C 
HETATM   14  C   UNL     1      42.492 -12.732  -1.787  1.00  0.00     0.047 C 
ENDROOT
BRANCH   1  15
HETATM   15  N   UNL     1      40.459 -16.407   2.178  1.00  0.00    -0.340 N 
HETATM   16  H   UNL     1      39.916 -16.733   1.392  1.00  0.00     0.167 HD
BRANCH  15  17
HETATM   17  C   UNL     1      41.474 -17.308   2.559  1.00  0.00     0.036 A 
HETATM   18  C   UNL     1      42.280 -17.997   1.645  1.00  0.00     0.032 A 
HETATM   19  C   UNL     1      43.295 -18.859   2.075  1.00  0.00     0.042 A 
HETATM   20  C   UNL     1      43.533 -19.030   3.434  1.00  0.00     0.102 A 
HETATM   21  C   UNL     1      42.741 -18.351   4.363  1.00  0.00     0.104 A 
HETATM   22  O   UNL     1      44.550 -19.876   3.786  1.00  0.00    -0.346 OA
HETATM   23  C   UNL     1      41.739 -17.482   3.928  1.00  0.00     0.069 A 
HETATM   24  O   UNL     1      42.896 -18.484   5.720  1.00  0.00    -0.346 OA
HETATM   25  C   UNL     1      43.680 -19.639   6.042  1.00  0.00     0.202 C 
HETATM   26  C   UNL     1      44.916 -19.710   5.161  1.00  0.00     0.202 C 
ENDBRANCH  15  17
ENDBRANCH   1  15
TORSDOF 2
ENDMDL
MODEL 9
REMARK VINA RESULT:      -7.8      1.887      2.277
REMARK  2 active torsions:
REMARK  status: ('A' for Active; 'I' for Inactive)
REMARK    1  A    between atoms: C_2  and  N_3 
REMARK    2  A    between atoms: N_3  and  C_4 
ROOT
HETATM    1  C   UNL     1      40.283 -14.985   3.105  1.00  0.00     0.143 A 
HETATM    2  N   UNL     1      39.788 -13.910   3.766  1.00  0.00    -0.223 NA
HETATM    3  C   UNL     1      39.961 -13.803   5.087  1.00  0.00     0.236 A 
HETATM    4  N   UNL     1      40.575 -14.668   5.888  1.00  0.00    -0.234 NA
HETATM    5  C   UNL     1      41.086 -15.712   5.218  1.00  0.00     0.114 A 
HETATM    6  C   UNL     1      41.029 -15.941   3.849  1.00  0.00     0.053 A 
HETATM    7  S   UNL     1      41.879 -16.944   6.072  1.00  0.00    -0.073 SA
HETATM    8  C   UNL     1      42.228 -17.806   4.645  1.00  0.00    -0.008 C 
HETATM    9  C   UNL     1      41.795 -17.142   3.505  1.00  0.00    -0.028 C 
HETATM   10  C   UNL     1      42.111 -17.638   2.118  1.00  0.00     0.041 C 
HETATM   11  C   UNL     1      43.609 -17.849   1.869  1.00  0.00     0.005 C 
HETATM   12  C   UNL     1      44.187 -19.120   2.493  1.00  0.00     0.001 C 
HETATM   13  C   UNL     1      44.298 -19.092   4.017  1.00  0.00     0.005 C 
HETATM   14  C   UNL     1      42.949 -19.119   4.733  1.00  0.00     0.047 C 
ENDROOT
BRANCH   1  15
HETATM   15  N   UNL     1      39.981 -15.168   1.743  1.00  0.00    -0.340 N 
HETATM   16  H   UNL     1      39.003 -15.378   1.608  1.00  0.00     0.167 HD
BRANCH  15  17
HETATM   17  C   UNL     1      40.609 -14.685   0.578  1.00  0.00     0.036 A 
HETATM   18  C   UNL     1      40.707 -15.420  -0.609  1.00  0.00     0.032 A 
HETATM   19  C   UNL     1      41.316 -14.883  -1.750  1.00  0.00     0.042 A 
HETATM   20  C   UNL     1      41.820 -13.587  -1.724  1.00  0.00     0.102 A 
HETATM   21  C   UNL     1      41.731 -12.837  -0.550  1.00  0.00     0.104 A 
HETATM   22  O   UNL     1      42.389 -13.118  -2.878  1.00  0.00    -0.346 OA
HETATM   23  C   UNL     1      41.111 -13.372   0.580  1.00  0.00     0.069 A 
HETATM   24  O   UNL     1      42.224 -11.561  -0.436  1.00  0.00    -0.346 OA
HETATM   25  C   UNL     1      43.132 -11.258  -1.502  1.00  0.00     0.202 C 
HETATM   26  C   UNL     1      42.554 -11.696  -2.838  1.00  0.00     0.202 C 
ENDBRANCH  15  17
ENDBRANCH   1  15
TORSDOF 2
ENDMDL
MODEL 10
REMARK VINA RESULT:      -7.8      2.072      3.825
REMARK  2 active torsions:
REMARK  status: ('A' for Active; 'I' for Inactive)
REMARK    1  A    between atoms: C_2  and  N_3 
REMARK    2  A    between atoms: N_3  and  C_4 
ROOT
HETATM    1  C   UNL     1      42.459 -18.218   2.698  1.00  0.00     0.143 A 
HETATM    2  N   UNL     1      42.422 -19.082   1.655  1.00  0.00    -0.223 NA
HETATM    3  C   UNL     1      43.216 -20.157   1.652  1.00  0.00     0.236 A 
HETATM    4  N   UNL     1      44.098 -20.504   2.583  1.00  0.00    -0.234 NA
HETATM    5  C   UNL     1      44.104 -19.658   3.623  1.00  0.00     0.114 A 
HETATM    6  C   UNL     1      43.313 -18.529   3.793  1.00  0.00     0.053 A 
HETATM    7  S   UNL     1      45.191 -19.913   4.901  1.00  0.00    -0.073 SA
HETATM    8  C   UNL     1      44.612 -18.560   5.758  1.00  0.00    -0.008 C 
HETATM    9  C   UNL     1      43.554 -17.936   5.111  1.00  0.00    -0.028 C 
HETATM   10  C   UNL     1      42.786 -16.802   5.739  1.00  0.00     0.041 C 
HETATM   11  C   UNL     1      42.218 -17.138   7.122  1.00  0.00     0.005 C 
HETATM   12  C   UNL     1      43.243 -17.117   8.256  1.00  0.00     0.001 C 
HETATM   13  C   UNL     1      44.250 -18.267   8.231  1.00  0.00     0.005 C 
HETATM   14  C   UNL     1      45.240 -18.193   7.070  1.00  0.00     0.047 C 
ENDROOT
BRANCH   1  15
HETATM   15  N   UNL     1      41.729 -17.016   2.638  1.00  0.00    -0.340 N 
HETATM   16  H   UNL     1      41.489 -16.685   3.561  1.00  0.00     0.167 HD
BRANCH  15  17
HETATM   17  C   UNL     1      41.680 -16.005   1.658  1.00  0.00     0.036 A 
HETATM   18  C   UNL     1      41.971 -14.661   1.918  1.00  0.00     0.032 A 
HETATM   19  C   UNL     1      41.935 -13.699   0.902  1.00  0.00     0.042 A 
HETATM   20  C   UNL     1      41.626 -14.074  -0.401  1.00  0.00     0.102 A 
HETATM   21  C   UNL     1      41.333 -15.410  -0.682  1.00  0.00     0.104 A 
HETATM   22  O   UNL     1      41.624 -13.086  -1.349  1.00  0.00    -0.346 OA
HETATM   23  C   UNL     1      41.383 -16.367   0.333  1.00  0.00     0.069 A 
HETATM   24  O   UNL     1      40.995 -15.857  -1.935  1.00  0.00    -0.346 OA
HETATM   25  C   UNL     1      40.629 -14.769  -2.792  1.00  0.00     0.202 C 
HETATM   26  C   UNL     1      41.631 -13.632  -2.673  1.00  0.00     0.202 C 
ENDBRANCH  15  17
ENDBRANCH   1  15
TORSDOF 2
ENDMDL
