MODEL 1
REMARK VINA RESULT:      -9.1      0.000      0.000
REMARK  7 active torsions:
REMARK  status: ('A' for Active; 'I' for Inactive)
REMARK    1  A    between atoms: C_5  and  O_6 
REMARK    2  A    between atoms: O_6  and  C_7 
REMARK    3  A    between atoms: C_7  and  C_8 
REMARK       I    between atoms: C_8  and  N_9 
REMARK    4  A    between atoms: N_9  and  C_10 
REMARK    5  A    between atoms: C_13  and  N_14 
REMARK    6  A    between atoms: N_17  and  C_19 
REMARK    7  A    between atoms: C_19  and  C_20 
ROOT
HETATM    1  C   UNL     1      41.257 -14.445   4.525  1.00  0.00     0.034 A 
HETATM    2  C   UNL     1      40.004 -14.203   5.082  1.00  0.00     0.032 A 
HETATM    3  C   UNL     1      39.795 -13.119   5.941  1.00  0.00     0.031 A 
HETATM    4  C   UNL     1      40.818 -12.223   6.279  1.00  0.00     0.030 A 
HETATM    5  C   UNL     1      42.076 -12.477   5.717  1.00  0.00     0.031 A 
HETATM    6  C   UNL     1      42.296 -13.571   4.854  1.00  0.00     0.032 A 
ENDROOT
BRANCH   1   7
HETATM    7  N   UNL     1      41.533 -15.549   3.688  1.00  0.00    -0.325 N 
HETATM    8  C   UNL     1      41.932 -16.809   4.100  1.00  0.00     0.246 C 
HETATM    9  O   UNL     1      42.002 -17.201   5.264  1.00  0.00    -0.271 OA
HETATM   10  H   UNL     1      41.408 -15.434   2.687  1.00  0.00     0.169 HD
BRANCH   8  11
HETATM   11  C   UNL     1      42.385 -17.734   2.970  1.00  0.00     0.278 C 
BRANCH  11  12
HETATM   12  O   UNL     1      43.737 -18.167   3.041  1.00  0.00    -0.342 OA
BRANCH  12  13
HETATM   13  C   UNL     1      43.915 -19.534   2.956  1.00  0.00     0.075 A 
HETATM   14  C   UNL     1      44.419 -20.186   4.101  1.00  0.00    -0.023 A 
HETATM   15  C   UNL     1      44.700 -21.574   4.042  1.00  0.00    -0.053 A 
HETATM   16  C   UNL     1      44.719 -19.409   5.358  1.00  0.00     0.052 C 
HETATM   17  C   UNL     1      45.277 -22.331   5.210  1.00  0.00     0.049 C 
HETATM   18  C   UNL     1      44.394 -22.295   2.879  1.00  0.00     0.007 A 
HETATM   19  C   UNL     1      43.850 -21.656   1.772  1.00  0.00     0.003 A 
HETATM   20  C   UNL     1      43.615 -20.284   1.809  1.00  0.00     0.037 A 
ENDBRANCH  12  13
ENDBRANCH  11  12
ENDBRANCH   8  11
ENDBRANCH   1   7
BRANCH   4  21
HETATM   21  N   UNL     1      40.561 -11.192   7.177  1.00  0.00    -0.378 N 
HETATM   22  C   UNL     1      40.817  -9.790   6.827  1.00  0.00     0.150 C 
HETATM   23  C   UNL     1      41.173  -8.994   8.107  1.00  0.00     0.255 C 
HETATM   24  N   UNL     1      40.121  -9.181   9.207  1.00  0.00    -0.064 N 
HETATM   25  H   UNL     1      39.255  -8.745   8.869  1.00  0.00     0.280 HD
HETATM   26  C   UNL     1      39.832 -10.660   9.462  1.00  0.00     0.255 C 
HETATM   27  C   UNL     1      39.475 -11.390   8.154  1.00  0.00     0.150 C 
BRANCH  24  28
HETATM   28  C   UNL     1      40.502  -8.490  10.496  1.00  0.00     0.273 C 
BRANCH  28  29
HETATM   29  C   UNL     1      41.342  -9.339  11.408  1.00  0.00    -0.033 A 
HETATM   30  C   UNL     1      42.719  -9.485  11.176  1.00  0.00     0.009 A 
HETATM   31  C   UNL     1      43.495 -10.279  12.022  1.00  0.00     0.001 A 
HETATM   32  C   UNL     1      42.906 -10.934  13.101  1.00  0.00     0.000 A 
HETATM   33  C   UNL     1      41.541 -10.795  13.341  1.00  0.00     0.001 A 
HETATM   34  C   UNL     1      40.761 -10.001  12.500  1.00  0.00     0.009 A 
ENDBRANCH  28  29
ENDBRANCH  24  28
ENDBRANCH   4  21
TORSDOF 7
ENDMDL
MODEL 2
REMARK VINA RESULT:      -8.5      6.453      9.414
REMARK  7 active torsions:
REMARK  status: ('A' for Active; 'I' for Inactive)
REMARK    1  A    between atoms: C_5  and  O_6 
REMARK    2  A    between atoms: O_6  and  C_7 
REMARK    3  A    between atoms: C_7  and  C_8 
REMARK       I    between atoms: C_8  and  N_9 
REMARK    4  A    between atoms: N_9  and  C_10 
REMARK    5  A    between atoms: C_13  and  N_14 
REMARK    6  A    between atoms: N_17  and  C_19 
REMARK    7  A    between atoms: C_19  and  C_20 
ROOT
HETATM    1  C   UNL     1      41.179 -16.567   1.989  1.00  0.00     0.034 A 
HETATM    2  C   UNL     1      40.165 -15.618   2.070  1.00  0.00     0.032 A 
HETATM    3  C   UNL     1      39.744 -14.914   0.936  1.00  0.00     0.031 A 
HETATM    4  C   UNL     1      40.307 -15.128  -0.329  1.00  0.00     0.030 A 
HETATM    5  C   UNL     1      41.330 -16.083  -0.400  1.00  0.00     0.031 A 
HETATM    6  C   UNL     1      41.762 -16.792   0.740  1.00  0.00     0.032 A 
ENDROOT
BRANCH   1   7
HETATM    7  N   UNL     1      41.671 -17.273   3.109  1.00  0.00    -0.325 N 
HETATM    8  C   UNL     1      42.531 -16.780   4.075  1.00  0.00     0.246 C 
HETATM    9  O   UNL     1      42.916 -15.615   4.173  1.00  0.00    -0.271 OA
HETATM   10  H   UNL     1      41.355 -18.228   3.250  1.00  0.00     0.169 HD
BRANCH   8  11
HETATM   11  C   UNL     1      43.080 -17.833   5.038  1.00  0.00     0.278 C 
BRANCH  11  12
HETATM   12  O   UNL     1      44.381 -18.319   4.733  1.00  0.00    -0.342 OA
BRANCH  12  13
HETATM   13  C   UNL     1      44.458 -19.682   4.527  1.00  0.00     0.075 A 
HETATM   14  C   UNL     1      44.406 -20.131   3.190  1.00  0.00    -0.023 A 
HETATM   15  C   UNL     1      44.397 -21.524   2.925  1.00  0.00    -0.053 A 
HETATM   16  C   UNL     1      44.297 -19.148   2.053  1.00  0.00     0.052 C 
HETATM   17  C   UNL     1      44.304 -22.080   1.529  1.00  0.00     0.049 C 
HETATM   18  C   UNL     1      44.526 -22.433   3.986  1.00  0.00     0.007 A 
HETATM   19  C   UNL     1      44.628 -21.983   5.296  1.00  0.00     0.003 A 
HETATM   20  C   UNL     1      44.591 -20.616   5.565  1.00  0.00     0.037 A 
ENDBRANCH  12  13
ENDBRANCH  11  12
ENDBRANCH   8  11
ENDBRANCH   1   7
BRANCH   4  21
HETATM   21  N   UNL     1      39.882 -14.362  -1.410  1.00  0.00    -0.378 N 
HETATM   22  C   UNL     1      40.409 -14.587  -2.761  1.00  0.00     0.150 C 
HETATM   23  C   UNL     1      40.394 -13.254  -3.550  1.00  0.00     0.255 C 
HETATM   24  N   UNL     1      39.013 -12.588  -3.522  1.00  0.00    -0.064 N 
HETATM   25  H   UNL     1      38.376 -13.201  -4.044  1.00  0.00     0.280 HD
HETATM   26  C   UNL     1      38.478 -12.466  -2.095  1.00  0.00     0.255 C 
HETATM   27  C   UNL     1      38.510 -13.824  -1.371  1.00  0.00     0.150 C 
BRANCH  24  28
HETATM   28  C   UNL     1      39.006 -11.240  -4.203  1.00  0.00     0.273 C 
BRANCH  28  29
HETATM   29  C   UNL     1      40.278 -10.464  -4.015  1.00  0.00    -0.033 A 
HETATM   30  C   UNL     1      40.503  -9.742  -2.833  1.00  0.00     0.009 A 
HETATM   31  C   UNL     1      41.685  -9.017  -2.665  1.00  0.00     0.001 A 
HETATM   32  C   UNL     1      42.647  -9.006  -3.672  1.00  0.00     0.000 A 
HETATM   33  C   UNL     1      42.434  -9.720  -4.849  1.00  0.00     0.001 A 
HETATM   34  C   UNL     1      41.256 -10.447  -5.021  1.00  0.00     0.009 A 
ENDBRANCH  28  29
ENDBRANCH  24  28
ENDBRANCH   4  21
TORSDOF 7
ENDMDL
MODEL 3
REMARK VINA RESULT:      -8.5      1.171      2.040
REMARK  7 active torsions:
REMARK  status: ('A' for Active; 'I' for Inactive)
REMARK    1  A    between atoms: C_5  and  O_6 
REMARK    2  A    between atoms: O_6  and  C_7 
REMARK    3  A    between atoms: C_7  and  C_8 
REMARK       I    between atoms: C_8  and  N_9 
REMARK    4  A    between atoms: N_9  and  C_10 
REMARK    5  A    between atoms: C_13  and  N_14 
REMARK    6  A    between atoms: N_17  and  C_19 
REMARK    7  A    between atoms: C_19  and  C_20 
ROOT
HETATM    1  C   UNL     1      40.878 -13.634   5.454  1.00  0.00     0.034 A 
HETATM    2  C   UNL     1      39.646 -13.350   6.036  1.00  0.00     0.032 A 
HETATM    3  C   UNL     1      39.487 -12.248   6.884  1.00  0.00     0.031 A 
HETATM    4  C   UNL     1      40.542 -11.377   7.186  1.00  0.00     0.030 A 
HETATM    5  C   UNL     1      41.779 -11.674   6.598  1.00  0.00     0.031 A 
HETATM    6  C   UNL     1      41.948 -12.785   5.746  1.00  0.00     0.032 A 
ENDROOT
BRANCH   1   7
HETATM    7  N   UNL     1      41.103 -14.757   4.627  1.00  0.00    -0.325 N 
HETATM    8  C   UNL     1      41.605 -15.983   5.028  1.00  0.00     0.246 C 
HETATM    9  O   UNL     1      41.830 -16.327   6.188  1.00  0.00    -0.271 OA
HETATM   10  H   UNL     1      40.857 -14.685   3.644  1.00  0.00     0.169 HD
BRANCH   8  11
HETATM   11  C   UNL     1      41.963 -16.931   3.883  1.00  0.00     0.278 C 
BRANCH  11  12
HETATM   12  O   UNL     1      43.354 -17.101   3.645  1.00  0.00    -0.342 OA
BRANCH  12  13
HETATM   13  C   UNL     1      43.822 -18.387   3.828  1.00  0.00     0.075 A 
HETATM   14  C   UNL     1      43.844 -19.227   2.695  1.00  0.00    -0.023 A 
HETATM   15  C   UNL     1      44.235 -20.582   2.843  1.00  0.00    -0.053 A 
HETATM   16  C   UNL     1      43.394 -18.715   1.350  1.00  0.00     0.052 C 
HETATM   17  C   UNL     1      44.246 -21.550   1.689  1.00  0.00     0.049 C 
HETATM   18  C   UNL     1      44.677 -21.044   4.092  1.00  0.00     0.007 A 
HETATM   19  C   UNL     1      44.703 -20.197   5.192  1.00  0.00     0.003 A 
HETATM   20  C   UNL     1      44.275 -18.878   5.062  1.00  0.00     0.037 A 
ENDBRANCH  12  13
ENDBRANCH  11  12
ENDBRANCH   8  11
ENDBRANCH   1   7
BRANCH   4  21
HETATM   21  N   UNL     1      40.336 -10.328   8.075  1.00  0.00    -0.378 N 
HETATM   22  C   UNL     1      41.152  -9.109   8.022  1.00  0.00     0.150 C 
HETATM   23  C   UNL     1      41.262  -8.499   9.442  1.00  0.00     0.255 C 
HETATM   24  N   UNL     1      39.886  -8.302  10.089  1.00  0.00    -0.064 N 
HETATM   25  H   UNL     1      39.399  -7.583   9.540  1.00  0.00     0.280 HD
HETATM   26  C   UNL     1      39.050  -9.580  10.030  1.00  0.00     0.255 C 
HETATM   27  C   UNL     1      38.971 -10.127   8.593  1.00  0.00     0.150 C 
BRANCH  24  28
HETATM   28  C   UNL     1      39.980  -7.800  11.510  1.00  0.00     0.273 C 
BRANCH  28  29
HETATM   29  C   UNL     1      40.910  -8.606  12.372  1.00  0.00    -0.033 A 
HETATM   30  C   UNL     1      40.469  -9.792  12.980  1.00  0.00     0.009 A 
HETATM   31  C   UNL     1      41.334 -10.535  13.785  1.00  0.00     0.001 A 
HETATM   32  C   UNL     1      42.642 -10.101  13.992  1.00  0.00     0.000 A 
HETATM   33  C   UNL     1      43.090  -8.927  13.393  1.00  0.00     0.001 A 
HETATM   34  C   UNL     1      42.230  -8.181  12.586  1.00  0.00     0.009 A 
ENDBRANCH  28  29
ENDBRANCH  24  28
ENDBRANCH   4  21
TORSDOF 7
ENDMDL
MODEL 4
REMARK VINA RESULT:      -8.5      2.751     11.271
REMARK  7 active torsions:
REMARK  status: ('A' for Active; 'I' for Inactive)
REMARK    1  A    between atoms: C_5  and  O_6 
REMARK    2  A    between atoms: O_6  and  C_7 
REMARK    3  A    between atoms: C_7  and  C_8 
REMARK       I    between atoms: C_8  and  N_9 
REMARK    4  A    between atoms: N_9  and  C_10 
REMARK    5  A    between atoms: C_13  and  N_14 
REMARK    6  A    between atoms: N_17  and  C_19 
REMARK    7  A    between atoms: C_19  and  C_20 
ROOT
HETATM    1  C   UNL     1      40.051 -11.613   6.568  1.00  0.00     0.034 A 
HETATM    2  C   UNL     1      41.431 -11.734   6.436  1.00  0.00     0.032 A 
HETATM    3  C   UNL     1      42.000 -12.853   5.818  1.00  0.00     0.031 A 
HETATM    4  C   UNL     1      41.224 -13.896   5.296  1.00  0.00     0.030 A 
HETATM    5  C   UNL     1      39.836 -13.767   5.438  1.00  0.00     0.031 A 
HETATM    6  C   UNL     1      39.255 -12.645   6.065  1.00  0.00     0.032 A 
ENDROOT
BRANCH   1   7
HETATM    7  N   UNL     1      39.427 -10.527   7.223  1.00  0.00    -0.325 N 
HETATM    8  C   UNL     1      39.360  -9.223   6.763  1.00  0.00     0.246 C 
HETATM    9  O   UNL     1      39.734  -8.825   5.661  1.00  0.00    -0.271 OA
HETATM   10  H   UNL     1      38.957 -10.706   8.105  1.00  0.00     0.169 HD
BRANCH   8  11
HETATM   11  C   UNL     1      38.832  -8.214   7.784  1.00  0.00     0.278 C 
BRANCH  11  12
HETATM   12  O   UNL     1      39.711  -7.922   8.862  1.00  0.00    -0.342 OA
BRANCH  12  13
HETATM   13  C   UNL     1      39.336  -8.457  10.078  1.00  0.00     0.075 A 
HETATM   14  C   UNL     1      40.213  -9.396  10.662  1.00  0.00    -0.023 A 
HETATM   15  C   UNL     1      39.839 -10.040  11.868  1.00  0.00    -0.053 A 
HETATM   16  C   UNL     1      41.507  -9.765   9.981  1.00  0.00     0.052 C 
HETATM   17  C   UNL     1      40.703 -11.081  12.529  1.00  0.00     0.049 C 
HETATM   18  C   UNL     1      38.646  -9.673  12.509  1.00  0.00     0.007 A 
HETATM   19  C   UNL     1      37.812  -8.710  11.956  1.00  0.00     0.003 A 
HETATM   20  C   UNL     1      38.153  -8.108  10.746  1.00  0.00     0.037 A 
ENDBRANCH  12  13
ENDBRANCH  11  12
ENDBRANCH   8  11
ENDBRANCH   1   7
BRANCH   4  21
HETATM   21  N   UNL     1      41.848 -15.006   4.737  1.00  0.00    -0.378 N 
HETATM   22  C   UNL     1      43.242 -14.950   4.279  1.00  0.00     0.150 C 
HETATM   23  C   UNL     1      43.440 -15.939   3.104  1.00  0.00     0.255 C 
HETATM   24  N   UNL     1      42.955 -17.351   3.457  1.00  0.00    -0.064 N 
HETATM   25  H   UNL     1      43.576 -17.703   4.195  1.00  0.00     0.280 HD
HETATM   26  C   UNL     1      41.532 -17.332   4.014  1.00  0.00     0.255 C 
HETATM   27  C   UNL     1      41.405 -16.338   5.183  1.00  0.00     0.150 C 
BRANCH  24  28
HETATM   28  C   UNL     1      43.050 -18.305   2.290  1.00  0.00     0.273 C 
BRANCH  28  29
HETATM   29  C   UNL     1      43.633 -19.641   2.651  1.00  0.00    -0.033 A 
HETATM   30  C   UNL     1      43.521 -20.729   1.771  1.00  0.00     0.009 A 
HETATM   31  C   UNL     1      44.059 -21.970   2.113  1.00  0.00     0.001 A 
HETATM   32  C   UNL     1      44.710 -22.138   3.333  1.00  0.00     0.000 A 
HETATM   33  C   UNL     1      44.829 -21.066   4.213  1.00  0.00     0.001 A 
HETATM   34  C   UNL     1      44.294 -19.822   3.876  1.00  0.00     0.009 A 
ENDBRANCH  28  29
ENDBRANCH  24  28
ENDBRANCH   4  21
TORSDOF 7
ENDMDL
MODEL 5
REMARK VINA RESULT:      -8.5      6.767     12.104
REMARK  7 active torsions:
REMARK  status: ('A' for Active; 'I' for Inactive)
REMARK    1  A    between atoms: C_5  and  O_6 
REMARK    2  A    between atoms: O_6  and  C_7 
REMARK    3  A    between atoms: C_7  and  C_8 
REMARK       I    between atoms: C_8  and  N_9 
REMARK    4  A    between atoms: N_9  and  C_10 
REMARK    5  A    between atoms: C_13  and  N_14 
REMARK    6  A    between atoms: N_17  and  C_19 
REMARK    7  A    between atoms: C_19  and  C_20 
ROOT
HETATM    1  C   UNL     1      38.101 -12.483   0.522  1.00  0.00     0.034 A 
HETATM    2  C   UNL     1      39.478 -12.414   0.330  1.00  0.00     0.032 A 
HETATM    3  C   UNL     1      40.303 -13.504   0.629  1.00  0.00     0.031 A 
HETATM    4  C   UNL     1      39.796 -14.713   1.124  1.00  0.00     0.030 A 
HETATM    5  C   UNL     1      38.410 -14.771   1.318  1.00  0.00     0.031 A 
HETATM    6  C   UNL     1      37.573 -13.675   1.024  1.00  0.00     0.032 A 
ENDROOT
BRANCH   1   7
HETATM    7  N   UNL     1      37.230 -11.398   0.279  1.00  0.00    -0.325 N 
HETATM    8  C   UNL     1      36.939 -10.368   1.158  1.00  0.00     0.246 C 
HETATM    9  O   UNL     1      37.478 -10.173   2.246  1.00  0.00    -0.271 OA
HETATM   10  H   UNL     1      36.783 -11.338  -0.631  1.00  0.00     0.169 HD
BRANCH   8  11
HETATM   11  C   UNL     1      35.787  -9.463   0.719  1.00  0.00     0.278 C 
BRANCH  11  12
HETATM   12  O   UNL     1      35.160  -8.727   1.761  1.00  0.00    -0.342 OA
BRANCH  12  13
HETATM   13  C   UNL     1      34.095  -9.366   2.365  1.00  0.00     0.075 A 
HETATM   14  C   UNL     1      33.818  -9.020   3.704  1.00  0.00    -0.023 A 
HETATM   15  C   UNL     1      32.790  -9.705   4.399  1.00  0.00    -0.053 A 
HETATM   16  C   UNL     1      34.644  -7.979   4.416  1.00  0.00     0.052 C 
HETATM   17  C   UNL     1      32.461  -9.419   5.841  1.00  0.00     0.049 C 
HETATM   18  C   UNL     1      32.008 -10.653   3.723  1.00  0.00     0.007 A 
HETATM   19  C   UNL     1      32.253 -10.952   2.389  1.00  0.00     0.003 A 
HETATM   20  C   UNL     1      33.292 -10.315   1.715  1.00  0.00     0.037 A 
ENDBRANCH  12  13
ENDBRANCH  11  12
ENDBRANCH   8  11
ENDBRANCH   1   7
BRANCH   4  21
HETATM   21  N   UNL     1      40.671 -15.744   1.449  1.00  0.00    -0.378 N 
HETATM   22  C   UNL     1      40.423 -16.624   2.598  1.00  0.00     0.150 C 
HETATM   23  C   UNL     1      41.774 -17.119   3.170  1.00  0.00     0.255 C 
HETATM   24  N   UNL     1      42.660 -17.744   2.085  1.00  0.00    -0.064 N 
HETATM   25  H   UNL     1      42.187 -18.599   1.771  1.00  0.00     0.280 HD
HETATM   26  C   UNL     1      42.804 -16.819   0.878  1.00  0.00     0.255 C 
HETATM   27  C   UNL     1      41.428 -16.372   0.352  1.00  0.00     0.150 C 
BRANCH  24  28
HETATM   28  C   UNL     1      44.020 -18.144   2.607  1.00  0.00     0.273 C 
BRANCH  28  29
HETATM   29  C   UNL     1      44.176 -19.624   2.810  1.00  0.00    -0.033 A 
HETATM   30  C   UNL     1      43.817 -20.523   1.793  1.00  0.00     0.009 A 
HETATM   31  C   UNL     1      43.958 -21.898   1.987  1.00  0.00     0.001 A 
HETATM   32  C   UNL     1      44.453 -22.387   3.194  1.00  0.00     0.000 A 
HETATM   33  C   UNL     1      44.813 -21.504   4.209  1.00  0.00     0.001 A 
HETATM   34  C   UNL     1      44.676 -20.129   4.019  1.00  0.00     0.009 A 
ENDBRANCH  28  29
ENDBRANCH  24  28
ENDBRANCH   4  21
TORSDOF 7
ENDMDL
MODEL 6
REMARK VINA RESULT:      -8.5      2.658     11.254
REMARK  7 active torsions:
REMARK  status: ('A' for Active; 'I' for Inactive)
REMARK    1  A    between atoms: C_5  and  O_6 
REMARK    2  A    between atoms: O_6  and  C_7 
REMARK    3  A    between atoms: C_7  and  C_8 
REMARK       I    between atoms: C_8  and  N_9 
REMARK    4  A    between atoms: N_9  and  C_10 
REMARK    5  A    between atoms: C_13  and  N_14 
REMARK    6  A    between atoms: N_17  and  C_19 
REMARK    7  A    between atoms: C_19  and  C_20 
ROOT
HETATM    1  C   UNL     1      40.327 -11.562   6.806  1.00  0.00     0.034 A 
HETATM    2  C   UNL     1      41.643 -11.567   6.351  1.00  0.00     0.032 A 
HETATM    3  C   UNL     1      42.167 -12.674   5.674  1.00  0.00     0.031 A 
HETATM    4  C   UNL     1      41.406 -13.821   5.413  1.00  0.00     0.030 A 
HETATM    5  C   UNL     1      40.085 -13.808   5.878  1.00  0.00     0.031 A 
HETATM    6  C   UNL     1      39.551 -12.698   6.566  1.00  0.00     0.032 A 
ENDROOT
BRANCH   1   7
HETATM    7  N   UNL     1      39.763 -10.490   7.532  1.00  0.00    -0.325 N 
HETATM    8  C   UNL     1      40.452  -9.429   8.095  1.00  0.00     0.246 C 
HETATM    9  O   UNL     1      41.651  -9.192   7.957  1.00  0.00    -0.271 OA
HETATM   10  H   UNL     1      38.754 -10.465   7.643  1.00  0.00     0.169 HD
BRANCH   8  11
HETATM   11  C   UNL     1      39.616  -8.545   9.021  1.00  0.00     0.278 C 
BRANCH  11  12
HETATM   12  O   UNL     1      40.298  -8.039  10.161  1.00  0.00    -0.342 OA
BRANCH  12  13
HETATM   13  C   UNL     1      40.564  -8.974  11.141  1.00  0.00     0.075 A 
HETATM   14  C   UNL     1      41.627  -8.691  12.024  1.00  0.00    -0.023 A 
HETATM   15  C   UNL     1      41.998  -9.653  12.996  1.00  0.00    -0.053 A 
HETATM   16  C   UNL     1      42.407  -7.406  11.901  1.00  0.00     0.052 C 
HETATM   17  C   UNL     1      43.146  -9.439  13.948  1.00  0.00     0.049 C 
HETATM   18  C   UNL     1      41.252 -10.835  13.123  1.00  0.00     0.007 A 
HETATM   19  C   UNL     1      40.174 -11.085  12.283  1.00  0.00     0.003 A 
HETATM   20  C   UNL     1      39.835 -10.163  11.296  1.00  0.00     0.037 A 
ENDBRANCH  12  13
ENDBRANCH  11  12
ENDBRANCH   8  11
ENDBRANCH   1   7
BRANCH   4  21
HETATM   21  N   UNL     1      41.997 -14.909   4.779  1.00  0.00    -0.378 N 
HETATM   22  C   UNL     1      43.279 -14.783   4.077  1.00  0.00     0.150 C 
HETATM   23  C   UNL     1      43.333 -15.802   2.912  1.00  0.00     0.255 C 
HETATM   24  N   UNL     1      43.017 -17.226   3.383  1.00  0.00    -0.064 N 
HETATM   25  H   UNL     1      43.783 -17.510   4.006  1.00  0.00     0.280 HD
HETATM   26  C   UNL     1      41.718 -17.277   4.186  1.00  0.00     0.255 C 
HETATM   27  C   UNL     1      41.733 -16.249   5.333  1.00  0.00     0.150 C 
BRANCH  24  28
HETATM   28  C   UNL     1      42.970 -18.216   2.243  1.00  0.00     0.273 C 
BRANCH  28  29
HETATM   29  C   UNL     1      43.560 -19.555   2.584  1.00  0.00    -0.033 A 
HETATM   30  C   UNL     1      43.410 -20.643   1.709  1.00  0.00     0.009 A 
HETATM   31  C   UNL     1      43.955 -21.887   2.032  1.00  0.00     0.001 A 
HETATM   32  C   UNL     1      44.649 -22.057   3.227  1.00  0.00     0.000 A 
HETATM   33  C   UNL     1      44.805 -20.984   4.102  1.00  0.00     0.001 A 
HETATM   34  C   UNL     1      44.264 -19.738   3.784  1.00  0.00     0.009 A 
ENDBRANCH  28  29
ENDBRANCH  24  28
ENDBRANCH   4  21
TORSDOF 7
ENDMDL
MODEL 7
REMARK VINA RESULT:      -8.2      6.726     10.213
REMARK  7 active torsions:
REMARK  status: ('A' for Active; 'I' for Inactive)
REMARK    1  A    between atoms: C_5  and  O_6 
REMARK    2  A    between atoms: O_6  and  C_7 
REMARK    3  A    between atoms: C_7  and  C_8 
REMARK       I    between atoms: C_8  and  N_9 
REMARK    4  A    between atoms: N_9  and  C_10 
REMARK    5  A    between atoms: C_13  and  N_14 
REMARK    6  A    between atoms: N_17  and  C_19 
REMARK    7  A    between atoms: C_19  and  C_20 
ROOT
HETATM    1  C   UNL     1      40.435 -15.431   1.169  1.00  0.00     0.034 A 
HETATM    2  C   UNL     1      41.046 -15.460  -0.081  1.00  0.00     0.032 A 
HETATM    3  C   UNL     1      40.502 -14.760  -1.165  1.00  0.00     0.031 A 
HETATM    4  C   UNL     1      39.334 -13.995  -1.051  1.00  0.00     0.030 A 
HETATM    5  C   UNL     1      38.725 -13.975   0.210  1.00  0.00     0.031 A 
HETATM    6  C   UNL     1      39.264 -14.683   1.305  1.00  0.00     0.032 A 
ENDROOT
BRANCH   1   7
HETATM    7  N   UNL     1      40.917 -16.155   2.283  1.00  0.00    -0.325 N 
HETATM    8  C   UNL     1      42.143 -15.984   2.903  1.00  0.00     0.246 C 
HETATM    9  O   UNL     1      42.962 -15.100   2.653  1.00  0.00    -0.271 OA
HETATM   10  H   UNL     1      40.310 -16.855   2.698  1.00  0.00     0.169 HD
BRANCH   8  11
HETATM   11  C   UNL     1      42.493 -17.060   3.931  1.00  0.00     0.278 C 
BRANCH  11  12
HETATM   12  O   UNL     1      43.822 -17.559   3.863  1.00  0.00    -0.342 OA
BRANCH  12  13
HETATM   13  C   UNL     1      43.927 -18.880   3.474  1.00  0.00     0.075 A 
HETATM   14  C   UNL     1      44.386 -19.798   4.443  1.00  0.00    -0.023 A 
HETATM   15  C   UNL     1      44.593 -21.151   4.074  1.00  0.00    -0.053 A 
HETATM   16  C   UNL     1      44.718 -19.339   5.840  1.00  0.00     0.052 C 
HETATM   17  C   UNL     1      45.119 -22.180   5.040  1.00  0.00     0.049 C 
HETATM   18  C   UNL     1      44.258 -21.576   2.780  1.00  0.00     0.007 A 
HETATM   19  C   UNL     1      43.758 -20.678   1.846  1.00  0.00     0.003 A 
HETATM   20  C   UNL     1      43.597 -19.338   2.190  1.00  0.00     0.037 A 
ENDBRANCH  12  13
ENDBRANCH  11  12
ENDBRANCH   8  11
ENDBRANCH   1   7
BRANCH   4  21
HETATM   21  N   UNL     1      38.815 -13.361  -2.175  1.00  0.00    -0.378 N 
HETATM   22  C   UNL     1      39.416 -12.133  -2.708  1.00  0.00     0.150 C 
HETATM   23  C   UNL     1      38.322 -11.276  -3.390  1.00  0.00     0.255 C 
HETATM   24  N   UNL     1      37.527 -12.081  -4.425  1.00  0.00    -0.064 N 
HETATM   25  H   UNL     1      38.178 -12.315  -5.184  1.00  0.00     0.280 HD
HETATM   26  C   UNL     1      37.005 -13.391  -3.836  1.00  0.00     0.255 C 
HETATM   27  C   UNL     1      38.142 -14.199  -3.184  1.00  0.00     0.150 C 
BRANCH  24  28
HETATM   28  C   UNL     1      36.392 -11.288  -5.030  1.00  0.00     0.273 C 
BRANCH  28  29
HETATM   29  C   UNL     1      35.092 -11.439  -4.291  1.00  0.00    -0.033 A 
HETATM   30  C   UNL     1      34.087 -12.283  -4.787  1.00  0.00     0.009 A 
HETATM   31  C   UNL     1      32.878 -12.416  -4.101  1.00  0.00     0.001 A 
HETATM   32  C   UNL     1      32.662 -11.709  -2.921  1.00  0.00     0.000 A 
HETATM   33  C   UNL     1      33.654 -10.869  -2.420  1.00  0.00     0.001 A 
HETATM   34  C   UNL     1      34.864 -10.734  -3.100  1.00  0.00     0.009 A 
ENDBRANCH  28  29
ENDBRANCH  24  28
ENDBRANCH   4  21
TORSDOF 7
ENDMDL
MODEL 8
REMARK VINA RESULT:      -8.1      2.302     10.838
REMARK  7 active torsions:
REMARK  status: ('A' for Active; 'I' for Inactive)
REMARK    1  A    between atoms: C_5  and  O_6 
REMARK    2  A    between atoms: O_6  and  C_7 
REMARK    3  A    between atoms: C_7  and  C_8 
REMARK       I    between atoms: C_8  and  N_9 
REMARK    4  A    between atoms: N_9  and  C_10 
REMARK    5  A    between atoms: C_13  and  N_14 
REMARK    6  A    between atoms: N_17  and  C_19 
REMARK    7  A    between atoms: C_19  and  C_20 
ROOT
HETATM    1  C   UNL     1      41.475 -12.630   5.819  1.00  0.00     0.034 A 
HETATM    2  C   UNL     1      42.554 -13.468   6.088  1.00  0.00     0.032 A 
HETATM    3  C   UNL     1      42.820 -14.581   5.282  1.00  0.00     0.031 A 
HETATM    4  C   UNL     1      42.032 -14.906   4.170  1.00  0.00     0.030 A 
HETATM    5  C   UNL     1      40.946 -14.059   3.910  1.00  0.00     0.031 A 
HETATM    6  C   UNL     1      40.668 -12.939   4.721  1.00  0.00     0.032 A 
ENDROOT
BRANCH   1   7
HETATM    7  N   UNL     1      41.136 -11.521   6.625  1.00  0.00    -0.325 N 
HETATM    8  C   UNL     1      39.957 -11.352   7.332  1.00  0.00     0.246 C 
HETATM    9  O   UNL     1      39.065 -12.189   7.460  1.00  0.00    -0.271 OA
HETATM   10  H   UNL     1      41.819 -10.777   6.728  1.00  0.00     0.169 HD
BRANCH   8  11
HETATM   11  C   UNL     1      39.765  -9.956   7.925  1.00  0.00     0.278 C 
BRANCH  11  12
HETATM   12  O   UNL     1      40.838  -9.482   8.729  1.00  0.00    -0.342 OA
BRANCH  12  13
HETATM   13  C   UNL     1      40.865  -9.984  10.016  1.00  0.00     0.075 A 
HETATM   14  C   UNL     1      42.063 -10.599  10.437  1.00  0.00    -0.023 A 
HETATM   15  C   UNL     1      42.119 -11.205  11.717  1.00  0.00    -0.053 A 
HETATM   16  C   UNL     1      43.254 -10.671   9.517  1.00  0.00     0.052 C 
HETATM   17  C   UNL     1      43.348 -11.915  12.222  1.00  0.00     0.049 C 
HETATM   18  C   UNL     1      41.015 -11.111  12.579  1.00  0.00     0.007 A 
HETATM   19  C   UNL     1      39.856 -10.459  12.176  1.00  0.00     0.003 A 
HETATM   20  C   UNL     1      39.780  -9.902  10.902  1.00  0.00     0.037 A 
ENDBRANCH  12  13
ENDBRANCH  11  12
ENDBRANCH   8  11
ENDBRANCH   1   7
BRANCH   4  21
HETATM   21  N   UNL     1      42.317 -16.052   3.436  1.00  0.00    -0.378 N 
HETATM   22  C   UNL     1      41.630 -17.322   3.703  1.00  0.00     0.150 C 
HETATM   23  C   UNL     1      42.570 -18.501   3.350  1.00  0.00     0.255 C 
HETATM   24  N   UNL     1      43.129 -18.382   1.927  1.00  0.00    -0.064 N 
HETATM   25  H   UNL     1      42.334 -18.487   1.286  1.00  0.00     0.280 HD
HETATM   26  C   UNL     1      43.748 -17.006   1.682  1.00  0.00     0.255 C 
HETATM   27  C   UNL     1      42.762 -15.880   2.042  1.00  0.00     0.150 C 
BRANCH  24  28
HETATM   28  C   UNL     1      44.123 -19.471   1.602  1.00  0.00     0.273 C 
BRANCH  28  29
HETATM   29  C   UNL     1      44.380 -20.413   2.744  1.00  0.00    -0.033 A 
HETATM   30  C   UNL     1      44.752 -19.918   4.004  1.00  0.00     0.009 A 
HETATM   31  C   UNL     1      44.995 -20.797   5.061  1.00  0.00     0.001 A 
HETATM   32  C   UNL     1      44.871 -22.171   4.871  1.00  0.00     0.000 A 
HETATM   33  C   UNL     1      44.501 -22.672   3.626  1.00  0.00     0.001 A 
HETATM   34  C   UNL     1      44.255 -21.799   2.566  1.00  0.00     0.009 A 
ENDBRANCH  28  29
ENDBRANCH  24  28
ENDBRANCH   4  21
TORSDOF 7
ENDMDL
MODEL 9
REMARK VINA RESULT:      -8.1      4.523     11.348
REMARK  7 active torsions:
REMARK  status: ('A' for Active; 'I' for Inactive)
REMARK    1  A    between atoms: C_5  and  O_6 
REMARK    2  A    between atoms: O_6  and  C_7 
REMARK    3  A    between atoms: C_7  and  C_8 
REMARK       I    between atoms: C_8  and  N_9 
REMARK    4  A    between atoms: N_9  and  C_10 
REMARK    5  A    between atoms: C_13  and  N_14 
REMARK    6  A    between atoms: N_17  and  C_19 
REMARK    7  A    between atoms: C_19  and  C_20 
ROOT
HETATM    1  C   UNL     1      40.935 -12.552   5.730  1.00  0.00     0.034 A 
HETATM    2  C   UNL     1      40.308 -13.778   5.527  1.00  0.00     0.032 A 
HETATM    3  C   UNL     1      40.235 -14.348   4.251  1.00  0.00     0.031 A 
HETATM    4  C   UNL     1      40.789 -13.730   3.122  1.00  0.00     0.030 A 
HETATM    5  C   UNL     1      41.415 -12.494   3.336  1.00  0.00     0.031 A 
HETATM    6  C   UNL     1      41.487 -11.911   4.619  1.00  0.00     0.032 A 
ENDROOT
BRANCH   1   7
HETATM    7  N   UNL     1      40.997 -11.913   6.988  1.00  0.00    -0.325 N 
HETATM    8  C   UNL     1      40.058 -11.040   7.511  1.00  0.00     0.246 C 
HETATM    9  O   UNL     1      38.966 -10.769   7.012  1.00  0.00    -0.271 OA
HETATM   10  H   UNL     1      41.787 -12.119   7.592  1.00  0.00     0.169 HD
BRANCH   8  11
HETATM   11  C   UNL     1      40.497 -10.320   8.786  1.00  0.00     0.278 C 
BRANCH  11  12
HETATM   12  O   UNL     1      40.654 -11.148   9.931  1.00  0.00    -0.342 OA
BRANCH  12  13
HETATM   13  C   UNL     1      41.720 -10.820  10.744  1.00  0.00     0.075 A 
HETATM   14  C   UNL     1      41.483 -10.802  12.134  1.00  0.00    -0.023 A 
HETATM   15  C   UNL     1      42.519 -10.391  13.010  1.00  0.00    -0.053 A 
HETATM   16  C   UNL     1      40.125 -11.154  12.687  1.00  0.00     0.052 C 
HETATM   17  C   UNL     1      42.330 -10.309  14.502  1.00  0.00     0.049 C 
HETATM   18  C   UNL     1      43.788 -10.091  12.492  1.00  0.00     0.007 A 
HETATM   19  C   UNL     1      44.029 -10.160  11.126  1.00  0.00     0.003 A 
HETATM   20  C   UNL     1      43.001 -10.518  10.257  1.00  0.00     0.037 A 
ENDBRANCH  12  13
ENDBRANCH  11  12
ENDBRANCH   8  11
ENDBRANCH   1   7
BRANCH   4  21
HETATM   21  N   UNL     1      40.642 -14.320   1.872  1.00  0.00    -0.378 N 
HETATM   22  C   UNL     1      41.222 -15.635   1.574  1.00  0.00     0.150 C 
HETATM   23  C   UNL     1      41.574 -15.715   0.068  1.00  0.00     0.255 C 
HETATM   24  N   UNL     1      40.380 -15.344  -0.820  1.00  0.00    -0.064 N 
HETATM   25  H   UNL     1      39.671 -16.074  -0.684  1.00  0.00     0.280 HD
HETATM   26  C   UNL     1      39.763 -14.010  -0.401  1.00  0.00     0.255 C 
HETATM   27  C   UNL     1      39.427 -14.000   1.102  1.00  0.00     0.150 C 
BRANCH  24  28
HETATM   28  C   UNL     1      40.734 -15.322  -2.288  1.00  0.00     0.273 C 
BRANCH  28  29
HETATM   29  C   UNL     1      41.060 -13.951  -2.808  1.00  0.00    -0.033 A 
HETATM   30  C   UNL     1      42.334 -13.398  -2.608  1.00  0.00     0.009 A 
HETATM   31  C   UNL     1      42.631 -12.121  -3.087  1.00  0.00     0.001 A 
HETATM   32  C   UNL     1      41.662 -11.386  -3.766  1.00  0.00     0.000 A 
HETATM   33  C   UNL     1      40.394 -11.925  -3.971  1.00  0.00     0.001 A 
HETATM   34  C   UNL     1      40.093 -13.202  -3.495  1.00  0.00     0.009 A 
ENDBRANCH  28  29
ENDBRANCH  24  28
ENDBRANCH   4  21
TORSDOF 7
ENDMDL
MODEL 10
REMARK VINA RESULT:      -8.1      6.965     12.145
REMARK  7 active torsions:
REMARK  status: ('A' for Active; 'I' for Inactive)
REMARK    1  A    between atoms: C_5  and  O_6 
REMARK    2  A    between atoms: O_6  and  C_7 
REMARK    3  A    between atoms: C_7  and  C_8 
REMARK       I    between atoms: C_8  and  N_9 
REMARK    4  A    between atoms: N_9  and  C_10 
REMARK    5  A    between atoms: C_13  and  N_14 
REMARK    6  A    between atoms: N_17  and  C_19 
REMARK    7  A    between atoms: C_19  and  C_20 
ROOT
HETATM    1  C   UNL     1      38.520 -13.250  -0.086  1.00  0.00     0.034 A 
HETATM    2  C   UNL     1      39.817 -13.543  -0.497  1.00  0.00     0.032 A 
HETATM    3  C   UNL     1      40.574 -14.524   0.153  1.00  0.00     0.031 A 
HETATM    4  C   UNL     1      40.074 -15.263   1.234  1.00  0.00     0.030 A 
HETATM    5  C   UNL     1      38.769 -14.957   1.642  1.00  0.00     0.031 A 
HETATM    6  C   UNL     1      38.001 -13.966   0.996  1.00  0.00     0.032 A 
ENDROOT
BRANCH   1   7
HETATM    7  N   UNL     1      37.730 -12.240  -0.678  1.00  0.00    -0.325 N 
HETATM    8  C   UNL     1      37.275 -12.216  -1.985  1.00  0.00     0.246 C 
HETATM    9  O   UNL     1      37.393 -13.123  -2.808  1.00  0.00    -0.271 OA
HETATM   10  H   UNL     1      37.436 -11.460  -0.097  1.00  0.00     0.169 HD
BRANCH   8  11
HETATM   11  C   UNL     1      36.643 -10.892  -2.416  1.00  0.00     0.278 C 
BRANCH  11  12
HETATM   12  O   UNL     1      35.393 -10.588  -1.811  1.00  0.00    -0.342 OA
BRANCH  12  13
HETATM   13  C   UNL     1      34.288 -11.067  -2.488  1.00  0.00     0.075 A 
HETATM   14  C   UNL     1      33.046 -10.983  -1.825  1.00  0.00    -0.023 A 
HETATM   15  C   UNL     1      31.893 -11.535  -2.438  1.00  0.00    -0.053 A 
HETATM   16  C   UNL     1      32.948 -10.372  -0.450  1.00  0.00     0.052 C 
HETATM   17  C   UNL     1      30.540 -11.519  -1.775  1.00  0.00     0.049 C 
HETATM   18  C   UNL     1      31.986 -12.078  -3.728  1.00  0.00     0.007 A 
HETATM   19  C   UNL     1      33.203 -12.111  -4.397  1.00  0.00     0.003 A 
HETATM   20  C   UNL     1      34.347 -11.612  -3.779  1.00  0.00     0.037 A 
ENDBRANCH  12  13
ENDBRANCH  11  12
ENDBRANCH   8  11
ENDBRANCH   1   7
BRANCH   4  21
HETATM   21  N   UNL     1      40.891 -16.190   1.871  1.00  0.00    -0.378 N 
HETATM   22  C   UNL     1      40.843 -16.381   3.325  1.00  0.00     0.150 C 
HETATM   23  C   UNL     1      42.234 -16.831   3.834  1.00  0.00     0.255 C 
HETATM   24  N   UNL     1      42.760 -18.047   3.062  1.00  0.00    -0.064 N 
HETATM   25  H   UNL     1      42.140 -18.833   3.287  1.00  0.00     0.280 HD
HETATM   26  C   UNL     1      42.700 -17.822   1.552  1.00  0.00     0.255 C 
HETATM   27  C   UNL     1      41.290 -17.388   1.110  1.00  0.00     0.150 C 
BRANCH  24  28
HETATM   28  C   UNL     1      44.159 -18.438   3.480  1.00  0.00     0.273 C 
BRANCH  28  29
HETATM   29  C   UNL     1      44.346 -19.920   3.640  1.00  0.00    -0.033 A 
HETATM   30  C   UNL     1      44.246 -20.774   2.530  1.00  0.00     0.009 A 
HETATM   31  C   UNL     1      44.416 -22.151   2.684  1.00  0.00     0.001 A 
HETATM   32  C   UNL     1      44.683 -22.686   3.942  1.00  0.00     0.000 A 
HETATM   33  C   UNL     1      44.785 -21.848   5.049  1.00  0.00     0.001 A 
HETATM   34  C   UNL     1      44.619 -20.471   4.901  1.00  0.00     0.009 A 
ENDBRANCH  28  29
ENDBRANCH  24  28
ENDBRANCH   4  21
TORSDOF 7
ENDMDL
