MODEL 1
REMARK VINA RESULT:      -9.4      0.000      0.000
REMARK  6 active torsions:
REMARK  status: ('A' for Active; 'I' for Inactive)
REMARK    1  A    between atoms: C_7  and  C_8 
REMARK    2  A    between atoms: N_9  and  N_10 
REMARK       I    between atoms: N_10  and  C_11 
REMARK    3  A    between atoms: C_11  and  C_12 
REMARK    4  A    between atoms: C_15  and  O_16 
REMARK    5  A    between atoms: O_16  and  C_17 
REMARK    6  A    between atoms: C_17  and  C_20 
ROOT
HETATM    1  N   UNL     1      44.177 -14.375   7.531  1.00  0.00    -0.243 N 
HETATM    2  C   UNL     1      45.059 -13.324   7.757  1.00  0.00     0.271 C 
HETATM    3  O   UNL     1      46.118 -13.142   7.162  1.00  0.00    -0.266 OA
HETATM    4  H   UNL     1      43.382 -14.515   8.142  1.00  0.00     0.192 HD
ENDROOT
BRANCH   1   5
HETATM    5  N   UNL     1      44.377 -15.431   6.674  1.00  0.00    -0.183 NA
HETATM    6  C   UNL     1      43.431 -16.302   6.524  1.00  0.00     0.153 C 
BRANCH   6   7
HETATM    7  C   UNL     1      43.602 -17.407   5.593  1.00  0.00     0.018 A 
HETATM    8  C   UNL     1      43.771 -18.729   5.989  1.00  0.00     0.018 A 
HETATM    9  C   UNL     1      43.822 -19.341   7.343  1.00  0.00     0.069 C 
HETATM   10  N   UNL     1      43.901 -19.492   4.857  1.00  0.00    -0.358 N 
HETATM   11  H   UNL     1      44.036 -20.493   4.842  1.00  0.00     0.166 HD
HETATM   12  C   UNL     1      43.821 -18.709   3.732  1.00  0.00     0.043 A 
HETATM   13  C   UNL     1      43.632 -17.393   4.158  1.00  0.00     0.004 A 
HETATM   14  C   UNL     1      43.899 -19.069   2.381  1.00  0.00     0.030 A 
HETATM   15  C   UNL     1      43.511 -16.390   3.172  1.00  0.00     0.014 A 
HETATM   16  C   UNL     1      43.584 -16.732   1.816  1.00  0.00     0.001 A 
HETATM   17  C   UNL     1      43.777 -18.054   1.428  1.00  0.00     0.002 A 
ENDBRANCH   6   7
ENDBRANCH   1   5
BRANCH   2  18
HETATM   18  C   UNL     1      44.651 -12.334   8.799  1.00  0.00     0.033 A 
HETATM   19  C   UNL     1      45.399 -12.081   9.954  1.00  0.00     0.020 A 
HETATM   20  C   UNL     1      44.941 -11.147  10.892  1.00  0.00     0.038 A 
HETATM   21  C   UNL     1      43.748 -10.445  10.690  1.00  0.00     0.075 A 
HETATM   22  C   UNL     1      43.015 -10.680   9.529  1.00  0.00     0.038 A 
HETATM   23  C   UNL     1      43.466 -11.616   8.590  1.00  0.00     0.020 A 
BRANCH  21  24
HETATM   24  O   UNL     1      43.425  -9.577  11.693  1.00  0.00    -0.279 OA
BRANCH  24  25
HETATM   25  C   UNL     1      42.364  -9.929  12.587  1.00  0.00     0.418 C 
HETATM   26  F   UNL     1      41.211  -9.344  12.172  1.00  0.00    -0.169 F 
HETATM   27  F   UNL     1      42.188 -11.278  12.541  1.00  0.00    -0.169 F 
BRANCH  25  28
HETATM   28  C   UNL     1      42.713  -9.507  14.013  1.00  0.00     0.455 C 
HETATM   29  F   UNL     1      42.551 -10.536  14.889  1.00  0.00    -0.205 F 
HETATM   30  F   UNL     1      44.015  -9.126  14.111  1.00  0.00    -0.205 F 
ENDBRANCH  25  28
ENDBRANCH  24  25
ENDBRANCH  21  24
ENDBRANCH   2  18
TORSDOF 6
ENDMDL
MODEL 2
REMARK VINA RESULT:      -8.9      1.282      2.509
REMARK  6 active torsions:
REMARK  status: ('A' for Active; 'I' for Inactive)
REMARK    1  A    between atoms: C_7  and  C_8 
REMARK    2  A    between atoms: N_9  and  N_10 
REMARK       I    between atoms: N_10  and  C_11 
REMARK    3  A    between atoms: C_11  and  C_12 
REMARK    4  A    between atoms: C_15  and  O_16 
REMARK    5  A    between atoms: O_16  and  C_17 
REMARK    6  A    between atoms: C_17  and  C_20 
ROOT
HETATM    1  N   UNL     1      43.615 -13.749   7.041  1.00  0.00    -0.243 N 
HETATM    2  C   UNL     1      44.714 -13.139   7.636  1.00  0.00     0.271 C 
HETATM    3  O   UNL     1      45.888 -13.323   7.325  1.00  0.00    -0.266 OA
HETATM    4  H   UNL     1      42.690 -13.628   7.432  1.00  0.00     0.192 HD
ENDROOT
BRANCH   1   5
HETATM    5  N   UNL     1      43.656 -14.722   6.071  1.00  0.00    -0.183 NA
HETATM    6  C   UNL     1      42.609 -15.460   5.882  1.00  0.00     0.153 C 
BRANCH   6   7
HETATM    7  C   UNL     1      42.613 -16.470   4.835  1.00  0.00     0.018 A 
HETATM    8  C   UNL     1      41.798 -16.418   3.710  1.00  0.00     0.018 A 
HETATM    9  C   UNL     1      40.786 -15.414   3.287  1.00  0.00     0.069 C 
HETATM   10  N   UNL     1      42.066 -17.525   2.947  1.00  0.00    -0.358 N 
HETATM   11  H   UNL     1      41.620 -17.748   2.068  1.00  0.00     0.166 HD
HETATM   12  C   UNL     1      43.032 -18.301   3.538  1.00  0.00     0.043 A 
HETATM   13  C   UNL     1      43.399 -17.667   4.726  1.00  0.00     0.004 A 
HETATM   14  C   UNL     1      43.604 -19.505   3.108  1.00  0.00     0.030 A 
HETATM   15  C   UNL     1      44.396 -18.275   5.519  1.00  0.00     0.014 A 
HETATM   16  C   UNL     1      44.980 -19.478   5.105  1.00  0.00     0.001 A 
HETATM   17  C   UNL     1      44.587 -20.084   3.915  1.00  0.00     0.002 A 
ENDBRANCH   6   7
ENDBRANCH   1   5
BRANCH   2  18
HETATM   18  C   UNL     1      44.414 -12.162   8.727  1.00  0.00     0.033 A 
HETATM   19  C   UNL     1      43.212 -11.452   8.815  1.00  0.00     0.020 A 
HETATM   20  C   UNL     1      43.013 -10.542   9.861  1.00  0.00     0.038 A 
HETATM   21  C   UNL     1      43.993 -10.337  10.837  1.00  0.00     0.075 A 
HETATM   22  C   UNL     1      45.181 -11.062  10.763  1.00  0.00     0.038 A 
HETATM   23  C   UNL     1      45.387 -11.969   9.717  1.00  0.00     0.020 A 
BRANCH  21  24
HETATM   24  O   UNL     1      43.663  -9.414  11.787  1.00  0.00    -0.279 OA
BRANCH  24  25
HETATM   25  C   UNL     1      43.126  -9.876  13.031  1.00  0.00     0.418 C 
HETATM   26  F   UNL     1      43.234 -11.228  13.096  1.00  0.00    -0.169 F 
HETATM   27  F   UNL     1      43.866  -9.349  14.045  1.00  0.00    -0.169 F 
BRANCH  25  28
HETATM   28  C   UNL     1      41.671  -9.433  13.176  1.00  0.00     0.455 C 
HETATM   29  F   UNL     1      40.831 -10.253  12.489  1.00  0.00    -0.205 F 
HETATM   30  F   UNL     1      41.269  -9.477  14.475  1.00  0.00    -0.205 F 
ENDBRANCH  25  28
ENDBRANCH  24  25
ENDBRANCH  21  24
ENDBRANCH   2  18
TORSDOF 6
ENDMDL
MODEL 3
REMARK VINA RESULT:      -8.3      8.198     10.699
REMARK  6 active torsions:
REMARK  status: ('A' for Active; 'I' for Inactive)
REMARK    1  A    between atoms: C_7  and  C_8 
REMARK    2  A    between atoms: N_9  and  N_10 
REMARK       I    between atoms: N_10  and  C_11 
REMARK    3  A    between atoms: C_11  and  C_12 
REMARK    4  A    between atoms: C_15  and  O_16 
REMARK    5  A    between atoms: O_16  and  C_17 
REMARK    6  A    between atoms: C_17  and  C_20 
ROOT
HETATM    1  N   UNL     1      42.950 -16.732   0.945  1.00  0.00    -0.243 N 
HETATM    2  C   UNL     1      41.668 -16.576   0.432  1.00  0.00     0.271 C 
HETATM    3  O   UNL     1      40.704 -17.293   0.688  1.00  0.00    -0.266 OA
HETATM    4  H   UNL     1      43.713 -16.167   0.596  1.00  0.00     0.192 HD
ENDROOT
BRANCH   1   5
HETATM    5  N   UNL     1      43.380 -17.759   1.751  1.00  0.00    -0.183 NA
HETATM    6  C   UNL     1      43.625 -17.514   2.999  1.00  0.00     0.153 C 
BRANCH   6   7
HETATM    7  C   UNL     1      44.043 -18.592   3.882  1.00  0.00     0.018 A 
HETATM    8  C   UNL     1      44.329 -18.415   5.231  1.00  0.00     0.018 A 
HETATM    9  C   UNL     1      44.297 -17.196   6.082  1.00  0.00     0.069 C 
HETATM   10  N   UNL     1      44.688 -19.635   5.746  1.00  0.00    -0.358 N 
HETATM   11  H   UNL     1      44.949 -19.807   6.707  1.00  0.00     0.166 HD
HETATM   12  C   UNL     1      44.643 -20.605   4.776  1.00  0.00     0.043 A 
HETATM   13  C   UNL     1      44.240 -19.984   3.592  1.00  0.00     0.004 A 
HETATM   14  C   UNL     1      44.924 -21.974   4.861  1.00  0.00     0.030 A 
HETATM   15  C   UNL     1      44.110 -20.786   2.437  1.00  0.00     0.014 A 
HETATM   16  C   UNL     1      44.385 -22.156   2.503  1.00  0.00     0.001 A 
HETATM   17  C   UNL     1      44.788 -22.741   3.701  1.00  0.00     0.002 A 
ENDBRANCH   6   7
ENDBRANCH   1   5
BRANCH   2  18
HETATM   18  C   UNL     1      41.464 -15.416  -0.489  1.00  0.00     0.033 A 
HETATM   19  C   UNL     1      41.088 -15.554  -1.829  1.00  0.00     0.020 A 
HETATM   20  C   UNL     1      40.932 -14.417  -2.632  1.00  0.00     0.038 A 
HETATM   21  C   UNL     1      41.131 -13.133  -2.114  1.00  0.00     0.075 A 
HETATM   22  C   UNL     1      41.483 -12.994  -0.773  1.00  0.00     0.038 A 
HETATM   23  C   UNL     1      41.645 -14.127   0.033  1.00  0.00     0.020 A 
BRANCH  21  24
HETATM   24  O   UNL     1      40.953 -12.124  -3.016  1.00  0.00    -0.279 OA
BRANCH  24  25
HETATM   25  C   UNL     1      42.110 -11.527  -3.610  1.00  0.00     0.418 C 
HETATM   26  F   UNL     1      43.162 -12.378  -3.507  1.00  0.00    -0.169 F 
HETATM   27  F   UNL     1      41.863 -11.327  -4.934  1.00  0.00    -0.169 F 
BRANCH  25  28
HETATM   28  C   UNL     1      42.416 -10.188  -2.940  1.00  0.00     0.455 C 
HETATM   29  F   UNL     1      43.578 -10.241  -2.234  1.00  0.00    -0.205 F 
HETATM   30  F   UNL     1      42.575  -9.200  -3.861  1.00  0.00    -0.205 F 
ENDBRANCH  25  28
ENDBRANCH  24  25
ENDBRANCH  21  24
ENDBRANCH   2  18
TORSDOF 6
ENDMDL
MODEL 4
REMARK VINA RESULT:      -8.2      8.966     11.791
REMARK  6 active torsions:
REMARK  status: ('A' for Active; 'I' for Inactive)
REMARK    1  A    between atoms: C_7  and  C_8 
REMARK    2  A    between atoms: N_9  and  N_10 
REMARK       I    between atoms: N_10  and  C_11 
REMARK    3  A    between atoms: C_11  and  C_12 
REMARK    4  A    between atoms: C_15  and  O_16 
REMARK    5  A    between atoms: O_16  and  C_17 
REMARK    6  A    between atoms: C_17  and  C_20 
ROOT
HETATM    1  N   UNL     1      41.717 -15.340  -0.266  1.00  0.00    -0.243 N 
HETATM    2  C   UNL     1      41.294 -15.787   0.981  1.00  0.00     0.271 C 
HETATM    3  O   UNL     1      40.311 -15.375   1.591  1.00  0.00    -0.266 OA
HETATM    4  H   UNL     1      42.601 -15.651  -0.648  1.00  0.00     0.192 HD
ENDROOT
BRANCH   1   5
HETATM    5  N   UNL     1      41.164 -14.308  -0.987  1.00  0.00    -0.183 NA
HETATM    6  C   UNL     1      40.999 -14.455  -2.263  1.00  0.00     0.153 C 
BRANCH   6   7
HETATM    7  C   UNL     1      40.381 -13.394  -3.042  1.00  0.00     0.018 A 
HETATM    8  C   UNL     1      39.012 -13.304  -3.272  1.00  0.00     0.018 A 
HETATM    9  C   UNL     1      37.892 -14.177  -2.834  1.00  0.00     0.069 C 
HETATM   10  N   UNL     1      38.789 -12.188  -4.038  1.00  0.00    -0.358 N 
HETATM   11  H   UNL     1      37.884 -11.874  -4.358  1.00  0.00     0.166 HD
HETATM   12  C   UNL     1      39.970 -11.545  -4.315  1.00  0.00     0.043 A 
HETATM   13  C   UNL     1      40.990 -12.274  -3.703  1.00  0.00     0.004 A 
HETATM   14  C   UNL     1      40.204 -10.378  -5.054  1.00  0.00     0.030 A 
HETATM   15  C   UNL     1      42.314 -11.802  -3.840  1.00  0.00     0.014 A 
HETATM   16  C   UNL     1      42.567 -10.637  -4.573  1.00  0.00     0.001 A 
HETATM   17  C   UNL     1      41.524  -9.937  -5.173  1.00  0.00     0.002 A 
ENDBRANCH   6   7
ENDBRANCH   1   5
BRANCH   2  18
HETATM   18  C   UNL     1      42.108 -16.876   1.601  1.00  0.00     0.033 A 
HETATM   19  C   UNL     1      41.833 -17.420   2.860  1.00  0.00     0.020 A 
HETATM   20  C   UNL     1      42.653 -18.430   3.379  1.00  0.00     0.038 A 
HETATM   21  C   UNL     1      43.743 -18.921   2.652  1.00  0.00     0.075 A 
HETATM   22  C   UNL     1      44.003 -18.396   1.388  1.00  0.00     0.038 A 
HETATM   23  C   UNL     1      43.189 -17.383   0.867  1.00  0.00     0.020 A 
BRANCH  21  24
HETATM   24  O   UNL     1      44.455 -19.896   3.289  1.00  0.00    -0.279 OA
BRANCH  24  25
HETATM   25  C   UNL     1      44.358 -21.240   2.807  1.00  0.00     0.418 C 
HETATM   26  F   UNL     1      43.164 -21.411   2.183  1.00  0.00    -0.169 F 
HETATM   27  F   UNL     1      45.341 -21.444   1.888  1.00  0.00    -0.169 F 
BRANCH  25  28
HETATM   28  C   UNL     1      44.523 -22.229   3.960  1.00  0.00     0.455 C 
HETATM   29  F   UNL     1      45.115 -23.382   3.544  1.00  0.00    -0.205 F 
HETATM   30  F   UNL     1      45.323 -21.720   4.935  1.00  0.00    -0.205 F 
ENDBRANCH  25  28
ENDBRANCH  24  25
ENDBRANCH  21  24
ENDBRANCH   2  18
TORSDOF 6
ENDMDL
MODEL 5
REMARK VINA RESULT:      -8.2      8.923     11.877
REMARK  6 active torsions:
REMARK  status: ('A' for Active; 'I' for Inactive)
REMARK    1  A    between atoms: C_7  and  C_8 
REMARK    2  A    between atoms: N_9  and  N_10 
REMARK       I    between atoms: N_10  and  C_11 
REMARK    3  A    between atoms: C_11  and  C_12 
REMARK    4  A    between atoms: C_15  and  O_16 
REMARK    5  A    between atoms: O_16  and  C_17 
REMARK    6  A    between atoms: C_17  and  C_20 
ROOT
HETATM    1  N   UNL     1      41.964 -16.603   0.121  1.00  0.00    -0.243 N 
HETATM    2  C   UNL     1      41.614 -15.258   0.152  1.00  0.00     0.271 C 
HETATM    3  O   UNL     1      42.063 -14.421   0.932  1.00  0.00    -0.266 OA
HETATM    4  H   UNL     1      41.464 -17.248  -0.477  1.00  0.00     0.192 HD
ENDROOT
BRANCH   1   5
HETATM    5  N   UNL     1      42.799 -17.243   1.006  1.00  0.00    -0.183 NA
HETATM    6  C   UNL     1      42.309 -17.682   2.122  1.00  0.00     0.153 C 
BRANCH   6   7
HETATM    7  C   UNL     1      43.163 -18.397   3.058  1.00  0.00     0.018 A 
HETATM    8  C   UNL     1      43.635 -17.847   4.245  1.00  0.00     0.018 A 
HETATM    9  C   UNL     1      43.428 -16.503   4.845  1.00  0.00     0.069 C 
HETATM   10  N   UNL     1      44.403 -18.796   4.869  1.00  0.00    -0.358 N 
HETATM   11  H   UNL     1      44.874 -18.673   5.754  1.00  0.00     0.166 HD
HETATM   12  C   UNL     1      44.446 -19.951   4.129  1.00  0.00     0.043 A 
HETATM   13  C   UNL     1      43.676 -19.736   2.984  1.00  0.00     0.004 A 
HETATM   14  C   UNL     1      45.103 -21.160   4.389  1.00  0.00     0.030 A 
HETATM   15  C   UNL     1      43.559 -20.794   2.057  1.00  0.00     0.014 A 
HETATM   16  C   UNL     1      44.207 -22.011   2.301  1.00  0.00     0.001 A 
HETATM   17  C   UNL     1      44.970 -22.189   3.452  1.00  0.00     0.002 A 
ENDBRANCH   6   7
ENDBRANCH   1   5
BRANCH   2  18
HETATM   18  C   UNL     1      40.623 -14.812  -0.874  1.00  0.00     0.033 A 
HETATM   19  C   UNL     1      40.754 -15.088  -2.240  1.00  0.00     0.020 A 
HETATM   20  C   UNL     1      39.789 -14.621  -3.142  1.00  0.00     0.038 A 
HETATM   21  C   UNL     1      38.681 -13.890  -2.702  1.00  0.00     0.075 A 
HETATM   22  C   UNL     1      38.539 -13.636  -1.339  1.00  0.00     0.038 A 
HETATM   23  C   UNL     1      39.502 -14.096  -0.434  1.00  0.00     0.020 A 
BRANCH  21  24
HETATM   24  O   UNL     1      37.832 -13.494  -3.695  1.00  0.00    -0.279 OA
BRANCH  24  25
HETATM   25  C   UNL     1      36.968 -14.470  -4.285  1.00  0.00     0.418 C 
HETATM   26  F   UNL     1      37.667 -15.208  -5.185  1.00  0.00    -0.169 F 
HETATM   27  F   UNL     1      36.530 -15.310  -3.308  1.00  0.00    -0.169 F 
BRANCH  25  28
HETATM   28  C   UNL     1      35.772 -13.787  -4.946  1.00  0.00     0.455 C 
HETATM   29  F   UNL     1      34.605 -14.406  -4.623  1.00  0.00    -0.205 F 
HETATM   30  F   UNL     1      35.647 -12.498  -4.528  1.00  0.00    -0.205 F 
ENDBRANCH  25  28
ENDBRANCH  24  25
ENDBRANCH  21  24
ENDBRANCH   2  18
TORSDOF 6
ENDMDL
MODEL 6
REMARK VINA RESULT:      -7.9      8.893     11.846
REMARK  6 active torsions:
REMARK  status: ('A' for Active; 'I' for Inactive)
REMARK    1  A    between atoms: C_7  and  C_8 
REMARK    2  A    between atoms: N_9  and  N_10 
REMARK       I    between atoms: N_10  and  C_11 
REMARK    3  A    between atoms: C_11  and  C_12 
REMARK    4  A    between atoms: C_15  and  O_16 
REMARK    5  A    between atoms: O_16  and  C_17 
REMARK    6  A    between atoms: C_17  and  C_20 
ROOT
HETATM    1  N   UNL     1      40.637 -15.635   0.104  1.00  0.00    -0.243 N 
HETATM    2  C   UNL     1      40.882 -15.843   1.457  1.00  0.00     0.271 C 
HETATM    3  O   UNL     1      40.323 -15.258   2.382  1.00  0.00    -0.266 OA
HETATM    4  H   UNL     1      41.222 -16.077  -0.594  1.00  0.00     0.192 HD
ENDROOT
BRANCH   1   5
HETATM    5  N   UNL     1      39.799 -14.687  -0.430  1.00  0.00    -0.183 NA
HETATM    6  C   UNL     1      40.086 -14.179  -1.587  1.00  0.00     0.153 C 
BRANCH   6   7
HETATM    7  C   UNL     1      39.196 -13.202  -2.193  1.00  0.00     0.018 A 
HETATM    8  C   UNL     1      39.308 -11.830  -1.996  1.00  0.00     0.018 A 
HETATM    9  C   UNL     1      40.273 -11.038  -1.189  1.00  0.00     0.069 C 
HETATM   10  N   UNL     1      38.310 -11.221  -2.713  1.00  0.00    -0.358 N 
HETATM   11  H   UNL     1      38.150 -10.225  -2.756  1.00  0.00     0.166 HD
HETATM   12  C   UNL     1      37.549 -12.153  -3.375  1.00  0.00     0.043 A 
HETATM   13  C   UNL     1      38.079 -13.408  -3.071  1.00  0.00     0.004 A 
HETATM   14  C   UNL     1      36.442 -11.975  -4.214  1.00  0.00     0.030 A 
HETATM   15  C   UNL     1      37.464 -14.541  -3.647  1.00  0.00     0.014 A 
HETATM   16  C   UNL     1      36.358 -14.383  -4.490  1.00  0.00     0.001 A 
HETATM   17  C   UNL     1      35.855 -13.116  -4.768  1.00  0.00     0.002 A 
ENDBRANCH   6   7
ENDBRANCH   1   5
BRANCH   2  18
HETATM   18  C   UNL     1      41.899 -16.887   1.790  1.00  0.00     0.033 A 
HETATM   19  C   UNL     1      42.932 -17.259   0.923  1.00  0.00     0.020 A 
HETATM   20  C   UNL     1      43.837 -18.258   1.302  1.00  0.00     0.038 A 
HETATM   21  C   UNL     1      43.738 -18.888   2.547  1.00  0.00     0.075 A 
HETATM   22  C   UNL     1      42.724 -18.501   3.420  1.00  0.00     0.038 A 
HETATM   23  C   UNL     1      41.813 -17.507   3.044  1.00  0.00     0.020 A 
BRANCH  21  24
HETATM   24  O   UNL     1      44.682 -19.848   2.773  1.00  0.00    -0.279 OA
BRANCH  24  25
HETATM   25  C   UNL     1      44.344 -21.214   2.515  1.00  0.00     0.418 C 
HETATM   26  F   UNL     1      43.082 -21.282   2.020  1.00  0.00    -0.169 F 
HETATM   27  F   UNL     1      45.191 -21.699   1.567  1.00  0.00    -0.169 F 
BRANCH  25  28
HETATM   28  C   UNL     1      44.479 -22.042   3.792  1.00  0.00     0.455 C 
HETATM   29  F   UNL     1      44.989 -23.276   3.532  1.00  0.00    -0.205 F 
HETATM   30  F   UNL     1      45.333 -21.455   4.673  1.00  0.00    -0.205 F 
ENDBRANCH  25  28
ENDBRANCH  24  25
ENDBRANCH  21  24
ENDBRANCH   2  18
TORSDOF 6
ENDMDL
MODEL 7
REMARK VINA RESULT:      -7.9      8.219     10.786
REMARK  6 active torsions:
REMARK  status: ('A' for Active; 'I' for Inactive)
REMARK    1  A    between atoms: C_7  and  C_8 
REMARK    2  A    between atoms: N_9  and  N_10 
REMARK       I    between atoms: N_10  and  C_11 
REMARK    3  A    between atoms: C_11  and  C_12 
REMARK    4  A    between atoms: C_15  and  O_16 
REMARK    5  A    between atoms: O_16  and  C_17 
REMARK    6  A    between atoms: C_17  and  C_20 
ROOT
HETATM    1  N   UNL     1      42.012 -16.650   0.124  1.00  0.00    -0.243 N 
HETATM    2  C   UNL     1      41.519 -17.271   1.267  1.00  0.00     0.271 C 
HETATM    3  O   UNL     1      40.359 -17.210   1.668  1.00  0.00    -0.266 OA
HETATM    4  H   UNL     1      43.004 -16.658  -0.073  1.00  0.00     0.192 HD
ENDROOT
BRANCH   1   5
HETATM    5  N   UNL     1      41.316 -15.796  -0.698  1.00  0.00    -0.183 NA
HETATM    6  C   UNL     1      41.118 -14.577  -0.309  1.00  0.00     0.153 C 
BRANCH   6   7
HETATM    7  C   UNL     1      40.418 -13.643  -1.176  1.00  0.00     0.018 A 
HETATM    8  C   UNL     1      39.062 -13.357  -1.067  1.00  0.00     0.018 A 
HETATM    9  C   UNL     1      38.031 -13.872  -0.128  1.00  0.00     0.069 C 
HETATM   10  N   UNL     1      38.747 -12.442  -2.039  1.00  0.00    -0.358 N 
HETATM   11  H   UNL     1      37.828 -12.052  -2.195  1.00  0.00     0.166 HD
HETATM   12  C   UNL     1      39.857 -12.118  -2.780  1.00  0.00     0.043 A 
HETATM   13  C   UNL     1      40.925 -12.853  -2.263  1.00  0.00     0.004 A 
HETATM   14  C   UNL     1      39.990 -11.233  -3.857  1.00  0.00     0.030 A 
HETATM   15  C   UNL     1      42.193 -12.685  -2.861  1.00  0.00     0.014 A 
HETATM   16  C   UNL     1      42.346 -11.804  -3.938  1.00  0.00     0.001 A 
HETATM   17  C   UNL     1      41.257 -11.089  -4.428  1.00  0.00     0.002 A 
ENDBRANCH   6   7
ENDBRANCH   1   5
BRANCH   2  18
HETATM   18  C   UNL     1      42.495 -18.095   2.041  1.00  0.00     0.033 A 
HETATM   19  C   UNL     1      43.076 -17.673   3.243  1.00  0.00     0.020 A 
HETATM   20  C   UNL     1      43.995 -18.499   3.903  1.00  0.00     0.038 A 
HETATM   21  C   UNL     1      44.338 -19.754   3.389  1.00  0.00     0.075 A 
HETATM   22  C   UNL     1      43.743 -20.184   2.205  1.00  0.00     0.038 A 
HETATM   23  C   UNL     1      42.827 -19.361   1.539  1.00  0.00     0.020 A 
BRANCH  21  24
HETATM   24  O   UNL     1      45.253 -20.440   4.134  1.00  0.00    -0.279 OA
BRANCH  24  25
HETATM   25  C   UNL     1      44.795 -21.522   4.951  1.00  0.00     0.418 C 
HETATM   26  F   UNL     1      44.054 -22.375   4.198  1.00  0.00    -0.169 F 
HETATM   27  F   UNL     1      45.878 -22.207   5.412  1.00  0.00    -0.169 F 
BRANCH  25  28
HETATM   28  C   UNL     1      43.988 -20.988   6.133  1.00  0.00     0.455 C 
HETATM   29  F   UNL     1      43.960 -21.880   7.160  1.00  0.00    -0.205 F 
HETATM   30  F   UNL     1      44.541 -19.850   6.633  1.00  0.00    -0.205 F 
ENDBRANCH  25  28
ENDBRANCH  24  25
ENDBRANCH  21  24
ENDBRANCH   2  18
TORSDOF 6
ENDMDL
MODEL 8
REMARK VINA RESULT:      -7.9      8.453     11.554
REMARK  6 active torsions:
REMARK  status: ('A' for Active; 'I' for Inactive)
REMARK    1  A    between atoms: C_7  and  C_8 
REMARK    2  A    between atoms: N_9  and  N_10 
REMARK       I    between atoms: N_10  and  C_11 
REMARK    3  A    between atoms: C_11  and  C_12 
REMARK    4  A    between atoms: C_15  and  O_16 
REMARK    5  A    between atoms: O_16  and  C_17 
REMARK    6  A    between atoms: C_17  and  C_20 
ROOT
HETATM    1  N   UNL     1      42.160 -16.254   1.244  1.00  0.00    -0.243 N 
HETATM    2  C   UNL     1      41.337 -15.134   1.263  1.00  0.00     0.271 C 
HETATM    3  O   UNL     1      41.175 -14.384   2.223  1.00  0.00    -0.266 OA
HETATM    4  H   UNL     1      42.150 -16.882   0.451  1.00  0.00     0.192 HD
ENDROOT
BRANCH   1   5
HETATM    5  N   UNL     1      42.860 -16.763   2.312  1.00  0.00    -0.183 NA
HETATM    6  C   UNL     1      42.453 -17.865   2.858  1.00  0.00     0.153 C 
BRANCH   6   7
HETATM    7  C   UNL     1      43.198 -18.445   3.964  1.00  0.00     0.018 A 
HETATM    8  C   UNL     1      44.086 -19.506   3.824  1.00  0.00     0.018 A 
HETATM    9  C   UNL     1      44.493 -20.282   2.622  1.00  0.00     0.069 C 
HETATM   10  N   UNL     1      44.601 -19.788   5.063  1.00  0.00    -0.358 N 
HETATM   11  H   UNL     1      45.275 -20.515   5.261  1.00  0.00     0.166 HD
HETATM   12  C   UNL     1      44.080 -18.943   6.010  1.00  0.00     0.043 A 
HETATM   13  C   UNL     1      43.195 -18.084   5.354  1.00  0.00     0.004 A 
HETATM   14  C   UNL     1      44.327 -18.875   7.387  1.00  0.00     0.030 A 
HETATM   15  C   UNL     1      42.530 -17.106   6.125  1.00  0.00     0.014 A 
HETATM   16  C   UNL     1      42.766 -17.022   7.502  1.00  0.00     0.001 A 
HETATM   17  C   UNL     1      43.653 -17.897   8.123  1.00  0.00     0.002 A 
ENDBRANCH   6   7
ENDBRANCH   1   5
BRANCH   2  18
HETATM   18  C   UNL     1      40.618 -14.824  -0.009  1.00  0.00     0.033 A 
HETATM   19  C   UNL     1      40.994 -15.344  -1.253  1.00  0.00     0.020 A 
HETATM   20  C   UNL     1      40.277 -14.993  -2.403  1.00  0.00     0.038 A 
HETATM   21  C   UNL     1      39.173 -14.136  -2.334  1.00  0.00     0.075 A 
HETATM   22  C   UNL     1      38.784 -13.636  -1.093  1.00  0.00     0.038 A 
HETATM   23  C   UNL     1      39.500 -13.980   0.060  1.00  0.00     0.020 A 
BRANCH  21  24
HETATM   24  O   UNL     1      38.581 -13.876  -3.536  1.00  0.00    -0.279 OA
BRANCH  24  25
HETATM   25  C   UNL     1      37.569 -14.772  -4.007  1.00  0.00     0.418 C 
HETATM   26  F   UNL     1      38.114 -15.644  -4.894  1.00  0.00    -0.169 F 
HETATM   27  F   UNL     1      37.099 -15.490  -2.951  1.00  0.00    -0.169 F 
BRANCH  25  28
HETATM   28  C   UNL     1      36.422 -13.986  -4.642  1.00  0.00     0.455 C 
HETATM   29  F   UNL     1      35.258 -14.689  -4.603  1.00  0.00    -0.205 F 
HETATM   30  F   UNL     1      36.189 -12.826  -3.972  1.00  0.00    -0.205 F 
ENDBRANCH  25  28
ENDBRANCH  24  25
ENDBRANCH  21  24
ENDBRANCH   2  18
TORSDOF 6
ENDMDL
MODEL 9
REMARK VINA RESULT:      -7.5      8.120     11.018
REMARK  6 active torsions:
REMARK  status: ('A' for Active; 'I' for Inactive)
REMARK    1  A    between atoms: C_7  and  C_8 
REMARK    2  A    between atoms: N_9  and  N_10 
REMARK       I    between atoms: N_10  and  C_11 
REMARK    3  A    between atoms: C_11  and  C_12 
REMARK    4  A    between atoms: C_15  and  O_16 
REMARK    5  A    between atoms: O_16  and  C_17 
REMARK    6  A    between atoms: C_17  and  C_20 
ROOT
HETATM    1  N   UNL     1      41.967 -15.166   0.181  1.00  0.00    -0.243 N 
HETATM    2  C   UNL     1      42.186 -15.297   1.548  1.00  0.00     0.271 C 
HETATM    3  O   UNL     1      41.984 -14.424   2.390  1.00  0.00    -0.266 OA
HETATM    4  H   UNL     1      42.266 -15.894  -0.455  1.00  0.00     0.192 HD
ENDROOT
BRANCH   1   5
HETATM    5  N   UNL     1      41.575 -14.022  -0.470  1.00  0.00    -0.183 NA
HETATM    6  C   UNL     1      42.310 -13.568  -1.435  1.00  0.00     0.153 C 
BRANCH   6   7
HETATM    7  C   UNL     1      41.897 -12.381  -2.166  1.00  0.00     0.018 A 
HETATM    8  C   UNL     1      40.873 -12.372  -3.107  1.00  0.00     0.018 A 
HETATM    9  C   UNL     1      39.989 -13.464  -3.593  1.00  0.00     0.069 C 
HETATM   10  N   UNL     1      40.761 -11.094  -3.591  1.00  0.00    -0.358 N 
HETATM   11  H   UNL     1      40.095 -10.793  -4.289  1.00  0.00     0.166 HD
HETATM   12  C   UNL     1      41.679 -10.265  -2.995  1.00  0.00     0.043 A 
HETATM   13  C   UNL     1      42.409 -11.041  -2.093  1.00  0.00     0.004 A 
HETATM   14  C   UNL     1      41.910  -8.898  -3.187  1.00  0.00     0.030 A 
HETATM   15  C   UNL     1      43.421 -10.404  -1.343  1.00  0.00     0.014 A 
HETATM   16  C   UNL     1      43.666  -9.038  -1.519  1.00  0.00     0.001 A 
HETATM   17  C   UNL     1      42.920  -8.296  -2.430  1.00  0.00     0.002 A 
ENDBRANCH   6   7
ENDBRANCH   1   5
BRANCH   2  18
HETATM   18  C   UNL     1      42.687 -16.626   2.012  1.00  0.00     0.033 A 
HETATM   19  C   UNL     1      43.687 -17.345   1.348  1.00  0.00     0.020 A 
HETATM   20  C   UNL     1      44.092 -18.594   1.837  1.00  0.00     0.038 A 
HETATM   21  C   UNL     1      43.522 -19.136   2.994  1.00  0.00     0.075 A 
HETATM   22  C   UNL     1      42.544 -18.409   3.669  1.00  0.00     0.038 A 
HETATM   23  C   UNL     1      42.132 -17.163   3.181  1.00  0.00     0.020 A 
BRANCH  21  24
HETATM   24  O   UNL     1      44.009 -20.362   3.344  1.00  0.00    -0.279 OA
BRANCH  24  25
HETATM   25  C   UNL     1      44.816 -20.467   4.521  1.00  0.00     0.418 C 
HETATM   26  F   UNL     1      46.122 -20.295   4.191  1.00  0.00    -0.169 F 
HETATM   27  F   UNL     1      44.468 -19.468   5.377  1.00  0.00    -0.169 F 
BRANCH  25  28
HETATM   28  C   UNL     1      44.593 -21.820   5.196  1.00  0.00     0.455 C 
HETATM   29  F   UNL     1      45.758 -22.513   5.315  1.00  0.00    -0.205 F 
HETATM   30  F   UNL     1      44.110 -21.668   6.458  1.00  0.00    -0.205 F 
ENDBRANCH  25  28
ENDBRANCH  24  25
ENDBRANCH  21  24
ENDBRANCH   2  18
TORSDOF 6
ENDMDL
MODEL 10
REMARK VINA RESULT:      -7.5      8.133     10.790
REMARK  6 active torsions:
REMARK  status: ('A' for Active; 'I' for Inactive)
REMARK    1  A    between atoms: C_7  and  C_8 
REMARK    2  A    between atoms: N_9  and  N_10 
REMARK       I    between atoms: N_10  and  C_11 
REMARK    3  A    between atoms: C_11  and  C_12 
REMARK    4  A    between atoms: C_15  and  O_16 
REMARK    5  A    between atoms: O_16  and  C_17 
REMARK    6  A    between atoms: C_17  and  C_20 
ROOT
HETATM    1  N   UNL     1      42.120 -16.463   0.173  1.00  0.00    -0.243 N 
HETATM    2  C   UNL     1      41.658 -16.985   1.376  1.00  0.00     0.271 C 
HETATM    3  O   UNL     1      40.548 -16.782   1.862  1.00  0.00    -0.266 OA
HETATM    4  H   UNL     1      43.087 -16.588  -0.099  1.00  0.00     0.192 HD
ENDROOT
BRANCH   1   5
HETATM    5  N   UNL     1      41.456 -15.567  -0.630  1.00  0.00    -0.183 NA
HETATM    6  C   UNL     1      41.706 -14.303  -0.496  1.00  0.00     0.153 C 
BRANCH   6   7
HETATM    7  C   UNL     1      41.045 -13.337  -1.359  1.00  0.00     0.018 A 
HETATM    8  C   UNL     1      41.560 -12.077  -1.641  1.00  0.00     0.018 A 
HETATM    9  C   UNL     1      42.811 -11.412  -1.188  1.00  0.00     0.069 C 
HETATM   10  N   UNL     1      40.680 -11.443  -2.481  1.00  0.00    -0.358 N 
HETATM   11  H   UNL     1      40.799 -10.510  -2.851  1.00  0.00     0.166 HD
HETATM   12  C   UNL     1      39.606 -12.251  -2.759  1.00  0.00     0.043 A 
HETATM   13  C   UNL     1      39.804 -13.450  -2.071  1.00  0.00     0.004 A 
HETATM   14  C   UNL     1      38.486 -12.009  -3.564  1.00  0.00     0.030 A 
HETATM   15  C   UNL     1      38.824 -14.458  -2.206  1.00  0.00     0.014 A 
HETATM   16  C   UNL     1      37.699 -14.235  -3.008  1.00  0.00     0.001 A 
HETATM   17  C   UNL     1      37.533 -13.026  -3.676  1.00  0.00     0.002 A 
ENDBRANCH   6   7
ENDBRANCH   1   5
BRANCH   2  18
HETATM   18  C   UNL     1      42.599 -17.885   2.109  1.00  0.00     0.033 A 
HETATM   19  C   UNL     1      43.250 -17.518   3.292  1.00  0.00     0.020 A 
HETATM   20  C   UNL     1      44.130 -18.414   3.912  1.00  0.00     0.038 A 
HETATM   21  C   UNL     1      44.364 -19.684   3.377  1.00  0.00     0.075 A 
HETATM   22  C   UNL     1      43.699 -20.059   2.211  1.00  0.00     0.038 A 
HETATM   23  C   UNL     1      42.821 -19.166   1.585  1.00  0.00     0.020 A 
BRANCH  21  24
HETATM   24  O   UNL     1      45.253 -20.442   4.084  1.00  0.00    -0.279 OA
BRANCH  24  25
HETATM   25  C   UNL     1      44.747 -21.481   4.927  1.00  0.00     0.418 C 
HETATM   26  F   UNL     1      43.960 -22.313   4.197  1.00  0.00    -0.169 F 
HETATM   27  F   UNL     1      45.796 -22.208   5.399  1.00  0.00    -0.169 F 
BRANCH  25  28
HETATM   28  C   UNL     1      43.973 -20.880   6.099  1.00  0.00     0.455 C 
HETATM   29  F   UNL     1      43.759 -21.802   7.078  1.00  0.00    -0.205 F 
HETATM   30  F   UNL     1      44.667 -19.864   6.679  1.00  0.00    -0.205 F 
ENDBRANCH  25  28
ENDBRANCH  24  25
ENDBRANCH  21  24
ENDBRANCH   2  18
TORSDOF 6
ENDMDL
