MODEL 1
REMARK VINA RESULT:      -8.7      0.000      0.000
REMARK  9 active torsions:
REMARK  status: ('A' for Active; 'I' for Inactive)
REMARK    1  A    between atoms: C_2  and  C_3 
REMARK    2  A    between atoms: C_3  and  O_4 
REMARK    3  A    between atoms: O_4  and  C_5 
REMARK    4  A    between atoms: C_8  and  C_9 
REMARK       I    between atoms: C_9  and  N_10 
REMARK    5  A    between atoms: N_10  and  C_11 
REMARK    6  A    between atoms: C_11  and  N_12 
REMARK    7  A    between atoms: N_12  and  C_13 
REMARK    8  A    between atoms: C_15  and  C_16 
REMARK    9  A    between atoms: C_25  and  O_26 
ROOT
HETATM    1  C   UNL     1      42.712 -13.967   4.984  1.00  0.00     0.035 A 
HETATM    2  C   UNL     1      42.601 -14.102   3.595  1.00  0.00     0.046 A 
HETATM    3  C   UNL     1      41.416 -13.760   2.913  1.00  0.00     0.036 A 
HETATM    4  C   UNL     1      40.328 -13.291   3.670  1.00  0.00     0.084 A 
HETATM    5  C   UNL     1      40.407 -13.193   5.069  1.00  0.00    -0.026 A 
HETATM    6  C   UNL     1      39.229 -12.744   5.889  1.00  0.00     0.051 C 
HETATM    7  C   UNL     1      41.597 -13.557   5.715  1.00  0.00     0.039 A 
ENDROOT
BRANCH   1   8
HETATM    8  N   UNL     1      43.958 -14.270   5.571  1.00  0.00    -0.333 N 
HETATM    9  H   UNL     1      44.749 -14.333   4.935  1.00  0.00     0.168 HD
BRANCH   8  10
HETATM   10  C   UNL     1      44.338 -14.357   6.894  1.00  0.00     0.179 C 
HETATM   11  S   UNL     1      45.490 -13.269   7.420  1.00  0.00    -0.040 SA
BRANCH  10  12
HETATM   12  N   UNL     1      43.634 -15.268   7.666  1.00  0.00    -0.299 N 
HETATM   13  C   UNL     1      43.443 -16.642   7.603  1.00  0.00     0.257 C 
HETATM   14  O   UNL     1      43.462 -17.284   8.654  1.00  0.00    -0.267 OA
HETATM   15  H   UNL     1      43.696 -15.035   8.650  1.00  0.00     0.171 HD
BRANCH  13  16
HETATM   16  C   UNL     1      43.247 -17.367   6.331  1.00  0.00     0.032 A 
HETATM   17  C   UNL     1      41.961 -17.348   5.779  1.00  0.00     0.020 A 
HETATM   18  C   UNL     1      41.719 -17.912   4.525  1.00  0.00     0.038 A 
HETATM   19  C   UNL     1      42.768 -18.477   3.800  1.00  0.00     0.068 A 
HETATM   20  C   UNL     1      44.051 -18.508   4.360  1.00  0.00     0.038 A 
HETATM   21  C   UNL     1      44.300 -17.945   5.620  1.00  0.00     0.020 A 
BRANCH  19  22
HETATM   22  O   UNL     1      42.662 -19.013   2.544  1.00  0.00    -0.351 OA
BRANCH  22  23
HETATM   23  C   UNL     1      43.833 -19.649   2.025  1.00  0.00     0.175 C 
BRANCH  23  24
HETATM   24  C   UNL     1      43.540 -21.124   1.761  1.00  0.00     0.022 C 
HETATM   25  C   UNL     1      44.409 -22.044   2.607  1.00  0.00     0.007 C 
ENDBRANCH  23  24
ENDBRANCH  22  23
ENDBRANCH  19  22
ENDBRANCH  13  16
ENDBRANCH  10  12
ENDBRANCH   8  10
ENDBRANCH   1   8
BRANCH   3  26
HETATM   26  C   UNL     1      41.425 -13.855   1.443  1.00  0.00     0.112 A 
HETATM   27  S   UNL     1      41.914 -12.527   0.463  1.00  0.00    -0.067 SA
HETATM   28  C   UNL     1      41.691 -13.476  -0.954  1.00  0.00     0.035 A 
HETATM   29  C   UNL     1      41.209 -14.731  -0.586  1.00  0.00     0.075 A 
HETATM   30  C   UNL     1      41.926 -13.134  -2.297  1.00  0.00     0.021 A 
HETATM   31  N   UNL     1      41.040 -14.924   0.775  1.00  0.00    -0.239 NA
HETATM   32  C   UNL     1      40.948 -15.680  -1.595  1.00  0.00     0.033 A 
HETATM   33  C   UNL     1      41.182 -15.353  -2.935  1.00  0.00     0.002 A 
HETATM   34  C   UNL     1      41.667 -14.095  -3.279  1.00  0.00     0.002 A 
ENDBRANCH   3  26
BRANCH   4  35
HETATM   35  O   UNL     1      39.148 -12.877   3.107  1.00  0.00    -0.359 OA
HETATM   36  H   UNL     1      38.859 -12.045   3.517  1.00  0.00     0.218 HD
ENDBRANCH   4  35
TORSDOF 9
ENDMDL
MODEL 2
REMARK VINA RESULT:      -8.4      2.425      6.189
REMARK  9 active torsions:
REMARK  status: ('A' for Active; 'I' for Inactive)
REMARK    1  A    between atoms: C_2  and  C_3 
REMARK    2  A    between atoms: C_3  and  O_4 
REMARK    3  A    between atoms: O_4  and  C_5 
REMARK    4  A    between atoms: C_8  and  C_9 
REMARK       I    between atoms: C_9  and  N_10 
REMARK    5  A    between atoms: N_10  and  C_11 
REMARK    6  A    between atoms: C_11  and  N_12 
REMARK    7  A    between atoms: N_12  and  C_13 
REMARK    8  A    between atoms: C_15  and  C_16 
REMARK    9  A    between atoms: C_25  and  O_26 
ROOT
HETATM    1  C   UNL     1      39.899 -12.651   3.656  1.00  0.00     0.035 A 
HETATM    2  C   UNL     1      40.605 -13.809   4.006  1.00  0.00     0.046 A 
HETATM    3  C   UNL     1      41.506 -13.824   5.089  1.00  0.00     0.036 A 
HETATM    4  C   UNL     1      41.697 -12.631   5.810  1.00  0.00     0.084 A 
HETATM    5  C   UNL     1      41.031 -11.450   5.443  1.00  0.00    -0.026 A 
HETATM    6  C   UNL     1      41.273 -10.158   6.176  1.00  0.00     0.051 C 
HETATM    7  C   UNL     1      40.154 -11.468   4.349  1.00  0.00     0.039 A 
ENDROOT
BRANCH   1   8
HETATM    8  N   UNL     1      38.969 -12.749   2.600  1.00  0.00    -0.333 N 
HETATM    9  H   UNL     1      38.098 -12.239   2.722  1.00  0.00     0.168 HD
BRANCH   8  10
HETATM   10  C   UNL     1      39.084 -13.302   1.342  1.00  0.00     0.179 C 
HETATM   11  S   UNL     1      37.703 -13.974   0.686  1.00  0.00    -0.040 SA
BRANCH  10  12
HETATM   12  N   UNL     1      40.311 -13.135   0.717  1.00  0.00    -0.299 N 
HETATM   13  C   UNL     1      41.267 -14.011   0.220  1.00  0.00     0.257 C 
HETATM   14  O   UNL     1      41.813 -13.734  -0.849  1.00  0.00    -0.267 OA
HETATM   15  H   UNL     1      40.290 -12.346   0.083  1.00  0.00     0.171 HD
BRANCH  13  16
HETATM   16  C   UNL     1      41.635 -15.268   0.901  1.00  0.00     0.032 A 
HETATM   17  C   UNL     1      40.795 -16.371   0.701  1.00  0.00     0.020 A 
HETATM   18  C   UNL     1      41.133 -17.623   1.217  1.00  0.00     0.038 A 
HETATM   19  C   UNL     1      42.329 -17.790   1.914  1.00  0.00     0.068 A 
HETATM   20  C   UNL     1      43.161 -16.683   2.125  1.00  0.00     0.038 A 
HETATM   21  C   UNL     1      42.825 -15.422   1.612  1.00  0.00     0.020 A 
BRANCH  19  22
HETATM   22  O   UNL     1      42.789 -18.977   2.421  1.00  0.00    -0.351 OA
BRANCH  22  23
HETATM   23  C   UNL     1      44.210 -19.125   2.498  1.00  0.00     0.175 C 
BRANCH  23  24
HETATM   24  C   UNL     1      44.558 -20.586   2.769  1.00  0.00     0.022 C 
HETATM   25  C   UNL     1      43.810 -21.537   1.846  1.00  0.00     0.007 C 
ENDBRANCH  23  24
ENDBRANCH  22  23
ENDBRANCH  19  22
ENDBRANCH  13  16
ENDBRANCH  10  12
ENDBRANCH   8  10
ENDBRANCH   1   8
BRANCH   3  26
HETATM   26  C   UNL     1      42.136 -15.111   5.434  1.00  0.00     0.112 A 
HETATM   27  S   UNL     1      41.257 -16.588   5.348  1.00  0.00    -0.067 SA
HETATM   28  C   UNL     1      42.663 -17.464   5.810  1.00  0.00     0.035 A 
HETATM   29  C   UNL     1      43.700 -16.562   6.047  1.00  0.00     0.075 A 
HETATM   30  C   UNL     1      42.837 -18.851   5.952  1.00  0.00     0.021 A 
HETATM   31  N   UNL     1      43.379 -15.229   5.853  1.00  0.00    -0.239 NA
HETATM   32  C   UNL     1      44.956 -17.063   6.445  1.00  0.00     0.033 A 
HETATM   33  C   UNL     1      45.143 -18.442   6.586  1.00  0.00     0.002 A 
HETATM   34  C   UNL     1      44.095 -19.323   6.340  1.00  0.00     0.002 A 
ENDBRANCH   3  26
BRANCH   4  35
HETATM   35  O   UNL     1      42.504 -12.545   6.914  1.00  0.00    -0.359 OA
HETATM   36  H   UNL     1      42.656 -11.613   7.142  1.00  0.00     0.218 HD
ENDBRANCH   4  35
TORSDOF 9
ENDMDL
MODEL 3
REMARK VINA RESULT:      -8.4      2.174      5.691
REMARK  9 active torsions:
REMARK  status: ('A' for Active; 'I' for Inactive)
REMARK    1  A    between atoms: C_2  and  C_3 
REMARK    2  A    between atoms: C_3  and  O_4 
REMARK    3  A    between atoms: O_4  and  C_5 
REMARK    4  A    between atoms: C_8  and  C_9 
REMARK       I    between atoms: C_9  and  N_10 
REMARK    5  A    between atoms: N_10  and  C_11 
REMARK    6  A    between atoms: C_11  and  N_12 
REMARK    7  A    between atoms: N_12  and  C_13 
REMARK    8  A    between atoms: C_15  and  C_16 
REMARK    9  A    between atoms: C_25  and  O_26 
ROOT
HETATM    1  C   UNL     1      44.347 -18.366   4.886  1.00  0.00     0.035 A 
HETATM    2  C   UNL     1      43.536 -17.560   4.079  1.00  0.00     0.046 A 
HETATM    3  C   UNL     1      42.975 -18.044   2.880  1.00  0.00     0.036 A 
HETATM    4  C   UNL     1      43.268 -19.365   2.498  1.00  0.00     0.084 A 
HETATM    5  C   UNL     1      44.117 -20.172   3.272  1.00  0.00    -0.026 A 
HETATM    6  C   UNL     1      44.477 -21.568   2.840  1.00  0.00     0.051 C 
HETATM    7  C   UNL     1      44.670 -19.652   4.451  1.00  0.00     0.039 A 
ENDROOT
BRANCH   1   8
HETATM    8  N   UNL     1      44.809 -17.818   6.101  1.00  0.00    -0.333 N 
HETATM    9  H   UNL     1      45.748 -18.085   6.385  1.00  0.00     0.168 HD
BRANCH   8  10
HETATM   10  C   UNL     1      44.265 -16.852   6.922  1.00  0.00     0.179 C 
HETATM   11  S   UNL     1      42.963 -17.308   7.862  1.00  0.00    -0.040 SA
BRANCH  10  12
HETATM   12  N   UNL     1      44.937 -15.639   6.955  1.00  0.00    -0.299 N 
HETATM   13  C   UNL     1      44.569 -14.326   6.697  1.00  0.00     0.257 C 
HETATM   14  O   UNL     1      44.997 -13.442   7.441  1.00  0.00    -0.267 OA
HETATM   15  H   UNL     1      45.586 -15.606   7.732  1.00  0.00     0.171 HD
BRANCH  13  16
HETATM   16  C   UNL     1      43.668 -13.948   5.589  1.00  0.00     0.032 A 
HETATM   17  C   UNL     1      42.493 -13.264   5.929  1.00  0.00     0.020 A 
HETATM   18  C   UNL     1      41.646 -12.773   4.934  1.00  0.00     0.038 A 
HETATM   19  C   UNL     1      41.980 -12.938   3.590  1.00  0.00     0.068 A 
HETATM   20  C   UNL     1      43.147 -13.634   3.253  1.00  0.00     0.038 A 
HETATM   21  C   UNL     1      44.001 -14.132   4.247  1.00  0.00     0.020 A 
BRANCH  19  22
HETATM   22  O   UNL     1      41.255 -12.457   2.531  1.00  0.00    -0.351 OA
BRANCH  22  23
HETATM   23  C   UNL     1      41.993 -12.152   1.345  1.00  0.00     0.175 C 
BRANCH  23  24
HETATM   24  C   UNL     1      41.226 -11.127   0.514  1.00  0.00     0.022 C 
HETATM   25  C   UNL     1      40.418 -10.171   1.382  1.00  0.00     0.007 C 
ENDBRANCH  23  24
ENDBRANCH  22  23
ENDBRANCH  19  22
ENDBRANCH  13  16
ENDBRANCH  10  12
ENDBRANCH   8  10
ENDBRANCH   1   8
BRANCH   3  26
HETATM   26  C   UNL     1      42.065 -17.149   2.144  1.00  0.00     0.112 A 
HETATM   27  S   UNL     1      40.644 -16.516   2.879  1.00  0.00    -0.067 SA
HETATM   28  C   UNL     1      40.288 -15.626   1.452  1.00  0.00     0.035 A 
HETATM   29  C   UNL     1      41.255 -15.910   0.489  1.00  0.00     0.075 A 
HETATM   30  C   UNL     1      39.228 -14.737   1.202  1.00  0.00     0.021 A 
HETATM   31  N   UNL     1      42.244 -16.794   0.888  1.00  0.00    -0.239 NA
HETATM   32  C   UNL     1      41.159 -15.288  -0.772  1.00  0.00     0.033 A 
HETATM   33  C   UNL     1      40.112 -14.398  -1.032  1.00  0.00     0.002 A 
HETATM   34  C   UNL     1      39.160 -14.126  -0.054  1.00  0.00     0.002 A 
ENDBRANCH   3  26
BRANCH   4  35
HETATM   35  O   UNL     1      42.733 -19.958   1.382  1.00  0.00    -0.359 OA
HETATM   36  H   UNL     1      41.840 -20.288   1.578  1.00  0.00     0.218 HD
ENDBRANCH   4  35
TORSDOF 9
ENDMDL
MODEL 4
REMARK VINA RESULT:      -8.3      2.517      5.584
REMARK  9 active torsions:
REMARK  status: ('A' for Active; 'I' for Inactive)
REMARK    1  A    between atoms: C_2  and  C_3 
REMARK    2  A    between atoms: C_3  and  O_4 
REMARK    3  A    between atoms: O_4  and  C_5 
REMARK    4  A    between atoms: C_8  and  C_9 
REMARK       I    between atoms: C_9  and  N_10 
REMARK    5  A    between atoms: N_10  and  C_11 
REMARK    6  A    between atoms: C_11  and  N_12 
REMARK    7  A    between atoms: N_12  and  C_13 
REMARK    8  A    between atoms: C_15  and  C_16 
REMARK    9  A    between atoms: C_25  and  O_26 
ROOT
HETATM    1  C   UNL     1      40.206 -14.503   2.540  1.00  0.00     0.035 A 
HETATM    2  C   UNL     1      40.919 -15.683   2.783  1.00  0.00     0.046 A 
HETATM    3  C   UNL     1      41.560 -16.385   1.742  1.00  0.00     0.036 A 
HETATM    4  C   UNL     1      41.451 -15.876   0.435  1.00  0.00     0.084 A 
HETATM    5  C   UNL     1      40.702 -14.719   0.168  1.00  0.00    -0.026 A 
HETATM    6  C   UNL     1      40.537 -14.201  -1.235  1.00  0.00     0.051 C 
HETATM    7  C   UNL     1      40.064 -14.055   1.226  1.00  0.00     0.039 A 
ENDROOT
BRANCH   1   8
HETATM    8  N   UNL     1      39.655 -13.833   3.652  1.00  0.00    -0.333 N 
HETATM    9  H   UNL     1      38.694 -14.069   3.886  1.00  0.00     0.168 HD
BRANCH   8  10
HETATM   10  C   UNL     1      40.236 -13.006   4.590  1.00  0.00     0.179 C 
HETATM   11  S   UNL     1      39.284 -12.545   5.882  1.00  0.00    -0.040 SA
BRANCH  10  12
HETATM   12  N   UNL     1      41.586 -12.743   4.410  1.00  0.00    -0.299 N 
HETATM   13  C   UNL     1      42.742 -13.500   4.541  1.00  0.00     0.257 C 
HETATM   14  O   UNL     1      43.628 -13.365   3.696  1.00  0.00    -0.267 OA
HETATM   15  H   UNL     1      41.733 -12.134   3.615  1.00  0.00     0.171 HD
BRANCH  13  16
HETATM   16  C   UNL     1      42.942 -14.478   5.631  1.00  0.00     0.032 A 
HETATM   17  C   UNL     1      41.897 -15.376   5.880  1.00  0.00     0.020 A 
HETATM   18  C   UNL     1      42.051 -16.401   6.815  1.00  0.00     0.038 A 
HETATM   19  C   UNL     1      43.263 -16.553   7.489  1.00  0.00     0.068 A 
HETATM   20  C   UNL     1      44.301 -15.646   7.249  1.00  0.00     0.038 A 
HETATM   21  C   UNL     1      44.152 -14.612   6.313  1.00  0.00     0.020 A 
BRANCH  19  22
HETATM   22  O   UNL     1      43.547 -17.548   8.388  1.00  0.00    -0.351 OA
BRANCH  22  23
HETATM   23  C   UNL     1      44.306 -18.653   7.890  1.00  0.00     0.175 C 
BRANCH  23  24
HETATM   24  C   UNL     1      43.395 -19.584   7.096  1.00  0.00     0.022 C 
HETATM   25  C   UNL     1      43.743 -21.051   7.308  1.00  0.00     0.007 C 
ENDBRANCH  23  24
ENDBRANCH  22  23
ENDBRANCH  19  22
ENDBRANCH  13  16
ENDBRANCH  10  12
ENDBRANCH   8  10
ENDBRANCH   1   8
BRANCH   3  26
HETATM   26  C   UNL     1      42.357 -17.568   2.109  1.00  0.00     0.112 A 
HETATM   27  S   UNL     1      43.506 -17.511   3.389  1.00  0.00    -0.067 SA
HETATM   28  C   UNL     1      43.860 -19.179   3.160  1.00  0.00     0.035 A 
HETATM   29  C   UNL     1      43.111 -19.656   2.086  1.00  0.00     0.075 A 
HETATM   30  C   UNL     1      44.737 -20.006   3.881  1.00  0.00     0.021 A 
HETATM   31  N   UNL     1      42.281 -18.725   1.484  1.00  0.00    -0.239 NA
HETATM   32  C   UNL     1      43.245 -21.009   1.713  1.00  0.00     0.033 A 
HETATM   33  C   UNL     1      44.113 -21.844   2.426  1.00  0.00     0.002 A 
HETATM   34  C   UNL     1      44.847 -21.347   3.497  1.00  0.00     0.002 A 
ENDBRANCH   3  26
BRANCH   4  35
HETATM   35  O   UNL     1      42.080 -16.444  -0.643  1.00  0.00    -0.359 OA
HETATM   36  H   UNL     1      42.965 -16.058  -0.752  1.00  0.00     0.218 HD
ENDBRANCH   4  35
TORSDOF 9
ENDMDL
MODEL 5
REMARK VINA RESULT:      -8.3      2.488      3.364
REMARK  9 active torsions:
REMARK  status: ('A' for Active; 'I' for Inactive)
REMARK    1  A    between atoms: C_2  and  C_3 
REMARK    2  A    between atoms: C_3  and  O_4 
REMARK    3  A    between atoms: O_4  and  C_5 
REMARK    4  A    between atoms: C_8  and  C_9 
REMARK       I    between atoms: C_9  and  N_10 
REMARK    5  A    between atoms: N_10  and  C_11 
REMARK    6  A    between atoms: C_11  and  N_12 
REMARK    7  A    between atoms: N_12  and  C_13 
REMARK    8  A    between atoms: C_15  and  C_16 
REMARK    9  A    between atoms: C_25  and  O_26 
ROOT
HETATM    1  C   UNL     1      42.044 -15.647   3.827  1.00  0.00     0.035 A 
HETATM    2  C   UNL     1      41.182 -14.944   2.977  1.00  0.00     0.046 A 
HETATM    3  C   UNL     1      41.190 -15.152   1.582  1.00  0.00     0.036 A 
HETATM    4  C   UNL     1      42.107 -16.080   1.056  1.00  0.00     0.084 A 
HETATM    5  C   UNL     1      43.010 -16.759   1.891  1.00  0.00    -0.026 A 
HETATM    6  C   UNL     1      44.029 -17.712   1.327  1.00  0.00     0.051 C 
HETATM    7  C   UNL     1      42.984 -16.515   3.271  1.00  0.00     0.039 A 
ENDROOT
BRANCH   1   8
HETATM    8  N   UNL     1      41.918 -15.422   5.214  1.00  0.00    -0.333 N 
HETATM    9  H   UNL     1      40.981 -15.507   5.598  1.00  0.00     0.168 HD
BRANCH   8  10
HETATM   10  C   UNL     1      42.874 -15.246   6.192  1.00  0.00     0.179 C 
HETATM   11  S   UNL     1      44.022 -14.065   5.920  1.00  0.00    -0.040 SA
BRANCH  10  12
HETATM   12  N   UNL     1      42.704 -15.997   7.346  1.00  0.00    -0.299 N 
HETATM   13  C   UNL     1      43.380 -17.074   7.904  1.00  0.00     0.257 C 
HETATM   14  O   UNL     1      43.557 -17.085   9.123  1.00  0.00    -0.267 OA
HETATM   15  H   UNL     1      42.412 -15.413   8.119  1.00  0.00     0.171 HD
BRANCH  13  16
HETATM   16  C   UNL     1      43.917 -18.189   7.098  1.00  0.00     0.032 A 
HETATM   17  C   UNL     1      43.495 -19.481   7.437  1.00  0.00     0.020 A 
HETATM   18  C   UNL     1      43.867 -20.576   6.655  1.00  0.00     0.038 A 
HETATM   19  C   UNL     1      44.643 -20.386   5.512  1.00  0.00     0.068 A 
HETATM   20  C   UNL     1      45.075 -19.095   5.183  1.00  0.00     0.038 A 
HETATM   21  C   UNL     1      44.707 -17.991   5.965  1.00  0.00     0.020 A 
BRANCH  19  22
HETATM   22  O   UNL     1      45.026 -21.374   4.643  1.00  0.00    -0.351 OA
BRANCH  22  23
HETATM   23  C   UNL     1      44.927 -21.066   3.250  1.00  0.00     0.175 C 
BRANCH  23  24
HETATM   24  C   UNL     1      43.983 -22.056   2.573  1.00  0.00     0.022 C 
HETATM   25  C   UNL     1      43.976 -21.900   1.058  1.00  0.00     0.007 C 
ENDBRANCH  23  24
ENDBRANCH  22  23
ENDBRANCH  19  22
ENDBRANCH  13  16
ENDBRANCH  10  12
ENDBRANCH   8  10
ENDBRANCH   1   8
BRANCH   3  26
HETATM   26  C   UNL     1      40.187 -14.430   0.781  1.00  0.00     0.112 A 
HETATM   27  S   UNL     1      39.103 -13.306   1.504  1.00  0.00    -0.067 SA
HETATM   28  C   UNL     1      38.427 -12.950  -0.037  1.00  0.00     0.035 A 
HETATM   29  C   UNL     1      39.042 -13.752  -0.997  1.00  0.00     0.075 A 
HETATM   30  C   UNL     1      37.423 -12.026  -0.372  1.00  0.00     0.021 A 
HETATM   31  N   UNL     1      40.023 -14.604  -0.515  1.00  0.00    -0.239 NA
HETATM   32  C   UNL     1      38.639 -13.630  -2.341  1.00  0.00     0.033 A 
HETATM   33  C   UNL     1      37.643 -12.711  -2.689  1.00  0.00     0.002 A 
HETATM   34  C   UNL     1      37.046 -11.918  -1.715  1.00  0.00     0.002 A 
ENDBRANCH   3  26
BRANCH   4  35
HETATM   35  O   UNL     1      42.164 -16.403  -0.275  1.00  0.00    -0.359 OA
HETATM   36  H   UNL     1      42.315 -15.602  -0.804  1.00  0.00     0.218 HD
ENDBRANCH   4  35
TORSDOF 9
ENDMDL
MODEL 6
REMARK VINA RESULT:      -8.2      4.310      8.182
REMARK  9 active torsions:
REMARK  status: ('A' for Active; 'I' for Inactive)
REMARK    1  A    between atoms: C_2  and  C_3 
REMARK    2  A    between atoms: C_3  and  O_4 
REMARK    3  A    between atoms: O_4  and  C_5 
REMARK    4  A    between atoms: C_8  and  C_9 
REMARK       I    between atoms: C_9  and  N_10 
REMARK    5  A    between atoms: N_10  and  C_11 
REMARK    6  A    between atoms: C_11  and  N_12 
REMARK    7  A    between atoms: N_12  and  C_13 
REMARK    8  A    between atoms: C_15  and  C_16 
REMARK    9  A    between atoms: C_25  and  O_26 
ROOT
HETATM    1  C   UNL     1      40.386 -14.196   4.405  1.00  0.00     0.035 A 
HETATM    2  C   UNL     1      41.161 -15.361   4.375  1.00  0.00     0.046 A 
HETATM    3  C   UNL     1      41.143 -16.231   3.266  1.00  0.00     0.036 A 
HETATM    4  C   UNL     1      40.305 -15.906   2.183  1.00  0.00     0.084 A 
HETATM    5  C   UNL     1      39.487 -14.765   2.217  1.00  0.00    -0.026 A 
HETATM    6  C   UNL     1      38.549 -14.442   1.086  1.00  0.00     0.051 C 
HETATM    7  C   UNL     1      39.519 -13.931   3.344  1.00  0.00     0.039 A 
ENDROOT
BRANCH   1   8
HETATM    8  N   UNL     1      40.520 -13.353   5.528  1.00  0.00    -0.333 N 
HETATM    9  H   UNL     1      39.767 -13.393   6.210  1.00  0.00     0.168 HD
BRANCH   8  10
HETATM   10  C   UNL     1      41.575 -12.572   5.954  1.00  0.00     0.179 C 
HETATM   11  S   UNL     1      43.081 -13.292   5.982  1.00  0.00    -0.040 SA
BRANCH  10  12
HETATM   12  N   UNL     1      41.279 -11.240   6.202  1.00  0.00    -0.299 N 
HETATM   13  C   UNL     1      41.669 -10.332   7.178  1.00  0.00     0.257 C 
HETATM   14  O   UNL     1      41.913  -9.175   6.835  1.00  0.00    -0.267 OA
HETATM   15  H   UNL     1      41.209 -10.717   5.339  1.00  0.00     0.171 HD
BRANCH  13  16
HETATM   16  C   UNL     1      41.828 -10.701   8.600  1.00  0.00     0.032 A 
HETATM   17  C   UNL     1      43.129 -10.957   9.049  1.00  0.00     0.020 A 
HETATM   18  C   UNL     1      43.377 -11.200  10.401  1.00  0.00     0.038 A 
HETATM   19  C   UNL     1      42.328 -11.162  11.320  1.00  0.00     0.068 A 
HETATM   20  C   UNL     1      41.026 -10.919  10.867  1.00  0.00     0.038 A 
HETATM   21  C   UNL     1      40.770 -10.677   9.510  1.00  0.00     0.020 A 
BRANCH  19  22
HETATM   22  O   UNL     1      42.457 -11.334  12.674  1.00  0.00    -0.351 OA
BRANCH  22  23
HETATM   23  C   UNL     1      41.411 -10.791  13.484  1.00  0.00     0.175 C 
BRANCH  23  24
HETATM   24  C   UNL     1      42.017  -9.969  14.618  1.00  0.00     0.022 C 
HETATM   25  C   UNL     1      43.249  -9.194  14.173  1.00  0.00     0.007 C 
ENDBRANCH  23  24
ENDBRANCH  22  23
ENDBRANCH  19  22
ENDBRANCH  13  16
ENDBRANCH  10  12
ENDBRANCH   8  10
ENDBRANCH   1   8
BRANCH   3  26
HETATM   26  C   UNL     1      42.057 -17.385   3.290  1.00  0.00     0.112 A 
HETATM   27  S   UNL     1      43.083 -17.686   4.639  1.00  0.00    -0.067 SA
HETATM   28  C   UNL     1      43.670 -19.118   3.888  1.00  0.00     0.035 A 
HETATM   29  C   UNL     1      43.077 -19.244   2.632  1.00  0.00     0.075 A 
HETATM   30  C   UNL     1      44.589 -20.062   4.375  1.00  0.00     0.021 A 
HETATM   31  N   UNL     1      42.182 -18.242   2.297  1.00  0.00    -0.239 NA
HETATM   32  C   UNL     1      43.417 -20.353   1.831  1.00  0.00     0.033 A 
HETATM   33  C   UNL     1      44.327 -21.303   2.307  1.00  0.00     0.002 A 
HETATM   34  C   UNL     1      44.903 -21.158   3.565  1.00  0.00     0.002 A 
ENDBRANCH   3  26
BRANCH   4  35
HETATM   35  O   UNL     1      40.250 -16.647   1.031  1.00  0.00    -0.359 OA
HETATM   36  H   UNL     1      40.521 -17.563   1.213  1.00  0.00     0.218 HD
ENDBRANCH   4  35
TORSDOF 9
ENDMDL
MODEL 7
REMARK VINA RESULT:      -8.1      2.729      7.207
REMARK  9 active torsions:
REMARK  status: ('A' for Active; 'I' for Inactive)
REMARK    1  A    between atoms: C_2  and  C_3 
REMARK    2  A    between atoms: C_3  and  O_4 
REMARK    3  A    between atoms: O_4  and  C_5 
REMARK    4  A    between atoms: C_8  and  C_9 
REMARK       I    between atoms: C_9  and  N_10 
REMARK    5  A    between atoms: N_10  and  C_11 
REMARK    6  A    between atoms: C_11  and  N_12 
REMARK    7  A    between atoms: N_12  and  C_13 
REMARK    8  A    between atoms: C_15  and  C_16 
REMARK    9  A    between atoms: C_25  and  O_26 
ROOT
HETATM    1  C   UNL     1      39.961 -12.864   2.894  1.00  0.00     0.035 A 
HETATM    2  C   UNL     1      40.698 -14.049   2.778  1.00  0.00     0.046 A 
HETATM    3  C   UNL     1      40.993 -14.848   3.901  1.00  0.00     0.036 A 
HETATM    4  C   UNL     1      40.539 -14.413   5.160  1.00  0.00     0.084 A 
HETATM    5  C   UNL     1      39.839 -13.204   5.300  1.00  0.00    -0.026 A 
HETATM    6  C   UNL     1      39.400 -12.708   6.650  1.00  0.00     0.051 C 
HETATM    7  C   UNL     1      39.577 -12.427   4.162  1.00  0.00     0.039 A 
ENDROOT
BRANCH   1   8
HETATM    8  N   UNL     1      39.657 -12.166   1.707  1.00  0.00    -0.333 N 
HETATM    9  H   UNL     1      38.810 -12.452   1.223  1.00  0.00     0.168 HD
BRANCH   8  10
HETATM   10  C   UNL     1      40.232 -11.046   1.143  1.00  0.00     0.179 C 
HETATM   11  S   UNL     1      39.232  -9.734   0.886  1.00  0.00    -0.040 SA
BRANCH  10  12
HETATM   12  N   UNL     1      41.606 -11.100   0.958  1.00  0.00    -0.299 N 
HETATM   13  C   UNL     1      42.422 -11.336  -0.140  1.00  0.00     0.257 C 
HETATM   14  O   UNL     1      43.440 -10.653  -0.269  1.00  0.00    -0.267 OA
HETATM   15  H   UNL     1      42.074 -10.396   1.515  1.00  0.00     0.171 HD
BRANCH  13  16
HETATM   16  C   UNL     1      42.111 -12.349  -1.169  1.00  0.00     0.032 A 
HETATM   17  C   UNL     1      41.765 -13.629  -0.717  1.00  0.00     0.020 A 
HETATM   18  C   UNL     1      41.348 -14.610  -1.619  1.00  0.00     0.038 A 
HETATM   19  C   UNL     1      41.246 -14.311  -2.977  1.00  0.00     0.068 A 
HETATM   20  C   UNL     1      41.606 -13.034  -3.428  1.00  0.00     0.038 A 
HETATM   21  C   UNL     1      42.029 -12.046  -2.528  1.00  0.00     0.020 A 
BRANCH  19  22
HETATM   22  O   UNL     1      40.802 -15.173  -3.945  1.00  0.00    -0.351 OA
BRANCH  22  23
HETATM   23  C   UNL     1      39.854 -16.159  -3.529  1.00  0.00     0.175 C 
BRANCH  23  24
HETATM   24  C   UNL     1      38.530 -15.935  -4.255  1.00  0.00     0.022 C 
HETATM   25  C   UNL     1      37.552 -15.112  -3.428  1.00  0.00     0.007 C 
ENDBRANCH  23  24
ENDBRANCH  22  23
ENDBRANCH  19  22
ENDBRANCH  13  16
ENDBRANCH  10  12
ENDBRANCH   8  10
ENDBRANCH   1   8
BRANCH   3  26
HETATM   26  C   UNL     1      41.698 -16.119   3.666  1.00  0.00     0.112 A 
HETATM   27  S   UNL     1      41.536 -16.972   2.180  1.00  0.00    -0.067 SA
HETATM   28  C   UNL     1      42.646 -18.165   2.730  1.00  0.00     0.035 A 
HETATM   29  C   UNL     1      43.030 -17.857   4.035  1.00  0.00     0.075 A 
HETATM   30  C   UNL     1      43.144 -19.292   2.055  1.00  0.00     0.021 A 
HETATM   31  N   UNL     1      42.466 -16.707   4.561  1.00  0.00    -0.239 NA
HETATM   32  C   UNL     1      43.941 -18.708   4.692  1.00  0.00     0.033 A 
HETATM   33  C   UNL     1      44.447 -19.832   4.029  1.00  0.00     0.002 A 
HETATM   34  C   UNL     1      44.052 -20.117   2.726  1.00  0.00     0.002 A 
ENDBRANCH   3  26
BRANCH   4  35
HETATM   35  O   UNL     1      40.719 -15.137   6.310  1.00  0.00    -0.359 OA
HETATM   36  H   UNL     1      39.861 -15.441   6.649  1.00  0.00     0.218 HD
ENDBRANCH   4  35
TORSDOF 9
ENDMDL
MODEL 8
REMARK VINA RESULT:      -8.1      2.560      7.278
REMARK  9 active torsions:
REMARK  status: ('A' for Active; 'I' for Inactive)
REMARK    1  A    between atoms: C_2  and  C_3 
REMARK    2  A    between atoms: C_3  and  O_4 
REMARK    3  A    between atoms: O_4  and  C_5 
REMARK    4  A    between atoms: C_8  and  C_9 
REMARK       I    between atoms: C_9  and  N_10 
REMARK    5  A    between atoms: N_10  and  C_11 
REMARK    6  A    between atoms: C_11  and  N_12 
REMARK    7  A    between atoms: N_12  and  C_13 
REMARK    8  A    between atoms: C_15  and  C_16 
REMARK    9  A    between atoms: C_25  and  O_26 
ROOT
HETATM    1  C   UNL     1      42.364 -14.369   4.389  1.00  0.00     0.035 A 
HETATM    2  C   UNL     1      42.654 -15.664   3.946  1.00  0.00     0.046 A 
HETATM    3  C   UNL     1      43.494 -16.525   4.681  1.00  0.00     0.036 A 
HETATM    4  C   UNL     1      44.054 -16.041   5.877  1.00  0.00     0.084 A 
HETATM    5  C   UNL     1      43.810 -14.729   6.312  1.00  0.00    -0.026 A 
HETATM    6  C   UNL     1      44.451 -14.188   7.561  1.00  0.00     0.051 C 
HETATM    7  C   UNL     1      42.983 -13.895   5.546  1.00  0.00     0.039 A 
ENDROOT
BRANCH   1   8
HETATM    8  N   UNL     1      41.461 -13.604   3.622  1.00  0.00    -0.333 N 
HETATM    9  H   UNL     1      41.868 -13.049   2.873  1.00  0.00     0.168 HD
BRANCH   8  10
HETATM   10  C   UNL     1      40.082 -13.579   3.605  1.00  0.00     0.179 C 
HETATM   11  S   UNL     1      39.348 -12.165   4.103  1.00  0.00    -0.040 SA
BRANCH  10  12
HETATM   12  N   UNL     1      39.464 -14.698   3.068  1.00  0.00    -0.299 N 
HETATM   13  C   UNL     1      39.692 -15.479   1.942  1.00  0.00     0.257 C 
HETATM   14  O   UNL     1      39.577 -16.701   2.044  1.00  0.00    -0.267 OA
HETATM   15  H   UNL     1      39.165 -15.333   3.798  1.00  0.00     0.171 HD
BRANCH  13  16
HETATM   16  C   UNL     1      40.093 -14.910   0.639  1.00  0.00     0.032 A 
HETATM   17  C   UNL     1      39.273 -13.908   0.103  1.00  0.00     0.020 A 
HETATM   18  C   UNL     1      39.642 -13.241  -1.067  1.00  0.00     0.038 A 
HETATM   19  C   UNL     1      40.847 -13.552  -1.696  1.00  0.00     0.068 A 
HETATM   20  C   UNL     1      41.658 -14.563  -1.167  1.00  0.00     0.038 A 
HETATM   21  C   UNL     1      41.292 -15.239   0.007  1.00  0.00     0.020 A 
BRANCH  19  22
HETATM   22  O   UNL     1      41.336 -12.932  -2.816  1.00  0.00    -0.351 OA
BRANCH  22  23
HETATM   23  C   UNL     1      42.709 -12.535  -2.772  1.00  0.00     0.175 C 
BRANCH  23  24
HETATM   24  C   UNL     1      42.837 -11.218  -2.009  1.00  0.00     0.022 C 
HETATM   25  C   UNL     1      42.086 -10.083  -2.691  1.00  0.00     0.007 C 
ENDBRANCH  23  24
ENDBRANCH  22  23
ENDBRANCH  19  22
ENDBRANCH  13  16
ENDBRANCH  10  12
ENDBRANCH   8  10
ENDBRANCH   1   8
BRANCH   3  26
HETATM   26  C   UNL     1      43.670 -17.899   4.179  1.00  0.00     0.112 A 
HETATM   27  S   UNL     1      43.195 -18.336   2.583  1.00  0.00    -0.067 SA
HETATM   28  C   UNL     1      43.778 -19.934   2.835  1.00  0.00     0.035 A 
HETATM   29  C   UNL     1      44.254 -20.041   4.141  1.00  0.00     0.075 A 
HETATM   30  C   UNL     1      43.814 -21.016   1.939  1.00  0.00     0.021 A 
HETATM   31  N   UNL     1      44.164 -18.885   4.899  1.00  0.00    -0.239 NA
HETATM   32  C   UNL     1      44.781 -21.274   4.572  1.00  0.00     0.033 A 
HETATM   33  C   UNL     1      44.826 -22.359   3.688  1.00  0.00     0.002 A 
HETATM   34  C   UNL     1      44.349 -22.228   2.388  1.00  0.00     0.002 A 
ENDBRANCH   3  26
BRANCH   4  35
HETATM   35  O   UNL     1      44.838 -16.808   6.700  1.00  0.00    -0.359 OA
HETATM   36  H   UNL     1      45.226 -16.256   7.399  1.00  0.00     0.218 HD
ENDBRANCH   4  35
TORSDOF 9
ENDMDL
MODEL 9
REMARK VINA RESULT:      -7.9      3.188      8.386
REMARK  9 active torsions:
REMARK  status: ('A' for Active; 'I' for Inactive)
REMARK    1  A    between atoms: C_2  and  C_3 
REMARK    2  A    between atoms: C_3  and  O_4 
REMARK    3  A    between atoms: O_4  and  C_5 
REMARK    4  A    between atoms: C_8  and  C_9 
REMARK       I    between atoms: C_9  and  N_10 
REMARK    5  A    between atoms: N_10  and  C_11 
REMARK    6  A    between atoms: C_11  and  N_12 
REMARK    7  A    between atoms: N_12  and  C_13 
REMARK    8  A    between atoms: C_15  and  C_16 
REMARK    9  A    between atoms: C_25  and  O_26 
ROOT
HETATM    1  C   UNL     1      39.284 -14.504   1.716  1.00  0.00     0.035 A 
HETATM    2  C   UNL     1      40.161 -15.591   1.805  1.00  0.00     0.046 A 
HETATM    3  C   UNL     1      41.017 -15.760   2.912  1.00  0.00     0.036 A 
HETATM    4  C   UNL     1      40.982 -14.789   3.930  1.00  0.00     0.084 A 
HETATM    5  C   UNL     1      40.141 -13.669   3.834  1.00  0.00    -0.026 A 
HETATM    6  C   UNL     1      40.140 -12.600   4.893  1.00  0.00     0.051 C 
HETATM    7  C   UNL     1      39.315 -13.526   2.711  1.00  0.00     0.039 A 
ENDROOT
BRANCH   1   8
HETATM    8  N   UNL     1      38.418 -14.455   0.604  1.00  0.00    -0.333 N 
HETATM    9  H   UNL     1      37.483 -14.829   0.747  1.00  0.00     0.168 HD
BRANCH   8  10
HETATM   10  C   UNL     1      38.559 -13.848  -0.627  1.00  0.00     0.179 C 
HETATM   11  S   UNL     1      38.024 -12.271  -0.755  1.00  0.00    -0.040 SA
BRANCH  10  12
HETATM   12  N   UNL     1      39.234 -14.583  -1.589  1.00  0.00    -0.299 N 
HETATM   13  C   UNL     1      40.558 -14.641  -2.004  1.00  0.00     0.257 C 
HETATM   14  O   UNL     1      41.043 -15.745  -2.259  1.00  0.00    -0.267 OA
HETATM   15  H   UNL     1      38.879 -15.530  -1.637  1.00  0.00     0.171 HD
BRANCH  13  16
HETATM   16  C   UNL     1      41.414 -13.443  -2.127  1.00  0.00     0.032 A 
HETATM   17  C   UNL     1      41.456 -12.817  -3.379  1.00  0.00     0.020 A 
HETATM   18  C   UNL     1      42.150 -11.618  -3.549  1.00  0.00     0.038 A 
HETATM   19  C   UNL     1      42.786 -11.020  -2.461  1.00  0.00     0.068 A 
HETATM   20  C   UNL     1      42.755 -11.655  -1.214  1.00  0.00     0.038 A 
HETATM   21  C   UNL     1      42.062 -12.862  -1.037  1.00  0.00     0.020 A 
BRANCH  19  22
HETATM   22  O   UNL     1      43.452  -9.823  -2.495  1.00  0.00    -0.351 OA
BRANCH  22  23
HETATM   23  C   UNL     1      42.920  -8.778  -1.676  1.00  0.00     0.175 C 
BRANCH  23  24
HETATM   24  C   UNL     1      44.058  -8.071  -0.945  1.00  0.00     0.022 C 
HETATM   25  C   UNL     1      43.665  -7.653   0.465  1.00  0.00     0.007 C 
ENDBRANCH  23  24
ENDBRANCH  22  23
ENDBRANCH  19  22
ENDBRANCH  13  16
ENDBRANCH  10  12
ENDBRANCH   8  10
ENDBRANCH   1   8
BRANCH   3  26
HETATM   26  C   UNL     1      41.841 -16.980   2.957  1.00  0.00     0.112 A 
HETATM   27  S   UNL     1      42.043 -17.975   1.567  1.00  0.00    -0.067 SA
HETATM   28  C   UNL     1      43.098 -19.010   2.447  1.00  0.00     0.035 A 
HETATM   29  C   UNL     1      43.187 -18.552   3.761  1.00  0.00     0.075 A 
HETATM   30  C   UNL     1      43.798 -20.145   2.006  1.00  0.00     0.021 A 
HETATM   31  N   UNL     1      42.450 -17.413   4.041  1.00  0.00    -0.239 NA
HETATM   32  C   UNL     1      44.002 -19.256   4.670  1.00  0.00     0.033 A 
HETATM   33  C   UNL     1      44.707 -20.386   4.242  1.00  0.00     0.002 A 
HETATM   34  C   UNL     1      44.606 -20.822   2.925  1.00  0.00     0.002 A 
ENDBRANCH   3  26
BRANCH   4  35
HETATM   35  O   UNL     1      41.729 -14.881   5.077  1.00  0.00    -0.359 OA
HETATM   36  H   UNL     1      42.630 -14.559   4.913  1.00  0.00     0.218 HD
ENDBRANCH   4  35
TORSDOF 9
ENDMDL
MODEL 10
REMARK VINA RESULT:      -7.9      2.021      2.466
REMARK  9 active torsions:
REMARK  status: ('A' for Active; 'I' for Inactive)
REMARK    1  A    between atoms: C_2  and  C_3 
REMARK    2  A    between atoms: C_3  and  O_4 
REMARK    3  A    between atoms: O_4  and  C_5 
REMARK    4  A    between atoms: C_8  and  C_9 
REMARK       I    between atoms: C_9  and  N_10 
REMARK    5  A    between atoms: N_10  and  C_11 
REMARK    6  A    between atoms: C_11  and  N_12 
REMARK    7  A    between atoms: N_12  and  C_13 
REMARK    8  A    between atoms: C_15  and  C_16 
REMARK    9  A    between atoms: C_25  and  O_26 
ROOT
HETATM    1  C   UNL     1      41.048 -12.636   3.731  1.00  0.00     0.035 A 
HETATM    2  C   UNL     1      40.875 -13.246   2.483  1.00  0.00     0.046 A 
HETATM    3  C   UNL     1      39.810 -12.892   1.630  1.00  0.00     0.036 A 
HETATM    4  C   UNL     1      38.903 -11.913   2.075  1.00  0.00     0.084 A 
HETATM    5  C   UNL     1      39.036 -11.325   3.343  1.00  0.00    -0.026 A 
HETATM    6  C   UNL     1      38.038 -10.317   3.845  1.00  0.00     0.051 C 
HETATM    7  C   UNL     1      40.099 -11.713   4.171  1.00  0.00     0.039 A 
ENDROOT
BRANCH   1   8
HETATM    8  N   UNL     1      42.180 -13.005   4.487  1.00  0.00    -0.333 N 
HETATM    9  H   UNL     1      42.948 -12.338   4.499  1.00  0.00     0.168 HD
BRANCH   8  10
HETATM   10  C   UNL     1      42.388 -14.063   5.348  1.00  0.00     0.179 C 
HETATM   11  S   UNL     1      43.867 -14.127   6.119  1.00  0.00    -0.040 SA
BRANCH  10  12
HETATM   12  N   UNL     1      41.297 -14.892   5.560  1.00  0.00    -0.299 N 
HETATM   13  C   UNL     1      41.150 -16.257   5.771  1.00  0.00     0.257 C 
HETATM   14  O   UNL     1      40.331 -16.634   6.611  1.00  0.00    -0.267 OA
HETATM   15  H   UNL     1      40.604 -14.438   6.143  1.00  0.00     0.171 HD
BRANCH  13  16
HETATM   16  C   UNL     1      41.950 -17.271   5.053  1.00  0.00     0.032 A 
HETATM   17  C   UNL     1      41.827 -17.307   3.658  1.00  0.00     0.020 A 
HETATM   18  C   UNL     1      42.631 -18.158   2.898  1.00  0.00     0.038 A 
HETATM   19  C   UNL     1      43.585 -18.960   3.524  1.00  0.00     0.068 A 
HETATM   20  C   UNL     1      43.696 -18.932   4.920  1.00  0.00     0.038 A 
HETATM   21  C   UNL     1      42.889 -18.082   5.690  1.00  0.00     0.020 A 
BRANCH  19  22
HETATM   22  O   UNL     1      44.461 -19.794   2.881  1.00  0.00    -0.351 OA
BRANCH  22  23
HETATM   23  C   UNL     1      44.869 -20.962   3.600  1.00  0.00     0.175 C 
BRANCH  23  24
HETATM   24  C   UNL     1      44.415 -22.210   2.847  1.00  0.00     0.022 C 
HETATM   25  C   UNL     1      44.038 -21.907   1.403  1.00  0.00     0.007 C 
ENDBRANCH  23  24
ENDBRANCH  22  23
ENDBRANCH  19  22
ENDBRANCH  13  16
ENDBRANCH  10  12
ENDBRANCH   8  10
ENDBRANCH   1   8
BRANCH   3  26
HETATM   26  C   UNL     1      39.762 -13.527   0.302  1.00  0.00     0.112 A 
HETATM   27  S   UNL     1      41.115 -14.381  -0.332  1.00  0.00    -0.067 SA
HETATM   28  C   UNL     1      40.214 -14.787  -1.739  1.00  0.00     0.035 A 
HETATM   29  C   UNL     1      38.952 -14.200  -1.653  1.00  0.00     0.075 A 
HETATM   30  C   UNL     1      40.596 -15.570  -2.842  1.00  0.00     0.021 A 
HETATM   31  N   UNL     1      38.719 -13.469  -0.500  1.00  0.00    -0.239 NA
HETATM   32  C   UNL     1      38.039 -14.399  -2.707  1.00  0.00     0.033 A 
HETATM   33  C   UNL     1      38.405 -15.180  -3.809  1.00  0.00     0.002 A 
HETATM   34  C   UNL     1      39.669 -15.759  -3.871  1.00  0.00     0.002 A 
ENDBRANCH   3  26
BRANCH   4  35
HETATM   35  O   UNL     1      37.865 -11.452   1.306  1.00  0.00    -0.359 OA
HETATM   36  H   UNL     1      37.090 -11.279   1.866  1.00  0.00     0.218 HD
ENDBRANCH   4  35
TORSDOF 9
ENDMDL
