MODEL 1
REMARK VINA RESULT:      -8.3      0.000      0.000
REMARK  7 active torsions:
REMARK  status: ('A' for Active; 'I' for Inactive)
REMARK    1  A    between atoms: C_2  and  C_3 
REMARK    2  A    between atoms: C_3  and  O_4 
REMARK    3  A    between atoms: O_4  and  C_5 
REMARK    4  A    between atoms: C_8  and  C_9 
REMARK    5  A    between atoms: C_15  and  C_16 
REMARK    6  A    between atoms: C_19  and  N_20 
REMARK       I    between atoms: N_20  and  C_21 
REMARK    7  A    between atoms: C_29  and  N_30 
ROOT
HETATM    1  C   UNL     1      40.456 -15.816   1.863  1.00  0.00     0.072 A 
HETATM    2  N   UNL     1      39.122 -16.168   1.850  1.00  0.00    -0.274 N 
HETATM    3  H   UNL     1      38.728 -17.098   1.954  1.00  0.00     0.189 HD
HETATM    4  N   UNL     1      38.279 -15.134   1.633  1.00  0.00    -0.148 NA
HETATM    5  C   UNL     1      39.113 -14.111   1.508  1.00  0.00     0.199 A 
HETATM    6  C   UNL     1      40.458 -14.445   1.680  1.00  0.00     0.039 A 
HETATM    7  C   UNL     1      41.513 -13.402   1.611  1.00  0.00     0.105 C 
HETATM    8  C   UNL     1      40.936 -12.108   1.062  1.00  0.00     0.067 C 
HETATM    9  C   UNL     1      41.954 -11.104   0.543  1.00  0.00     0.020 C 
HETATM   10  N   UNL     1      42.798 -10.273   0.112  1.00  0.00    -0.096 N 
HETATM   11  C   UNL     1      39.606 -11.896   0.889  1.00  0.00     0.139 C 
HETATM   12  O   UNL     1      38.655 -12.878   1.215  1.00  0.00    -0.277 OA
ENDROOT
BRANCH   7  13
HETATM   13  C   UNL     1      42.046 -13.271   3.032  1.00  0.00    -0.044 A 
HETATM   14  C   UNL     1      43.226 -13.937   3.397  1.00  0.00     0.010 A 
HETATM   15  C   UNL     1      43.723 -13.865   4.705  1.00  0.00     0.030 A 
HETATM   16  C   UNL     1      43.055 -13.124   5.680  1.00  0.00     0.034 A 
HETATM   17  C   UNL     1      41.885 -12.447   5.321  1.00  0.00     0.030 A 
HETATM   18  C   UNL     1      41.386 -12.517   4.017  1.00  0.00     0.010 A 
BRANCH  16  19
HETATM   19  N   UNL     1      43.475 -13.019   7.021  1.00  0.00    -0.328 N 
HETATM   20  C   UNL     1      44.738 -13.258   7.531  1.00  0.00     0.218 C 
HETATM   21  C   UNL     1      44.787 -13.064   9.025  1.00  0.00     0.117 C 
HETATM   22  O   UNL     1      45.743 -13.573   6.903  1.00  0.00    -0.274 OA
HETATM   23  H   UNL     1      42.765 -12.737   7.684  1.00  0.00     0.169 HD
ENDBRANCH  16  19
ENDBRANCH   7  13
BRANCH  11  24
HETATM   24  N   UNL     1      39.046 -10.750   0.373  1.00  0.00    -0.282 NA
HETATM   25  H   UNL     1      38.107 -10.529   0.691  1.00  0.00     0.126 HD
HETATM   26  H   UNL     1      39.155 -10.692  -0.638  1.00  0.00     0.126 HD
ENDBRANCH  11  24
BRANCH   1  27
HETATM   27  C   UNL     1      41.542 -16.771   2.027  1.00  0.00    -0.007 A 
HETATM   28  C   UNL     1      42.417 -17.027   0.963  1.00  0.00     0.016 A 
HETATM   29  C   UNL     1      43.495 -17.905   1.117  1.00  0.00     0.037 A 
HETATM   30  C   UNL     1      43.710 -18.541   2.338  1.00  0.00     0.068 A 
HETATM   31  C   UNL     1      42.822 -18.311   3.391  1.00  0.00     0.037 A 
HETATM   32  C   UNL     1      41.748 -17.429   3.243  1.00  0.00     0.016 A 
BRANCH  30  33
HETATM   33  O   UNL     1      44.730 -19.408   2.617  1.00  0.00    -0.351 OA
BRANCH  33  34
HETATM   34  C   UNL     1      44.442 -20.448   3.554  1.00  0.00     0.175 C 
BRANCH  34  35
HETATM   35  C   UNL     1      44.598 -21.785   2.836  1.00  0.00     0.022 C 
HETATM   36  C   UNL     1      43.756 -21.847   1.574  1.00  0.00     0.007 C 
ENDBRANCH  34  35
ENDBRANCH  33  34
ENDBRANCH  30  33
ENDBRANCH   1  27
TORSDOF 7
ENDMDL
MODEL 2
REMARK VINA RESULT:      -8.0      1.588      1.912
REMARK  7 active torsions:
REMARK  status: ('A' for Active; 'I' for Inactive)
REMARK    1  A    between atoms: C_2  and  C_3 
REMARK    2  A    between atoms: C_3  and  O_4 
REMARK    3  A    between atoms: O_4  and  C_5 
REMARK    4  A    between atoms: C_8  and  C_9 
REMARK    5  A    between atoms: C_15  and  C_16 
REMARK    6  A    between atoms: C_19  and  N_20 
REMARK       I    between atoms: N_20  and  C_21 
REMARK    7  A    between atoms: C_29  and  N_30 
ROOT
HETATM    1  C   UNL     1      39.754 -15.248   1.908  1.00  0.00     0.072 A 
HETATM    2  N   UNL     1      38.426 -15.539   1.674  1.00  0.00    -0.274 N 
HETATM    3  H   UNL     1      37.953 -16.425   1.820  1.00  0.00     0.189 HD
HETATM    4  N   UNL     1      37.717 -14.512   1.154  1.00  0.00    -0.148 NA
HETATM    5  C   UNL     1      38.631 -13.555   1.063  1.00  0.00     0.199 A 
HETATM    6  C   UNL     1      39.890 -13.920   1.548  1.00  0.00     0.039 A 
HETATM    7  C   UNL     1      41.010 -12.945   1.554  1.00  0.00     0.105 C 
HETATM    8  C   UNL     1      40.645 -11.720   0.730  1.00  0.00     0.067 C 
HETATM    9  C   UNL     1      41.813 -10.849   0.298  1.00  0.00     0.020 C 
HETATM   10  N   UNL     1      42.783 -10.127  -0.062  1.00  0.00    -0.096 N 
HETATM   11  C   UNL     1      39.392 -11.478   0.266  1.00  0.00     0.139 C 
HETATM   12  O   UNL     1      38.328 -12.359   0.521  1.00  0.00    -0.277 OA
ENDROOT
BRANCH   7  13
HETATM   13  C   UNL     1      41.266 -12.631   3.022  1.00  0.00    -0.044 A 
HETATM   14  C   UNL     1      42.427 -13.113   3.645  1.00  0.00     0.010 A 
HETATM   15  C   UNL     1      42.675 -12.871   5.002  1.00  0.00     0.030 A 
HETATM   16  C   UNL     1      41.768 -12.142   5.771  1.00  0.00     0.034 A 
HETATM   17  C   UNL     1      40.613 -11.647   5.156  1.00  0.00     0.030 A 
HETATM   18  C   UNL     1      40.364 -11.886   3.800  1.00  0.00     0.010 A 
BRANCH  16  19
HETATM   19  N   UNL     1      41.930 -11.874   7.145  1.00  0.00    -0.328 N 
HETATM   20  C   UNL     1      42.050 -10.639   7.755  1.00  0.00     0.218 C 
HETATM   21  C   UNL     1      42.236 -10.763   9.246  1.00  0.00     0.117 C 
HETATM   22  O   UNL     1      42.001  -9.539   7.217  1.00  0.00    -0.274 OA
HETATM   23  H   UNL     1      41.964 -12.683   7.751  1.00  0.00     0.169 HD
ENDBRANCH  16  19
ENDBRANCH   7  13
BRANCH  11  24
HETATM   24  N   UNL     1      39.027 -10.396  -0.502  1.00  0.00    -0.282 NA
HETATM   25  H   UNL     1      39.789  -9.854  -0.900  1.00  0.00     0.126 HD
HETATM   26  H   UNL     1      38.319  -9.824  -0.046  1.00  0.00     0.126 HD
ENDBRANCH  11  24
BRANCH   1  27
HETATM   27  C   UNL     1      40.716 -16.215   2.415  1.00  0.00    -0.007 A 
HETATM   28  C   UNL     1      40.949 -16.316   3.793  1.00  0.00     0.016 A 
HETATM   29  C   UNL     1      41.835 -17.272   4.302  1.00  0.00     0.037 A 
HETATM   30  C   UNL     1      42.501 -18.138   3.437  1.00  0.00     0.068 A 
HETATM   31  C   UNL     1      42.295 -18.019   2.061  1.00  0.00     0.037 A 
HETATM   32  C   UNL     1      41.405 -17.069   1.549  1.00  0.00     0.016 A 
BRANCH  30  33
HETATM   33  O   UNL     1      43.378 -19.118   3.810  1.00  0.00    -0.351 OA
BRANCH  33  34
HETATM   34  C   UNL     1      44.333 -19.525   2.827  1.00  0.00     0.175 C 
BRANCH  34  35
HETATM   35  C   UNL     1      44.456 -21.045   2.891  1.00  0.00     0.022 C 
HETATM   36  C   UNL     1      43.780 -21.714   1.707  1.00  0.00     0.007 C 
ENDBRANCH  34  35
ENDBRANCH  33  34
ENDBRANCH  30  33
ENDBRANCH   1  27
TORSDOF 7
ENDMDL
MODEL 3
REMARK VINA RESULT:      -7.6      2.497      3.087
REMARK  7 active torsions:
REMARK  status: ('A' for Active; 'I' for Inactive)
REMARK    1  A    between atoms: C_2  and  C_3 
REMARK    2  A    between atoms: C_3  and  O_4 
REMARK    3  A    between atoms: O_4  and  C_5 
REMARK    4  A    between atoms: C_8  and  C_9 
REMARK    5  A    between atoms: C_15  and  C_16 
REMARK    6  A    between atoms: C_19  and  N_20 
REMARK       I    between atoms: N_20  and  C_21 
REMARK    7  A    between atoms: C_29  and  N_30 
ROOT
HETATM    1  C   UNL     1      40.044 -14.417  -0.088  1.00  0.00     0.072 A 
HETATM    2  N   UNL     1      38.814 -14.560  -0.697  1.00  0.00    -0.274 N 
HETATM    3  H   UNL     1      38.226 -15.387  -0.712  1.00  0.00     0.189 HD
HETATM    4  N   UNL     1      38.400 -13.465  -1.373  1.00  0.00    -0.148 NA
HETATM    5  C   UNL     1      39.401 -12.617  -1.176  1.00  0.00     0.199 A 
HETATM    6  C   UNL     1      40.422 -13.116  -0.363  1.00  0.00     0.039 A 
HETATM    7  C   UNL     1      41.594 -12.273  -0.015  1.00  0.00     0.105 C 
HETATM    8  C   UNL     1      41.615 -11.022  -0.879  1.00  0.00     0.067 C 
HETATM    9  C   UNL     1      42.947 -10.290  -0.941  1.00  0.00     0.020 C 
HETATM   10  N   UNL     1      44.052  -9.684  -0.992  1.00  0.00    -0.096 N 
HETATM   11  C   UNL     1      40.582 -10.645  -1.675  1.00  0.00     0.139 C 
HETATM   12  O   UNL     1      39.399 -11.399  -1.753  1.00  0.00    -0.277 OA
ENDROOT
BRANCH   7  13
HETATM   13  C   UNL     1      41.453 -11.977   1.472  1.00  0.00    -0.044 A 
HETATM   14  C   UNL     1      42.122 -12.780   2.408  1.00  0.00     0.010 A 
HETATM   15  C   UNL     1      41.985 -12.556   3.784  1.00  0.00     0.030 A 
HETATM   16  C   UNL     1      41.177 -11.524   4.259  1.00  0.00     0.034 A 
HETATM   17  C   UNL     1      40.516 -10.710   3.333  1.00  0.00     0.030 A 
HETATM   18  C   UNL     1      40.651 -10.931   1.959  1.00  0.00     0.010 A 
BRANCH  16  19
HETATM   19  N   UNL     1      40.968 -11.245   5.625  1.00  0.00    -0.328 N 
HETATM   20  C   UNL     1      39.851 -11.542   6.384  1.00  0.00     0.218 C 
HETATM   21  C   UNL     1      39.992 -11.059   7.806  1.00  0.00     0.117 C 
HETATM   22  O   UNL     1      38.844 -12.138   6.019  1.00  0.00    -0.274 OA
HETATM   23  H   UNL     1      41.724 -10.772   6.100  1.00  0.00     0.169 HD
ENDBRANCH  16  19
ENDBRANCH   7  13
BRANCH  11  24
HETATM   24  N   UNL     1      40.572  -9.535  -2.488  1.00  0.00    -0.282 NA
HETATM   25  H   UNL     1      40.077  -8.723  -2.130  1.00  0.00     0.126 HD
HETATM   26  H   UNL     1      40.326  -9.767  -3.450  1.00  0.00     0.126 HD
ENDBRANCH  11  24
BRANCH   1  27
HETATM   27  C   UNL     1      40.709 -15.481   0.649  1.00  0.00    -0.007 A 
HETATM   28  C   UNL     1      40.171 -15.941   1.858  1.00  0.00     0.016 A 
HETATM   29  C   UNL     1      40.770 -16.995   2.555  1.00  0.00     0.037 A 
HETATM   30  C   UNL     1      41.919 -17.602   2.052  1.00  0.00     0.068 A 
HETATM   31  C   UNL     1      42.476 -17.126   0.863  1.00  0.00     0.037 A 
HETATM   32  C   UNL     1      41.876 -16.077   0.160  1.00  0.00     0.016 A 
BRANCH  30  33
HETATM   33  O   UNL     1      42.588 -18.644   2.631  1.00  0.00    -0.351 OA
BRANCH  33  34
HETATM   34  C   UNL     1      43.624 -19.247   1.851  1.00  0.00     0.175 C 
BRANCH  34  35
HETATM   35  C   UNL     1      44.067 -20.522   2.562  1.00  0.00     0.022 C 
HETATM   36  C   UNL     1      43.923 -21.742   1.669  1.00  0.00     0.007 C 
ENDBRANCH  34  35
ENDBRANCH  33  34
ENDBRANCH  30  33
ENDBRANCH   1  27
TORSDOF 7
ENDMDL
MODEL 4
REMARK VINA RESULT:      -7.6      1.901      2.559
REMARK  7 active torsions:
REMARK  status: ('A' for Active; 'I' for Inactive)
REMARK    1  A    between atoms: C_2  and  C_3 
REMARK    2  A    between atoms: C_3  and  O_4 
REMARK    3  A    between atoms: O_4  and  C_5 
REMARK    4  A    between atoms: C_8  and  C_9 
REMARK    5  A    between atoms: C_15  and  C_16 
REMARK    6  A    between atoms: C_19  and  N_20 
REMARK       I    between atoms: N_20  and  C_21 
REMARK    7  A    between atoms: C_29  and  N_30 
ROOT
HETATM    1  C   UNL     1      39.821 -15.370   2.016  1.00  0.00     0.072 A 
HETATM    2  N   UNL     1      38.506 -15.689   1.749  1.00  0.00    -0.274 N 
HETATM    3  H   UNL     1      38.050 -16.586   1.880  1.00  0.00     0.189 HD
HETATM    4  N   UNL     1      37.788 -14.676   1.214  1.00  0.00    -0.148 NA
HETATM    5  C   UNL     1      38.683 -13.699   1.149  1.00  0.00     0.199 A 
HETATM    6  C   UNL     1      39.937 -14.038   1.663  1.00  0.00     0.039 A 
HETATM    7  C   UNL     1      41.036 -13.040   1.699  1.00  0.00     0.105 C 
HETATM    8  C   UNL     1      40.665 -11.820   0.871  1.00  0.00     0.067 C 
HETATM    9  C   UNL     1      41.824 -10.922   0.470  1.00  0.00     0.020 C 
HETATM   10  N   UNL     1      42.786 -10.178   0.137  1.00  0.00    -0.096 N 
HETATM   11  C   UNL     1      39.419 -11.604   0.377  1.00  0.00     0.139 C 
HETATM   12  O   UNL     1      38.368 -12.508   0.604  1.00  0.00    -0.277 OA
ENDROOT
BRANCH   7  13
HETATM   13  C   UNL     1      41.249 -12.726   3.174  1.00  0.00    -0.044 A 
HETATM   14  C   UNL     1      40.304 -11.952   3.865  1.00  0.00     0.010 A 
HETATM   15  C   UNL     1      40.488 -11.617   5.213  1.00  0.00     0.030 A 
HETATM   16  C   UNL     1      41.620 -12.047   5.904  1.00  0.00     0.034 A 
HETATM   17  C   UNL     1      42.562 -12.830   5.227  1.00  0.00     0.030 A 
HETATM   18  C   UNL     1      42.380 -13.167   3.882  1.00  0.00     0.010 A 
BRANCH  16  19
HETATM   19  N   UNL     1      41.893 -11.736   7.252  1.00  0.00    -0.328 N 
HETATM   20  C   UNL     1      42.072 -10.482   7.808  1.00  0.00     0.218 C 
HETATM   21  C   UNL     1      42.374 -10.560   9.283  1.00  0.00     0.117 C 
HETATM   22  O   UNL     1      41.991  -9.400   7.237  1.00  0.00    -0.274 OA
HETATM   23  H   UNL     1      41.967 -12.524   7.880  1.00  0.00     0.169 HD
ENDBRANCH  16  19
ENDBRANCH   7  13
BRANCH  11  24
HETATM   24  N   UNL     1      39.049 -10.527  -0.396  1.00  0.00    -0.282 NA
HETATM   25  H   UNL     1      39.021 -10.686  -1.400  1.00  0.00     0.126 HD
HETATM   26  H   UNL     1      39.548  -9.678  -0.135  1.00  0.00     0.126 HD
ENDBRANCH  11  24
BRANCH   1  27
HETATM   27  C   UNL     1      40.792 -16.318   2.543  1.00  0.00    -0.007 A 
HETATM   28  C   UNL     1      40.864 -16.554   3.923  1.00  0.00     0.016 A 
HETATM   29  C   UNL     1      41.757 -17.496   4.443  1.00  0.00     0.037 A 
HETATM   30  C   UNL     1      42.592 -18.213   3.589  1.00  0.00     0.068 A 
HETATM   31  C   UNL     1      42.545 -17.959   2.217  1.00  0.00     0.037 A 
HETATM   32  C   UNL     1      41.648 -17.023   1.693  1.00  0.00     0.016 A 
BRANCH  30  33
HETATM   33  O   UNL     1      43.496 -19.165   3.973  1.00  0.00    -0.351 OA
BRANCH  33  34
HETATM   34  C   UNL     1      43.716 -19.303   5.379  1.00  0.00     0.175 C 
BRANCH  34  35
HETATM   35  C   UNL     1      45.039 -18.624   5.717  1.00  0.00     0.022 C 
HETATM   36  C   UNL     1      44.835 -17.397   6.590  1.00  0.00     0.007 C 
ENDBRANCH  34  35
ENDBRANCH  33  34
ENDBRANCH  30  33
ENDBRANCH   1  27
TORSDOF 7
ENDMDL
MODEL 5
REMARK VINA RESULT:      -7.2      3.454      5.158
REMARK  7 active torsions:
REMARK  status: ('A' for Active; 'I' for Inactive)
REMARK    1  A    between atoms: C_2  and  C_3 
REMARK    2  A    between atoms: C_3  and  O_4 
REMARK    3  A    between atoms: O_4  and  C_5 
REMARK    4  A    between atoms: C_8  and  C_9 
REMARK    5  A    between atoms: C_15  and  C_16 
REMARK    6  A    between atoms: C_19  and  N_20 
REMARK       I    between atoms: N_20  and  C_21 
REMARK    7  A    between atoms: C_29  and  N_30 
ROOT
HETATM    1  C   UNL     1      41.142 -15.447  -1.022  1.00  0.00     0.072 A 
HETATM    2  N   UNL     1      40.648 -16.151  -2.100  1.00  0.00    -0.274 N 
HETATM    3  H   UNL     1      40.346 -17.120  -2.119  1.00  0.00     0.189 HD
HETATM    4  N   UNL     1      40.615 -15.446  -3.254  1.00  0.00    -0.148 NA
HETATM    5  C   UNL     1      41.102 -14.270  -2.881  1.00  0.00     0.199 A 
HETATM    6  C   UNL     1      41.405 -14.183  -1.520  1.00  0.00     0.039 A 
HETATM    7  C   UNL     1      41.921 -12.918  -0.939  1.00  0.00     0.105 C 
HETATM    8  C   UNL     1      42.311 -11.952  -2.046  1.00  0.00     0.067 C 
HETATM    9  C   UNL     1      43.229 -10.813  -1.630  1.00  0.00     0.020 C 
HETATM   10  N   UNL     1      43.991  -9.870  -1.285  1.00  0.00    -0.096 N 
HETATM   11  C   UNL     1      42.004 -12.151  -3.353  1.00  0.00     0.139 C 
HETATM   12  O   UNL     1      41.291 -13.284  -3.780  1.00  0.00    -0.277 OA
ENDROOT
BRANCH   7  13
HETATM   13  C   UNL     1      40.802 -12.396  -0.047  1.00  0.00    -0.044 A 
HETATM   14  C   UNL     1      39.531 -12.158  -0.592  1.00  0.00     0.010 A 
HETATM   15  C   UNL     1      38.490 -11.645   0.193  1.00  0.00     0.030 A 
HETATM   16  C   UNL     1      38.693 -11.359   1.542  1.00  0.00     0.034 A 
HETATM   17  C   UNL     1      39.954 -11.604   2.098  1.00  0.00     0.030 A 
HETATM   18  C   UNL     1      40.994 -12.117   1.317  1.00  0.00     0.010 A 
BRANCH  16  19
HETATM   19  N   UNL     1      37.708 -10.821   2.395  1.00  0.00    -0.328 N 
HETATM   20  C   UNL     1      37.469  -9.487   2.670  1.00  0.00     0.218 C 
HETATM   21  C   UNL     1      36.343  -9.309   3.658  1.00  0.00     0.117 C 
HETATM   22  O   UNL     1      38.047  -8.516   2.194  1.00  0.00    -0.274 OA
HETATM   23  H   UNL     1      37.111 -11.492   2.859  1.00  0.00     0.169 HD
ENDBRANCH  16  19
ENDBRANCH   7  13
BRANCH  11  24
HETATM   24  N   UNL     1      42.359 -11.314  -4.387  1.00  0.00    -0.282 NA
HETATM   25  H   UNL     1      42.547 -10.348  -4.134  1.00  0.00     0.126 HD
HETATM   26  H   UNL     1      41.737 -11.410  -5.188  1.00  0.00     0.126 HD
ENDBRANCH  11  24
BRANCH   1  27
HETATM   27  C   UNL     1      41.319 -16.018   0.304  1.00  0.00    -0.007 A 
HETATM   28  C   UNL     1      40.404 -15.721   1.323  1.00  0.00     0.016 A 
HETATM   29  C   UNL     1      40.529 -16.299   2.591  1.00  0.00     0.037 A 
HETATM   30  C   UNL     1      41.576 -17.180   2.856  1.00  0.00     0.068 A 
HETATM   31  C   UNL     1      42.507 -17.455   1.853  1.00  0.00     0.037 A 
HETATM   32  C   UNL     1      42.380 -16.884   0.582  1.00  0.00     0.016 A 
BRANCH  30  33
HETATM   33  O   UNL     1      41.799 -17.816   4.046  1.00  0.00    -0.351 OA
BRANCH  33  34
HETATM   34  C   UNL     1      43.045 -18.505   4.175  1.00  0.00     0.175 C 
BRANCH  34  35
HETATM   35  C   UNL     1      43.880 -17.777   5.225  1.00  0.00     0.022 C 
HETATM   36  C   UNL     1      44.826 -18.722   5.944  1.00  0.00     0.007 C 
ENDBRANCH  34  35
ENDBRANCH  33  34
ENDBRANCH  30  33
ENDBRANCH   1  27
TORSDOF 7
ENDMDL
MODEL 6
REMARK VINA RESULT:      -7.2      2.838      6.946
REMARK  7 active torsions:
REMARK  status: ('A' for Active; 'I' for Inactive)
REMARK    1  A    between atoms: C_2  and  C_3 
REMARK    2  A    between atoms: C_3  and  O_4 
REMARK    3  A    between atoms: O_4  and  C_5 
REMARK    4  A    between atoms: C_8  and  C_9 
REMARK    5  A    between atoms: C_15  and  C_16 
REMARK    6  A    between atoms: C_19  and  N_20 
REMARK       I    between atoms: N_20  and  C_21 
REMARK    7  A    between atoms: C_29  and  N_30 
ROOT
HETATM    1  C   UNL     1      40.973 -11.635   1.288  1.00  0.00     0.072 A 
HETATM    2  N   UNL     1      41.957 -10.720   0.978  1.00  0.00    -0.274 N 
HETATM    3  H   UNL     1      42.428 -10.081   1.610  1.00  0.00     0.189 HD
HETATM    4  N   UNL     1      42.274 -10.672  -0.336  1.00  0.00    -0.148 NA
HETATM    5  C   UNL     1      41.464 -11.585  -0.855  1.00  0.00     0.199 A 
HETATM    6  C   UNL     1      40.671 -12.246   0.085  1.00  0.00     0.039 A 
HETATM    7  C   UNL     1      39.740 -13.325  -0.334  1.00  0.00     0.105 C 
HETATM    8  C   UNL     1      39.605 -13.343  -1.848  1.00  0.00     0.067 C 
HETATM    9  C   UNL     1      38.395 -14.087  -2.390  1.00  0.00     0.020 C 
HETATM   10  N   UNL     1      37.390 -14.703  -2.839  1.00  0.00    -0.096 N 
HETATM   11  C   UNL     1      40.404 -12.624  -2.678  1.00  0.00     0.139 C 
HETATM   12  O   UNL     1      41.430 -11.801  -2.185  1.00  0.00    -0.277 OA
ENDROOT
BRANCH   7  13
HETATM   13  C   UNL     1      40.327 -14.609   0.235  1.00  0.00    -0.044 A 
HETATM   14  C   UNL     1      39.816 -15.139   1.429  1.00  0.00     0.010 A 
HETATM   15  C   UNL     1      40.357 -16.300   1.997  1.00  0.00     0.030 A 
HETATM   16  C   UNL     1      41.422 -16.961   1.385  1.00  0.00     0.034 A 
HETATM   17  C   UNL     1      41.930 -16.446   0.187  1.00  0.00     0.030 A 
HETATM   18  C   UNL     1      41.392 -15.289  -0.382  1.00  0.00     0.010 A 
BRANCH  16  19
HETATM   19  N   UNL     1      42.038 -18.118   1.901  1.00  0.00    -0.328 N 
HETATM   20  C   UNL     1      43.247 -18.204   2.567  1.00  0.00     0.218 C 
HETATM   21  C   UNL     1      43.584 -19.626   2.941  1.00  0.00     0.117 C 
HETATM   22  O   UNL     1      43.996 -17.281   2.867  1.00  0.00    -0.274 OA
HETATM   23  H   UNL     1      41.535 -18.985   1.764  1.00  0.00     0.169 HD
ENDBRANCH  16  19
ENDBRANCH   7  13
BRANCH  11  24
HETATM   24  N   UNL     1      40.298 -12.594  -4.050  1.00  0.00    -0.282 NA
HETATM   25  H   UNL     1      39.890 -11.753  -4.448  1.00  0.00     0.126 HD
HETATM   26  H   UNL     1      39.898 -13.454  -4.423  1.00  0.00     0.126 HD
ENDBRANCH  11  24
BRANCH   1  27
HETATM   27  C   UNL     1      40.436 -11.821   2.628  1.00  0.00    -0.007 A 
HETATM   28  C   UNL     1      41.224 -12.416   3.623  1.00  0.00     0.016 A 
HETATM   29  C   UNL     1      40.743 -12.560   4.928  1.00  0.00     0.037 A 
HETATM   30  C   UNL     1      39.464 -12.112   5.255  1.00  0.00     0.068 A 
HETATM   31  C   UNL     1      38.665 -11.548   4.259  1.00  0.00     0.037 A 
HETATM   32  C   UNL     1      39.146 -11.396   2.954  1.00  0.00     0.016 A 
BRANCH  30  33
HETATM   33  O   UNL     1      38.886 -12.185   6.492  1.00  0.00    -0.351 OA
BRANCH  33  34
HETATM   34  C   UNL     1      39.646 -11.653   7.580  1.00  0.00     0.175 C 
BRANCH  34  35
HETATM   35  C   UNL     1      39.538 -10.132   7.531  1.00  0.00     0.022 C 
HETATM   36  C   UNL     1      40.900  -9.476   7.388  1.00  0.00     0.007 C 
ENDBRANCH  34  35
ENDBRANCH  33  34
ENDBRANCH  30  33
ENDBRANCH   1  27
TORSDOF 7
ENDMDL
MODEL 7
REMARK VINA RESULT:      -6.9      2.361      2.896
REMARK  7 active torsions:
REMARK  status: ('A' for Active; 'I' for Inactive)
REMARK    1  A    between atoms: C_2  and  C_3 
REMARK    2  A    between atoms: C_3  and  O_4 
REMARK    3  A    between atoms: O_4  and  C_5 
REMARK    4  A    between atoms: C_8  and  C_9 
REMARK    5  A    between atoms: C_15  and  C_16 
REMARK    6  A    between atoms: C_19  and  N_20 
REMARK       I    between atoms: N_20  and  C_21 
REMARK    7  A    between atoms: C_29  and  N_30 
ROOT
HETATM    1  C   UNL     1      39.732 -14.180  -0.098  1.00  0.00     0.072 A 
HETATM    2  N   UNL     1      38.543 -14.328  -0.783  1.00  0.00    -0.274 N 
HETATM    3  H   UNL     1      38.012 -15.181  -0.919  1.00  0.00     0.189 HD
HETATM    4  N   UNL     1      38.090 -13.191  -1.358  1.00  0.00    -0.148 NA
HETATM    5  C   UNL     1      39.023 -12.311  -1.018  1.00  0.00     0.199 A 
HETATM    6  C   UNL     1      40.035 -12.835  -0.210  1.00  0.00     0.039 A 
HETATM    7  C   UNL     1      41.132 -11.967   0.288  1.00  0.00     0.105 C 
HETATM    8  C   UNL     1      41.112 -10.629  -0.434  1.00  0.00     0.067 C 
HETATM    9  C   UNL     1      42.394  -9.816  -0.345  1.00  0.00     0.020 C 
HETATM   10  N   UNL     1      43.457  -9.143  -0.272  1.00  0.00    -0.096 N 
HETATM   11  C   UNL     1      40.093 -10.229  -1.238  1.00  0.00     0.139 C 
HETATM   12  O   UNL     1      38.967 -11.039  -1.460  1.00  0.00    -0.277 OA
ENDROOT
BRANCH   7  13
HETATM   13  C   UNL     1      40.904 -11.847   1.789  1.00  0.00    -0.044 A 
HETATM   14  C   UNL     1      41.768 -12.502   2.679  1.00  0.00     0.010 A 
HETATM   15  C   UNL     1      41.565 -12.440   4.064  1.00  0.00     0.030 A 
HETATM   16  C   UNL     1      40.493 -11.722   4.593  1.00  0.00     0.034 A 
HETATM   17  C   UNL     1      39.633 -11.056   3.714  1.00  0.00     0.030 A 
HETATM   18  C   UNL     1      39.834 -11.115   2.331  1.00  0.00     0.010 A 
BRANCH  16  19
HETATM   19  N   UNL     1      40.205 -11.629   5.970  1.00  0.00    -0.328 N 
HETATM   20  C   UNL     1      40.791 -10.789   6.899  1.00  0.00     0.218 C 
HETATM   21  C   UNL     1      40.231 -11.003   8.283  1.00  0.00     0.117 C 
HETATM   22  O   UNL     1      41.650  -9.939   6.692  1.00  0.00    -0.274 OA
HETATM   23  H   UNL     1      39.486 -12.252   6.313  1.00  0.00     0.169 HD
ENDBRANCH  16  19
ENDBRANCH   7  13
BRANCH  11  24
HETATM   24  N   UNL     1      40.048  -9.039  -1.926  1.00  0.00    -0.282 NA
HETATM   25  H   UNL     1      39.374  -8.355  -1.592  1.00  0.00     0.126 HD
HETATM   26  H   UNL     1      40.014  -9.180  -2.935  1.00  0.00     0.126 HD
ENDBRANCH  11  24
BRANCH   1  27
HETATM   27  C   UNL     1      40.431 -15.277   0.554  1.00  0.00    -0.007 A 
HETATM   28  C   UNL     1      41.514 -15.895  -0.084  1.00  0.00     0.016 A 
HETATM   29  C   UNL     1      42.228 -16.920   0.546  1.00  0.00     0.037 A 
HETATM   30  C   UNL     1      41.866 -17.340   1.824  1.00  0.00     0.068 A 
HETATM   31  C   UNL     1      40.768 -16.747   2.451  1.00  0.00     0.037 A 
HETATM   32  C   UNL     1      40.056 -15.718   1.826  1.00  0.00     0.016 A 
BRANCH  30  33
HETATM   33  O   UNL     1      42.489 -18.318   2.548  1.00  0.00    -0.351 OA
BRANCH  33  34
HETATM   34  C   UNL     1      43.588 -18.977   1.912  1.00  0.00     0.175 C 
BRANCH  34  35
HETATM   35  C   UNL     1      43.920 -20.227   2.722  1.00  0.00     0.022 C 
HETATM   36  C   UNL     1      43.914 -21.475   1.857  1.00  0.00     0.007 C 
ENDBRANCH  34  35
ENDBRANCH  33  34
ENDBRANCH  30  33
ENDBRANCH   1  27
TORSDOF 7
ENDMDL
MODEL 8
REMARK VINA RESULT:      -6.8      2.522      3.267
REMARK  7 active torsions:
REMARK  status: ('A' for Active; 'I' for Inactive)
REMARK    1  A    between atoms: C_2  and  C_3 
REMARK    2  A    between atoms: C_3  and  O_4 
REMARK    3  A    between atoms: O_4  and  C_5 
REMARK    4  A    between atoms: C_8  and  C_9 
REMARK    5  A    between atoms: C_15  and  C_16 
REMARK    6  A    between atoms: C_19  and  N_20 
REMARK       I    between atoms: N_20  and  C_21 
REMARK    7  A    between atoms: C_29  and  N_30 
ROOT
HETATM    1  C   UNL     1      39.713 -14.863   2.389  1.00  0.00     0.072 A 
HETATM    2  N   UNL     1      38.559 -15.454   1.917  1.00  0.00    -0.274 N 
HETATM    3  H   UNL     1      38.224 -16.393   2.108  1.00  0.00     0.189 HD
HETATM    4  N   UNL     1      37.841 -14.676   1.076  1.00  0.00    -0.148 NA
HETATM    5  C   UNL     1      38.570 -13.568   1.026  1.00  0.00     0.199 A 
HETATM    6  C   UNL     1      39.706 -13.594   1.838  1.00  0.00     0.039 A 
HETATM    7  C   UNL     1      40.604 -12.414   1.923  1.00  0.00     0.105 C 
HETATM    8  C   UNL     1      40.257 -11.411   0.834  1.00  0.00     0.067 C 
HETATM    9  C   UNL     1      41.330 -10.378   0.528  1.00  0.00     0.020 C 
HETATM   10  N   UNL     1      42.220  -9.522   0.274  1.00  0.00    -0.096 N 
HETATM   11  C   UNL     1      39.142 -11.500   0.064  1.00  0.00     0.139 C 
HETATM   12  O   UNL     1      38.215 -12.543   0.226  1.00  0.00    -0.277 OA
ENDROOT
BRANCH   7  13
HETATM   13  C   UNL     1      40.418 -11.865   3.331  1.00  0.00    -0.044 A 
HETATM   14  C   UNL     1      39.142 -11.472   3.763  1.00  0.00     0.010 A 
HETATM   15  C   UNL     1      38.945 -10.932   5.040  1.00  0.00     0.030 A 
HETATM   16  C   UNL     1      40.016 -10.771   5.918  1.00  0.00     0.034 A 
HETATM   17  C   UNL     1      41.290 -11.171   5.500  1.00  0.00     0.030 A 
HETATM   18  C   UNL     1      41.491 -11.712   4.227  1.00  0.00     0.010 A 
BRANCH  16  19
HETATM   19  N   UNL     1      39.907 -10.215   7.208  1.00  0.00    -0.328 N 
HETATM   20  C   UNL     1      39.436 -10.830   8.354  1.00  0.00     0.218 C 
HETATM   21  C   UNL     1      39.449  -9.896   9.539  1.00  0.00     0.117 C 
HETATM   22  O   UNL     1      39.057 -11.989   8.470  1.00  0.00    -0.274 OA
HETATM   23  H   UNL     1      40.208  -9.254   7.302  1.00  0.00     0.169 HD
ENDBRANCH  16  19
ENDBRANCH   7  13
BRANCH  11  24
HETATM   24  N   UNL     1      38.805 -10.628  -0.946  1.00  0.00    -0.282 NA
HETATM   25  H   UNL     1      39.218  -9.701  -0.891  1.00  0.00     0.126 HD
HETATM   26  H   UNL     1      37.802 -10.614  -1.121  1.00  0.00     0.126 HD
ENDBRANCH  11  24
BRANCH   1  27
HETATM   27  C   UNL     1      40.665 -15.532   3.262  1.00  0.00    -0.007 A 
HETATM   28  C   UNL     1      40.727 -15.195   4.621  1.00  0.00     0.016 A 
HETATM   29  C   UNL     1      41.602 -15.860   5.486  1.00  0.00     0.037 A 
HETATM   30  C   UNL     1      42.429 -16.872   5.001  1.00  0.00     0.068 A 
HETATM   31  C   UNL     1      42.392 -17.190   3.642  1.00  0.00     0.037 A 
HETATM   32  C   UNL     1      41.513 -16.531   2.776  1.00  0.00     0.016 A 
BRANCH  30  33
HETATM   33  O   UNL     1      43.314 -17.602   5.744  1.00  0.00    -0.351 OA
BRANCH  33  34
HETATM   34  C   UNL     1      43.345 -19.009   5.494  1.00  0.00     0.175 C 
BRANCH  34  35
HETATM   35  C   UNL     1      44.781 -19.396   5.152  1.00  0.00     0.022 C 
HETATM   36  C   UNL     1      44.839 -20.359   3.979  1.00  0.00     0.007 C 
ENDBRANCH  34  35
ENDBRANCH  33  34
ENDBRANCH  30  33
ENDBRANCH   1  27
TORSDOF 7
ENDMDL
MODEL 9
REMARK VINA RESULT:      -6.7      3.119      5.712
REMARK  7 active torsions:
REMARK  status: ('A' for Active; 'I' for Inactive)
REMARK    1  A    between atoms: C_2  and  C_3 
REMARK    2  A    between atoms: C_3  and  O_4 
REMARK    3  A    between atoms: O_4  and  C_5 
REMARK    4  A    between atoms: C_8  and  C_9 
REMARK    5  A    between atoms: C_15  and  C_16 
REMARK    6  A    between atoms: C_19  and  N_20 
REMARK       I    between atoms: N_20  and  C_21 
REMARK    7  A    between atoms: C_29  and  N_30 
ROOT
HETATM    1  C   UNL     1      41.683 -15.532   4.045  1.00  0.00     0.072 A 
HETATM    2  N   UNL     1      40.986 -16.722   4.080  1.00  0.00    -0.274 N 
HETATM    3  H   UNL     1      40.970 -17.405   4.831  1.00  0.00     0.189 HD
HETATM    4  N   UNL     1      40.291 -16.990   2.952  1.00  0.00    -0.148 NA
HETATM    5  C   UNL     1      40.563 -15.936   2.195  1.00  0.00     0.199 A 
HETATM    6  C   UNL     1      41.373 -14.981   2.815  1.00  0.00     0.039 A 
HETATM    7  C   UNL     1      41.734 -13.723   2.113  1.00  0.00     0.105 C 
HETATM    8  C   UNL     1      41.357 -13.816   0.643  1.00  0.00     0.067 C 
HETATM    9  C   UNL     1      42.032 -12.806  -0.272  1.00  0.00     0.020 C 
HETATM   10  N   UNL     1      42.592 -11.969  -1.030  1.00  0.00    -0.096 N 
HETATM   11  C   UNL     1      40.596 -14.816   0.128  1.00  0.00     0.139 C 
HETATM   12  O   UNL     1      40.094 -15.851   0.935  1.00  0.00    -0.277 OA
ENDROOT
BRANCH   7  13
HETATM   13  C   UNL     1      40.996 -12.618   2.857  1.00  0.00    -0.044 A 
HETATM   14  C   UNL     1      39.610 -12.717   3.054  1.00  0.00     0.010 A 
HETATM   15  C   UNL     1      38.897 -11.701   3.704  1.00  0.00     0.030 A 
HETATM   16  C   UNL     1      39.550 -10.562   4.174  1.00  0.00     0.034 A 
HETATM   17  C   UNL     1      40.934 -10.460   3.992  1.00  0.00     0.030 A 
HETATM   18  C   UNL     1      41.648 -11.473   3.345  1.00  0.00     0.010 A 
BRANCH  16  19
HETATM   19  N   UNL     1      38.905  -9.486   4.816  1.00  0.00    -0.328 N 
HETATM   20  C   UNL     1      38.749  -9.287   6.176  1.00  0.00     0.218 C 
HETATM   21  C   UNL     1      37.975  -8.028   6.475  1.00  0.00     0.117 C 
HETATM   22  O   UNL     1      39.176  -9.994   7.082  1.00  0.00    -0.274 OA
HETATM   23  H   UNL     1      38.510  -8.782   4.208  1.00  0.00     0.169 HD
ENDBRANCH  16  19
ENDBRANCH   7  13
BRANCH  11  24
HETATM   24  N   UNL     1      40.254 -14.948  -1.198  1.00  0.00    -0.282 NA
HETATM   25  H   UNL     1      40.280 -14.097  -1.753  1.00  0.00     0.126 HD
HETATM   26  H   UNL     1      39.398 -15.486  -1.321  1.00  0.00     0.126 HD
ENDBRANCH  11  24
BRANCH   1  27
HETATM   27  C   UNL     1      42.540 -15.064   5.125  1.00  0.00    -0.007 A 
HETATM   28  C   UNL     1      43.563 -15.887   5.614  1.00  0.00     0.016 A 
HETATM   29  C   UNL     1      44.427 -15.437   6.618  1.00  0.00     0.037 A 
HETATM   30  C   UNL     1      44.276 -14.157   7.148  1.00  0.00     0.068 A 
HETATM   31  C   UNL     1      43.238 -13.346   6.685  1.00  0.00     0.037 A 
HETATM   32  C   UNL     1      42.377 -13.790   5.676  1.00  0.00     0.016 A 
BRANCH  30  33
HETATM   33  O   UNL     1      45.060 -13.600   8.119  1.00  0.00    -0.351 OA
BRANCH  33  34
HETATM   34  C   UNL     1      44.637 -12.332   8.628  1.00  0.00     0.175 C 
BRANCH  34  35
HETATM   35  C   UNL     1      45.344 -12.098   9.959  1.00  0.00     0.022 C 
HETATM   36  C   UNL     1      44.405 -12.292  11.137  1.00  0.00     0.007 C 
ENDBRANCH  34  35
ENDBRANCH  33  34
ENDBRANCH  30  33
ENDBRANCH   1  27
TORSDOF 7
ENDMDL
MODEL 10
REMARK VINA RESULT:      -6.6      3.834      7.818
REMARK  7 active torsions:
REMARK  status: ('A' for Active; 'I' for Inactive)
REMARK    1  A    between atoms: C_2  and  C_3 
REMARK    2  A    between atoms: C_3  and  O_4 
REMARK    3  A    between atoms: O_4  and  C_5 
REMARK    4  A    between atoms: C_8  and  C_9 
REMARK    5  A    between atoms: C_15  and  C_16 
REMARK    6  A    between atoms: C_19  and  N_20 
REMARK       I    between atoms: N_20  and  C_21 
REMARK    7  A    between atoms: C_29  and  N_30 
ROOT
HETATM    1  C   UNL     1      41.112 -10.557   0.898  1.00  0.00     0.072 A 
HETATM    2  N   UNL     1      42.257  -9.794   0.810  1.00  0.00    -0.274 N 
HETATM    3  H   UNL     1      42.471  -8.941   1.317  1.00  0.00     0.189 HD
HETATM    4  N   UNL     1      43.154 -10.244  -0.096  1.00  0.00    -0.148 NA
HETATM    5  C   UNL     1      42.549 -11.319  -0.583  1.00  0.00     0.199 A 
HETATM    6  C   UNL     1      41.315 -11.598   0.010  1.00  0.00     0.039 A 
HETATM    7  C   UNL     1      40.531 -12.792  -0.398  1.00  0.00     0.105 C 
HETATM    8  C   UNL     1      41.118 -13.399  -1.662  1.00  0.00     0.067 C 
HETATM    9  C   UNL     1      40.202 -14.343  -2.423  1.00  0.00     0.020 C 
HETATM   10  N   UNL     1      39.440 -15.126  -3.054  1.00  0.00    -0.096 N 
HETATM   11  C   UNL     1      42.314 -13.025  -2.184  1.00  0.00     0.139 C 
HETATM   12  O   UNL     1      43.107 -12.034  -1.580  1.00  0.00    -0.277 OA
ENDROOT
BRANCH   7  13
HETATM   13  C   UNL     1      40.574 -13.731   0.800  1.00  0.00    -0.044 A 
HETATM   14  C   UNL     1      39.376 -14.193   1.366  1.00  0.00     0.010 A 
HETATM   15  C   UNL     1      39.380 -15.031   2.489  1.00  0.00     0.030 A 
HETATM   16  C   UNL     1      40.582 -15.428   3.074  1.00  0.00     0.034 A 
HETATM   17  C   UNL     1      41.782 -14.982   2.510  1.00  0.00     0.030 A 
HETATM   18  C   UNL     1      41.781 -14.147   1.388  1.00  0.00     0.010 A 
BRANCH  16  19
HETATM   19  N   UNL     1      40.674 -16.248   4.217  1.00  0.00    -0.328 N 
HETATM   20  C   UNL     1      40.815 -15.848   5.533  1.00  0.00     0.218 C 
HETATM   21  C   UNL     1      40.906 -17.024   6.472  1.00  0.00     0.117 C 
HETATM   22  O   UNL     1      40.849 -14.698   5.958  1.00  0.00    -0.274 OA
HETATM   23  H   UNL     1      40.635 -17.244   4.049  1.00  0.00     0.169 HD
ENDBRANCH  16  19
ENDBRANCH   7  13
BRANCH  11  24
HETATM   24  N   UNL     1      42.869 -13.532  -3.337  1.00  0.00    -0.282 NA
HETATM   25  H   UNL     1      43.795 -13.940  -3.246  1.00  0.00     0.126 HD
HETATM   26  H   UNL     1      42.788 -12.883  -4.119  1.00  0.00     0.126 HD
ENDBRANCH  11  24
BRANCH   1  27
HETATM   27  C   UNL     1      39.989 -10.233   1.766  1.00  0.00    -0.007 A 
HETATM   28  C   UNL     1      39.003  -9.338   1.332  1.00  0.00     0.016 A 
HETATM   29  C   UNL     1      37.892  -9.050   2.132  1.00  0.00     0.037 A 
HETATM   30  C   UNL     1      37.756  -9.655   3.381  1.00  0.00     0.068 A 
HETATM   31  C   UNL     1      38.752 -10.524   3.829  1.00  0.00     0.037 A 
HETATM   32  C   UNL     1      39.860 -10.819   3.029  1.00  0.00     0.016 A 
BRANCH  30  33
HETATM   33  O   UNL     1      36.715  -9.467   4.247  1.00  0.00    -0.351 OA
BRANCH  33  34
HETATM   34  C   UNL     1      36.101  -8.176   4.232  1.00  0.00     0.175 C 
BRANCH  34  35
HETATM   35  C   UNL     1      34.622  -8.361   3.906  1.00  0.00     0.022 C 
HETATM   36  C   UNL     1      33.830  -8.808   5.122  1.00  0.00     0.007 C 
ENDBRANCH  34  35
ENDBRANCH  33  34
ENDBRANCH  30  33
ENDBRANCH   1  27
TORSDOF 7
ENDMDL
