MODEL 1
REMARK VINA RESULT:      -9.0      0.000      0.000
REMARK  6 active torsions:
REMARK  status: ('A' for Active; 'I' for Inactive)
REMARK    1  A    between atoms: C_2  and  C_3 
REMARK       I    between atoms: C_2  and  N_9 
REMARK    2  A    between atoms: C_3  and  N_4 
REMARK    3  A    between atoms: N_9  and  C_10 
REMARK    4  A    between atoms: C_15  and  C_16 
REMARK    5  A    between atoms: C_18  and  N_19 
REMARK    6  A    between atoms: N_19  and  C_20 
ROOT
HETATM    1  C   UNL     1      41.460 -16.076   1.424  1.00  0.00     0.164 A 
HETATM    2  N   UNL     1      42.005 -15.650   0.278  1.00  0.00    -0.210 NA
HETATM    3  C   UNL     1      41.288 -14.826  -0.502  1.00  0.00     0.143 A 
HETATM    4  C   UNL     1      39.985 -14.432  -0.158  1.00  0.00     0.039 A 
HETATM    5  C   UNL     1      39.163 -13.569  -0.928  1.00  0.00     0.018 A 
HETATM    6  C   UNL     1      37.881 -13.236  -0.499  1.00  0.00     0.001 A 
HETATM    7  C   UNL     1      37.410 -13.752   0.701  1.00  0.00     0.002 A 
HETATM    8  C   UNL     1      38.225 -14.592   1.465  1.00  0.00     0.032 A 
HETATM    9  C   UNL     1      39.507 -14.939   1.059  1.00  0.00     0.073 A 
HETATM   10  N   UNL     1      40.232 -15.737   1.851  1.00  0.00    -0.228 NA
ENDROOT
BRANCH   1  11
HETATM   11  C   UNL     1      42.295 -16.955   2.267  1.00  0.00     0.039 A 
HETATM   12  C   UNL     1      42.784 -16.584   3.546  1.00  0.00     0.049 A 
HETATM   13  C   UNL     1      43.633 -17.460   4.242  1.00  0.00     0.030 A 
HETATM   14  C   UNL     1      43.994 -18.697   3.705  1.00  0.00     0.002 A 
HETATM   15  C   UNL     1      43.518 -19.079   2.460  1.00  0.00     0.001 A 
HETATM   16  C   UNL     1      42.683 -18.215   1.753  1.00  0.00     0.018 A 
BRANCH  12  17
HETATM   17  N   UNL     1      42.396 -15.343   4.106  1.00  0.00    -0.325 N 
HETATM   18  C   UNL     1      43.026 -14.118   3.998  1.00  0.00     0.250 C 
HETATM   19  O   UNL     1      43.994 -13.853   3.290  1.00  0.00    -0.271 OA
HETATM   20  H   UNL     1      41.559 -15.359   4.691  1.00  0.00     0.169 HD
BRANCH  18  21
HETATM   21  C   UNL     1      42.349 -13.025   4.834  1.00  0.00     0.375 C 
BRANCH  21  22
HETATM   22  N   UNL     1      40.926 -12.865   4.467  1.00  0.00     0.097 N 
HETATM   23  C   UNL     1      40.203 -12.012   5.419  1.00  0.00     0.273 C 
HETATM   24  C   UNL     1      38.934 -11.686   4.654  1.00  0.00     0.032 C 
HETATM   25  C   UNL     1      39.386 -11.585   3.203  1.00  0.00     0.032 C 
HETATM   26  C   UNL     1      40.786 -12.188   3.173  1.00  0.00     0.273 C 
ENDBRANCH  21  22
ENDBRANCH  18  21
ENDBRANCH  12  17
ENDBRANCH   1  11
BRANCH   3  27
HETATM   27  N   UNL     1      41.878 -14.356  -1.706  1.00  0.00    -0.340 N 
HETATM   28  H   UNL     1      42.638 -14.974  -1.967  1.00  0.00     0.167 HD
BRANCH  27  29
HETATM   29  C   UNL     1      42.147 -13.002  -2.027  1.00  0.00     0.034 A 
HETATM   30  C   UNL     1      42.002 -12.516  -3.336  1.00  0.00     0.032 A 
HETATM   31  C   UNL     1      42.286 -11.189  -3.683  1.00  0.00     0.034 A 
HETATM   32  C   UNL     1      42.747 -10.359  -2.663  1.00  0.00     0.062 A 
HETATM   33  N   UNL     1      43.104  -9.036  -2.656  1.00  0.00    -0.278 N 
HETATM   34  C   UNL     1      42.939 -10.801  -1.360  1.00  0.00     0.013 A 
HETATM   35  H   UNL     1      43.087  -8.389  -3.436  1.00  0.00     0.189 HD
HETATM   36  N   UNL     1      43.513  -8.585  -1.456  1.00  0.00    -0.186 NA
HETATM   37  C   UNL     1      43.413  -9.661  -0.672  1.00  0.00     0.152 A 
HETATM   38  C   UNL     1      42.654 -12.141  -1.036  1.00  0.00     0.044 A 
ENDBRANCH  27  29
ENDBRANCH   3  27
TORSDOF 6
ENDMDL
MODEL 2
REMARK VINA RESULT:      -8.9      3.777      8.552
REMARK  6 active torsions:
REMARK  status: ('A' for Active; 'I' for Inactive)
REMARK    1  A    between atoms: C_2  and  C_3 
REMARK       I    between atoms: C_2  and  N_9 
REMARK    2  A    between atoms: C_3  and  N_4 
REMARK    3  A    between atoms: N_9  and  C_10 
REMARK    4  A    between atoms: C_15  and  C_16 
REMARK    5  A    between atoms: C_18  and  N_19 
REMARK    6  A    between atoms: N_19  and  C_20 
ROOT
HETATM    1  C   UNL     1      41.813 -14.469   5.390  1.00  0.00     0.164 A 
HETATM    2  N   UNL     1      42.950 -13.975   5.896  1.00  0.00    -0.210 NA
HETATM    3  C   UNL     1      43.923 -14.835   6.236  1.00  0.00     0.143 A 
HETATM    4  C   UNL     1      43.762 -16.223   6.102  1.00  0.00     0.039 A 
HETATM    5  C   UNL     1      44.738 -17.195   6.441  1.00  0.00     0.018 A 
HETATM    6  C   UNL     1      44.483 -18.552   6.269  1.00  0.00     0.001 A 
HETATM    7  C   UNL     1      43.259 -18.954   5.752  1.00  0.00     0.002 A 
HETATM    8  C   UNL     1      42.301 -17.995   5.406  1.00  0.00     0.032 A 
HETATM    9  C   UNL     1      42.532 -16.635   5.568  1.00  0.00     0.073 A 
HETATM   10  N   UNL     1      41.573 -15.778   5.202  1.00  0.00    -0.228 NA
ENDROOT
BRANCH   1  11
HETATM   11  C   UNL     1      40.781 -13.488   4.998  1.00  0.00     0.039 A 
HETATM   12  C   UNL     1      40.312 -13.329   3.669  1.00  0.00     0.049 A 
HETATM   13  C   UNL     1      39.382 -12.317   3.382  1.00  0.00     0.030 A 
HETATM   14  C   UNL     1      38.898 -11.472   4.383  1.00  0.00     0.002 A 
HETATM   15  C   UNL     1      39.340 -11.620   5.689  1.00  0.00     0.001 A 
HETATM   16  C   UNL     1      40.272 -12.612   5.987  1.00  0.00     0.018 A 
BRANCH  12  17
HETATM   17  N   UNL     1      40.778 -14.202   2.658  1.00  0.00    -0.325 N 
HETATM   18  C   UNL     1      40.077 -15.179   1.977  1.00  0.00     0.250 C 
HETATM   19  O   UNL     1      38.870 -15.396   2.045  1.00  0.00    -0.271 OA
HETATM   20  H   UNL     1      41.768 -14.123   2.421  1.00  0.00     0.169 HD
BRANCH  18  21
HETATM   21  C   UNL     1      40.961 -15.988   1.019  1.00  0.00     0.375 C 
BRANCH  21  22
HETATM   22  N   UNL     1      41.918 -16.841   1.754  1.00  0.00     0.097 N 
HETATM   23  C   UNL     1      41.793 -18.257   1.385  1.00  0.00     0.273 C 
HETATM   24  C   UNL     1      43.077 -18.845   1.938  1.00  0.00     0.032 C 
HETATM   25  C   UNL     1      44.109 -17.741   1.748  1.00  0.00     0.032 C 
HETATM   26  C   UNL     1      43.304 -16.487   1.426  1.00  0.00     0.273 C 
ENDBRANCH  21  22
ENDBRANCH  18  21
ENDBRANCH  12  17
ENDBRANCH   1  11
BRANCH   3  27
HETATM   27  N   UNL     1      45.137 -14.306   6.750  1.00  0.00    -0.340 N 
HETATM   28  H   UNL     1      45.790 -15.065   6.909  1.00  0.00     0.167 HD
BRANCH  27  29
HETATM   29  C   UNL     1      45.252 -13.281   7.723  1.00  0.00     0.034 A 
HETATM   30  C   UNL     1      46.378 -12.444   7.776  1.00  0.00     0.032 A 
HETATM   31  C   UNL     1      46.526 -11.442   8.743  1.00  0.00     0.034 A 
HETATM   32  C   UNL     1      45.503 -11.320   9.682  1.00  0.00     0.062 A 
HETATM   33  N   UNL     1      45.331 -10.461  10.736  1.00  0.00    -0.278 N 
HETATM   34  C   UNL     1      44.387 -12.146   9.692  1.00  0.00     0.013 A 
HETATM   35  H   UNL     1      45.951  -9.715  11.031  1.00  0.00     0.189 HD
HETATM   36  N   UNL     1      44.196 -10.663  11.429  1.00  0.00    -0.186 NA
HETATM   37  C   UNL     1      43.626 -11.690  10.793  1.00  0.00     0.152 A 
HETATM   38  C   UNL     1      44.262 -13.151   8.714  1.00  0.00     0.044 A 
ENDBRANCH  27  29
ENDBRANCH   3  27
TORSDOF 6
ENDMDL
MODEL 3
REMARK VINA RESULT:      -8.7      2.587      7.086
REMARK  6 active torsions:
REMARK  status: ('A' for Active; 'I' for Inactive)
REMARK    1  A    between atoms: C_2  and  C_3 
REMARK       I    between atoms: C_2  and  N_9 
REMARK    2  A    between atoms: C_3  and  N_4 
REMARK    3  A    between atoms: N_9  and  C_10 
REMARK    4  A    between atoms: C_15  and  C_16 
REMARK    5  A    between atoms: C_18  and  N_19 
REMARK    6  A    between atoms: N_19  and  C_20 
ROOT
HETATM    1  C   UNL     1      41.259 -15.006   0.894  1.00  0.00     0.164 A 
HETATM    2  N   UNL     1      42.409 -15.619   1.204  1.00  0.00    -0.210 NA
HETATM    3  C   UNL     1      42.672 -15.865   2.498  1.00  0.00     0.143 A 
HETATM    4  C   UNL     1      41.791 -15.472   3.517  1.00  0.00     0.039 A 
HETATM    5  C   UNL     1      41.997 -15.691   4.904  1.00  0.00     0.018 A 
HETATM    6  C   UNL     1      41.061 -15.263   5.840  1.00  0.00     0.001 A 
HETATM    7  C   UNL     1      39.910 -14.620   5.406  1.00  0.00     0.002 A 
HETATM    8  C   UNL     1      39.701 -14.415   4.039  1.00  0.00     0.032 A 
HETATM    9  C   UNL     1      40.620 -14.832   3.085  1.00  0.00     0.073 A 
HETATM   10  N   UNL     1      40.344 -14.612   1.795  1.00  0.00    -0.228 NA
ENDROOT
BRANCH   1  11
HETATM   11  C   UNL     1      40.995 -14.783  -0.541  1.00  0.00     0.039 A 
HETATM   12  C   UNL     1      40.589 -13.536  -1.082  1.00  0.00     0.049 A 
HETATM   13  C   UNL     1      40.289 -13.442  -2.450  1.00  0.00     0.030 A 
HETATM   14  C   UNL     1      40.396 -14.549  -3.294  1.00  0.00     0.002 A 
HETATM   15  C   UNL     1      40.800 -15.773  -2.784  1.00  0.00     0.001 A 
HETATM   16  C   UNL     1      41.090 -15.885  -1.425  1.00  0.00     0.018 A 
BRANCH  12  17
HETATM   17  N   UNL     1      40.507 -12.405  -0.235  1.00  0.00    -0.325 N 
HETATM   18  C   UNL     1      41.537 -11.633   0.269  1.00  0.00     0.250 C 
HETATM   19  O   UNL     1      42.727 -11.721  -0.022  1.00  0.00    -0.271 OA
HETATM   20  H   UNL     1      39.568 -12.142   0.069  1.00  0.00     0.169 HD
BRANCH  18  21
HETATM   21  C   UNL     1      41.048 -10.548   1.236  1.00  0.00     0.375 C 
BRANCH  21  22
HETATM   22  N   UNL     1      40.369 -11.133   2.411  1.00  0.00     0.097 N 
HETATM   23  C   UNL     1      40.877 -10.583   3.674  1.00  0.00     0.273 C 
HETATM   24  C   UNL     1      39.809 -11.014   4.661  1.00  0.00     0.032 C 
HETATM   25  C   UNL     1      38.511 -10.939   3.867  1.00  0.00     0.032 C 
HETATM   26  C   UNL     1      38.937 -10.812   2.409  1.00  0.00     0.273 C 
ENDBRANCH  21  22
ENDBRANCH  18  21
ENDBRANCH  12  17
ENDBRANCH   1  11
BRANCH   3  27
HETATM   27  N   UNL     1      43.880 -16.537   2.822  1.00  0.00    -0.340 N 
HETATM   28  H   UNL     1      44.623 -16.195   2.223  1.00  0.00     0.167 HD
BRANCH  27  29
HETATM   29  C   UNL     1      44.012 -17.919   3.110  1.00  0.00     0.034 A 
HETATM   30  C   UNL     1      44.250 -18.377   4.416  1.00  0.00     0.032 A 
HETATM   31  C   UNL     1      44.410 -19.734   4.721  1.00  0.00     0.034 A 
HETATM   32  C   UNL     1      44.342 -20.629   3.655  1.00  0.00     0.062 A 
HETATM   33  N   UNL     1      44.446 -21.994   3.603  1.00  0.00    -0.278 N 
HETATM   34  C   UNL     1      44.142 -20.224   2.342  1.00  0.00     0.013 A 
HETATM   35  H   UNL     1      44.593 -22.631   4.378  1.00  0.00     0.189 HD
HETATM   36  N   UNL     1      44.332 -22.507   2.364  1.00  0.00    -0.186 NA
HETATM   37  C   UNL     1      44.149 -21.427   1.600  1.00  0.00     0.152 A 
HETATM   38  C   UNL     1      43.991 -18.853   2.057  1.00  0.00     0.044 A 
ENDBRANCH  27  29
ENDBRANCH   3  27
TORSDOF 6
ENDMDL
MODEL 4
REMARK VINA RESULT:      -8.6      2.185      7.115
REMARK  6 active torsions:
REMARK  status: ('A' for Active; 'I' for Inactive)
REMARK    1  A    between atoms: C_2  and  C_3 
REMARK       I    between atoms: C_2  and  N_9 
REMARK    2  A    between atoms: C_3  and  N_4 
REMARK    3  A    between atoms: N_9  and  C_10 
REMARK    4  A    between atoms: C_15  and  C_16 
REMARK    5  A    between atoms: C_18  and  N_19 
REMARK    6  A    between atoms: N_19  and  C_20 
ROOT
HETATM    1  C   UNL     1      41.780 -11.773   1.045  1.00  0.00     0.164 A 
HETATM    2  N   UNL     1      42.689 -12.512   1.695  1.00  0.00    -0.210 NA
HETATM    3  C   UNL     1      42.404 -12.923   2.941  1.00  0.00     0.143 A 
HETATM    4  C   UNL     1      41.202 -12.574   3.576  1.00  0.00     0.039 A 
HETATM    5  C   UNL     1      40.829 -12.964   4.888  1.00  0.00     0.018 A 
HETATM    6  C   UNL     1      39.611 -12.567   5.431  1.00  0.00     0.001 A 
HETATM    7  C   UNL     1      38.751 -11.784   4.672  1.00  0.00     0.002 A 
HETATM    8  C   UNL     1      39.113 -11.410   3.375  1.00  0.00     0.032 A 
HETATM    9  C   UNL     1      40.324 -11.793   2.811  1.00  0.00     0.073 A 
HETATM   10  N   UNL     1      40.594 -11.407   1.559  1.00  0.00    -0.228 NA
ENDROOT
BRANCH   1  11
HETATM   11  C   UNL     1      42.120 -11.369  -0.333  1.00  0.00     0.039 A 
HETATM   12  C   UNL     1      42.309 -12.288  -1.398  1.00  0.00     0.049 A 
HETATM   13  C   UNL     1      42.703 -11.811  -2.659  1.00  0.00     0.030 A 
HETATM   14  C   UNL     1      42.898 -10.448  -2.891  1.00  0.00     0.002 A 
HETATM   15  C   UNL     1      42.708  -9.537  -1.863  1.00  0.00     0.001 A 
HETATM   16  C   UNL     1      42.329  -9.995  -0.603  1.00  0.00     0.018 A 
BRANCH  12  17
HETATM   17  N   UNL     1      42.084 -13.667  -1.174  1.00  0.00    -0.325 N 
HETATM   18  C   UNL     1      41.033 -14.448  -1.615  1.00  0.00     0.250 C 
HETATM   19  O   UNL     1      40.144 -14.108  -2.392  1.00  0.00    -0.271 OA
HETATM   20  H   UNL     1      42.770 -14.141  -0.585  1.00  0.00     0.169 HD
BRANCH  18  21
HETATM   21  C   UNL     1      41.093 -15.884  -1.080  1.00  0.00     0.375 C 
BRANCH  21  22
HETATM   22  N   UNL     1      41.050 -15.914   0.397  1.00  0.00     0.097 N 
HETATM   23  C   UNL     1      39.957 -15.094   0.935  1.00  0.00     0.273 C 
HETATM   24  C   UNL     1      39.870 -15.579   2.370  1.00  0.00     0.032 C 
HETATM   25  C   UNL     1      40.198 -17.064   2.284  1.00  0.00     0.032 C 
HETATM   26  C   UNL     1      40.781 -17.270   0.891  1.00  0.00     0.273 C 
ENDBRANCH  21  22
ENDBRANCH  18  21
ENDBRANCH  12  17
ENDBRANCH   1  11
BRANCH   3  27
HETATM   27  N   UNL     1      43.360 -13.726   3.618  1.00  0.00    -0.340 N 
HETATM   28  H   UNL     1      44.285 -13.341   3.468  1.00  0.00     0.167 HD
BRANCH  27  29
HETATM   29  C   UNL     1      43.366 -15.143   3.673  1.00  0.00     0.034 A 
HETATM   30  C   UNL     1      43.036 -15.833   4.850  1.00  0.00     0.032 A 
HETATM   31  C   UNL     1      43.060 -17.231   4.936  1.00  0.00     0.034 A 
HETATM   32  C   UNL     1      43.452 -17.923   3.792  1.00  0.00     0.062 A 
HETATM   33  N   UNL     1      43.576 -19.263   3.535  1.00  0.00    -0.278 N 
HETATM   34  C   UNL     1      43.819 -17.286   2.614  1.00  0.00     0.013 A 
HETATM   35  H   UNL     1      43.386 -20.032   4.168  1.00  0.00     0.189 HD
HETATM   36  N   UNL     1      43.995 -19.547   2.289  1.00  0.00    -0.186 NA
HETATM   37  C   UNL     1      44.144 -18.342   1.732  1.00  0.00     0.152 A 
HETATM   38  C   UNL     1      43.795 -15.879   2.552  1.00  0.00     0.044 A 
ENDBRANCH  27  29
ENDBRANCH   3  27
TORSDOF 6
ENDMDL
MODEL 5
REMARK VINA RESULT:      -8.3      2.493      6.412
REMARK  6 active torsions:
REMARK  status: ('A' for Active; 'I' for Inactive)
REMARK    1  A    between atoms: C_2  and  C_3 
REMARK       I    between atoms: C_2  and  N_9 
REMARK    2  A    between atoms: C_3  and  N_4 
REMARK    3  A    between atoms: N_9  and  C_10 
REMARK    4  A    between atoms: C_15  and  C_16 
REMARK    5  A    between atoms: C_18  and  N_19 
REMARK    6  A    between atoms: N_19  and  C_20 
ROOT
HETATM    1  C   UNL     1      41.388 -15.927   0.400  1.00  0.00     0.164 A 
HETATM    2  N   UNL     1      40.757 -15.590   1.532  1.00  0.00    -0.210 NA
HETATM    3  C   UNL     1      41.096 -16.224   2.665  1.00  0.00     0.143 A 
HETATM    4  C   UNL     1      42.065 -17.240   2.681  1.00  0.00     0.039 A 
HETATM    5  C   UNL     1      42.476 -17.958   3.833  1.00  0.00     0.018 A 
HETATM    6  C   UNL     1      43.449 -18.950   3.745  1.00  0.00     0.001 A 
HETATM    7  C   UNL     1      44.025 -19.231   2.514  1.00  0.00     0.002 A 
HETATM    8  C   UNL     1      43.629 -18.514   1.380  1.00  0.00     0.032 A 
HETATM    9  C   UNL     1      42.660 -17.520   1.442  1.00  0.00     0.073 A 
HETATM   10  N   UNL     1      42.343 -16.868   0.318  1.00  0.00    -0.228 NA
ENDROOT
BRANCH   1  11
HETATM   11  C   UNL     1      41.008 -15.183  -0.817  1.00  0.00     0.039 A 
HETATM   12  C   UNL     1      40.580 -13.831  -0.810  1.00  0.00     0.049 A 
HETATM   13  C   UNL     1      40.167 -13.231  -2.011  1.00  0.00     0.030 A 
HETATM   14  C   UNL     1      40.184 -13.935  -3.216  1.00  0.00     0.002 A 
HETATM   15  C   UNL     1      40.608 -15.255  -3.242  1.00  0.00     0.001 A 
HETATM   16  C   UNL     1      41.009 -15.868  -2.056  1.00  0.00     0.018 A 
BRANCH  12  17
HETATM   17  N   UNL     1      40.589 -13.105   0.405  1.00  0.00    -0.325 N 
HETATM   18  C   UNL     1      41.564 -12.252   0.889  1.00  0.00     0.250 C 
HETATM   19  O   UNL     1      42.567 -11.873   0.290  1.00  0.00    -0.271 OA
HETATM   20  H   UNL     1      39.787 -13.252   1.020  1.00  0.00     0.169 HD
BRANCH  18  21
HETATM   21  C   UNL     1      41.252 -11.730   2.296  1.00  0.00     0.375 C 
BRANCH  21  22
HETATM   22  N   UNL     1      40.065 -10.850   2.298  1.00  0.00     0.097 N 
HETATM   23  C   UNL     1      38.964 -11.408   3.094  1.00  0.00     0.273 C 
HETATM   24  C   UNL     1      38.055 -10.206   3.267  1.00  0.00     0.032 C 
HETATM   25  C   UNL     1      39.011  -9.026   3.380  1.00  0.00     0.032 C 
HETATM   26  C   UNL     1      40.365  -9.558   2.925  1.00  0.00     0.273 C 
ENDBRANCH  21  22
ENDBRANCH  18  21
ENDBRANCH  12  17
ENDBRANCH   1  11
BRANCH   3  27
HETATM   27  N   UNL     1      40.442 -15.847   3.868  1.00  0.00    -0.340 N 
HETATM   28  H   UNL     1      39.442 -15.968   3.756  1.00  0.00     0.167 HD
BRANCH  27  29
HETATM   29  C   UNL     1      40.764 -14.725   4.673  1.00  0.00     0.034 A 
HETATM   30  C   UNL     1      42.088 -14.279   4.814  1.00  0.00     0.032 A 
HETATM   31  C   UNL     1      42.434 -13.190   5.624  1.00  0.00     0.034 A 
HETATM   32  C   UNL     1      41.395 -12.567   6.314  1.00  0.00     0.062 A 
HETATM   33  N   UNL     1      41.383 -11.495   7.167  1.00  0.00    -0.278 N 
HETATM   34  C   UNL     1      40.076 -12.991   6.235  1.00  0.00     0.013 A 
HETATM   35  H   UNL     1      42.172 -10.928   7.457  1.00  0.00     0.189 HD
HETATM   36  N   UNL     1      40.164 -11.190   7.648  1.00  0.00    -0.186 NA
HETATM   37  C   UNL     1      39.372 -12.104   7.080  1.00  0.00     0.152 A 
HETATM   38  C   UNL     1      39.752 -14.093   5.420  1.00  0.00     0.044 A 
ENDBRANCH  27  29
ENDBRANCH   3  27
TORSDOF 6
ENDMDL
MODEL 6
REMARK VINA RESULT:      -8.2      3.004      7.784
REMARK  6 active torsions:
REMARK  status: ('A' for Active; 'I' for Inactive)
REMARK    1  A    between atoms: C_2  and  C_3 
REMARK       I    between atoms: C_2  and  N_9 
REMARK    2  A    between atoms: C_3  and  N_4 
REMARK    3  A    between atoms: N_9  and  C_10 
REMARK    4  A    between atoms: C_15  and  C_16 
REMARK    5  A    between atoms: C_18  and  N_19 
REMARK    6  A    between atoms: N_19  and  C_20 
ROOT
HETATM    1  C   UNL     1      39.281 -13.083   3.057  1.00  0.00     0.164 A 
HETATM    2  N   UNL     1      39.596 -14.111   3.854  1.00  0.00    -0.210 NA
HETATM    3  C   UNL     1      39.754 -13.876   5.167  1.00  0.00     0.143 A 
HETATM    4  C   UNL     1      39.624 -12.586   5.706  1.00  0.00     0.039 A 
HETATM    5  C   UNL     1      39.778 -12.256   7.077  1.00  0.00     0.018 A 
HETATM    6  C   UNL     1      39.628 -10.943   7.515  1.00  0.00     0.001 A 
HETATM    7  C   UNL     1      39.317  -9.950   6.595  1.00  0.00     0.002 A 
HETATM    8  C   UNL     1      39.154 -10.278   5.246  1.00  0.00     0.032 A 
HETATM    9  C   UNL     1      39.298 -11.581   4.784  1.00  0.00     0.073 A 
HETATM   10  N   UNL     1      39.113 -11.819   3.481  1.00  0.00    -0.228 NA
ENDROOT
BRANCH   1  11
HETATM   11  C   UNL     1      39.085 -13.390   1.626  1.00  0.00     0.039 A 
HETATM   12  C   UNL     1      39.993 -14.164   0.857  1.00  0.00     0.049 A 
HETATM   13  C   UNL     1      39.758 -14.340  -0.516  1.00  0.00     0.030 A 
HETATM   14  C   UNL     1      38.640 -13.781  -1.138  1.00  0.00     0.002 A 
HETATM   15  C   UNL     1      37.739 -13.030  -0.399  1.00  0.00     0.001 A 
HETATM   16  C   UNL     1      37.964 -12.836   0.962  1.00  0.00     0.018 A 
BRANCH  12  17
HETATM   17  N   UNL     1      41.111 -14.757   1.490  1.00  0.00    -0.325 N 
HETATM   18  C   UNL     1      42.312 -14.169   1.838  1.00  0.00     0.250 C 
HETATM   19  O   UNL     1      42.592 -12.975   1.762  1.00  0.00    -0.271 OA
HETATM   20  H   UNL     1      41.034 -15.756   1.689  1.00  0.00     0.169 HD
BRANCH  18  21
HETATM   21  C   UNL     1      43.318 -15.170   2.421  1.00  0.00     0.375 C 
BRANCH  21  22
HETATM   22  N   UNL     1      42.999 -16.556   2.019  1.00  0.00     0.097 N 
HETATM   23  C   UNL     1      44.155 -17.239   1.425  1.00  0.00     0.273 C 
HETATM   24  C   UNL     1      43.720 -18.692   1.462  1.00  0.00     0.032 C 
HETATM   25  C   UNL     1      42.907 -18.809   2.745  1.00  0.00     0.032 C 
HETATM   26  C   UNL     1      42.634 -17.373   3.182  1.00  0.00     0.273 C 
ENDBRANCH  21  22
ENDBRANCH  18  21
ENDBRANCH  12  17
ENDBRANCH   1  11
BRANCH   3  27
HETATM   27  N   UNL     1      40.064 -14.973   6.013  1.00  0.00    -0.340 N 
HETATM   28  H   UNL     1      39.534 -14.891   6.873  1.00  0.00     0.167 HD
BRANCH  27  29
HETATM   29  C   UNL     1      41.355 -15.520   6.225  1.00  0.00     0.034 A 
HETATM   30  C   UNL     1      42.518 -14.787   5.941  1.00  0.00     0.032 A 
HETATM   31  C   UNL     1      43.804 -15.314   6.117  1.00  0.00     0.034 A 
HETATM   32  C   UNL     1      43.885 -16.629   6.575  1.00  0.00     0.062 A 
HETATM   33  N   UNL     1      44.959 -17.431   6.855  1.00  0.00    -0.278 N 
HETATM   34  C   UNL     1      42.765 -17.406   6.838  1.00  0.00     0.013 A 
HETATM   35  H   UNL     1      45.942 -17.193   6.782  1.00  0.00     0.189 HD
HETATM   36  N   UNL     1      44.628 -18.665   7.277  1.00  0.00    -0.186 NA
HETATM   37  C   UNL     1      43.292 -18.646   7.263  1.00  0.00     0.152 A 
HETATM   38  C   UNL     1      41.482 -16.857   6.647  1.00  0.00     0.044 A 
ENDBRANCH  27  29
ENDBRANCH   3  27
TORSDOF 6
ENDMDL
MODEL 7
REMARK VINA RESULT:      -8.2      5.079      8.382
REMARK  6 active torsions:
REMARK  status: ('A' for Active; 'I' for Inactive)
REMARK    1  A    between atoms: C_2  and  C_3 
REMARK       I    between atoms: C_2  and  N_9 
REMARK    2  A    between atoms: C_3  and  N_4 
REMARK    3  A    between atoms: N_9  and  C_10 
REMARK    4  A    between atoms: C_15  and  C_16 
REMARK    5  A    between atoms: C_18  and  N_19 
REMARK    6  A    between atoms: N_19  and  C_20 
ROOT
HETATM    1  C   UNL     1      43.756 -13.571   6.893  1.00  0.00     0.164 A 
HETATM    2  N   UNL     1      43.662 -14.900   7.021  1.00  0.00    -0.210 NA
HETATM    3  C   UNL     1      42.641 -15.529   6.417  1.00  0.00     0.143 A 
HETATM    4  C   UNL     1      41.669 -14.826   5.689  1.00  0.00     0.039 A 
HETATM    5  C   UNL     1      40.561 -15.415   5.026  1.00  0.00     0.018 A 
HETATM    6  C   UNL     1      39.650 -14.630   4.326  1.00  0.00     0.001 A 
HETATM    7  C   UNL     1      39.835 -13.255   4.273  1.00  0.00     0.002 A 
HETATM    8  C   UNL     1      40.934 -12.676   4.916  1.00  0.00     0.032 A 
HETATM    9  C   UNL     1      41.857 -13.438   5.621  1.00  0.00     0.073 A 
HETATM   10  N   UNL     1      42.890 -12.814   6.198  1.00  0.00    -0.228 NA
ENDROOT
BRANCH   1  11
HETATM   11  C   UNL     1      44.910 -12.923   7.546  1.00  0.00     0.039 A 
HETATM   12  C   UNL     1      44.801 -12.084   8.685  1.00  0.00     0.049 A 
HETATM   13  C   UNL     1      45.950 -11.453   9.190  1.00  0.00     0.030 A 
HETATM   14  C   UNL     1      47.201 -11.646   8.602  1.00  0.00     0.002 A 
HETATM   15  C   UNL     1      47.326 -12.469   7.493  1.00  0.00     0.001 A 
HETATM   16  C   UNL     1      46.194 -13.093   6.973  1.00  0.00     0.018 A 
BRANCH  12  17
HETATM   17  N   UNL     1      43.539 -11.910   9.301  1.00  0.00    -0.325 N 
HETATM   18  C   UNL     1      42.664 -10.848   9.181  1.00  0.00     0.250 C 
HETATM   19  O   UNL     1      42.771  -9.895   8.413  1.00  0.00    -0.271 OA
HETATM   20  H   UNL     1      43.250 -12.650   9.944  1.00  0.00     0.169 HD
BRANCH  18  21
HETATM   21  C   UNL     1      41.435 -10.983  10.089  1.00  0.00     0.375 C 
BRANCH  21  22
HETATM   22  N   UNL     1      41.670 -10.371  11.413  1.00  0.00     0.097 N 
HETATM   23  C   UNL     1      41.688 -11.371  12.489  1.00  0.00     0.273 C 
HETATM   24  C   UNL     1      42.311 -10.596  13.634  1.00  0.00     0.032 C 
HETATM   25  C   UNL     1      43.326  -9.681  12.960  1.00  0.00     0.032 C 
HETATM   26  C   UNL     1      42.988  -9.730  11.474  1.00  0.00     0.273 C 
ENDBRANCH  21  22
ENDBRANCH  18  21
ENDBRANCH  12  17
ENDBRANCH   1  11
BRANCH   3  27
HETATM   27  N   UNL     1      42.558 -16.942   6.536  1.00  0.00    -0.340 N 
HETATM   28  H   UNL     1      42.633 -17.200   7.513  1.00  0.00     0.167 HD
BRANCH  27  29
HETATM   29  C   UNL     1      43.178 -17.886   5.678  1.00  0.00     0.034 A 
HETATM   30  C   UNL     1      44.356 -18.553   6.052  1.00  0.00     0.032 A 
HETATM   31  C   UNL     1      45.001 -19.470   5.213  1.00  0.00     0.034 A 
HETATM   32  C   UNL     1      44.428 -19.684   3.960  1.00  0.00     0.062 A 
HETATM   33  N   UNL     1      44.789 -20.500   2.921  1.00  0.00    -0.278 N 
HETATM   34  C   UNL     1      43.283 -19.025   3.531  1.00  0.00     0.013 A 
HETATM   35  H   UNL     1      45.579 -21.135   2.880  1.00  0.00     0.189 HD
HETATM   36  N   UNL     1      43.974 -20.423   1.853  1.00  0.00    -0.186 NA
HETATM   37  C   UNL     1      43.061 -19.523   2.228  1.00  0.00     0.152 A 
HETATM   38  C   UNL     1      42.655 -18.101   4.389  1.00  0.00     0.044 A 
ENDBRANCH  27  29
ENDBRANCH   3  27
TORSDOF 6
ENDMDL
MODEL 8
REMARK VINA RESULT:      -8.1      3.039      7.550
REMARK  6 active torsions:
REMARK  status: ('A' for Active; 'I' for Inactive)
REMARK    1  A    between atoms: C_2  and  C_3 
REMARK       I    between atoms: C_2  and  N_9 
REMARK    2  A    between atoms: C_3  and  N_4 
REMARK    3  A    between atoms: N_9  and  C_10 
REMARK    4  A    between atoms: C_15  and  C_16 
REMARK    5  A    between atoms: C_18  and  N_19 
REMARK    6  A    between atoms: N_19  and  C_20 
ROOT
HETATM    1  C   UNL     1      40.561 -14.395   0.877  1.00  0.00     0.164 A 
HETATM    2  N   UNL     1      40.480 -15.523   1.593  1.00  0.00    -0.210 NA
HETATM    3  C   UNL     1      40.675 -15.453   2.920  1.00  0.00     0.143 A 
HETATM    4  C   UNL     1      40.986 -14.241   3.556  1.00  0.00     0.039 A 
HETATM    5  C   UNL     1      41.209 -14.084   4.949  1.00  0.00     0.018 A 
HETATM    6  C   UNL     1      41.512 -12.836   5.486  1.00  0.00     0.001 A 
HETATM    7  C   UNL     1      41.589 -11.734   4.644  1.00  0.00     0.002 A 
HETATM    8  C   UNL     1      41.357 -11.886   3.274  1.00  0.00     0.032 A 
HETATM    9  C   UNL     1      41.053 -13.121   2.714  1.00  0.00     0.073 A 
HETATM   10  N   UNL     1      40.831 -13.186   1.397  1.00  0.00    -0.228 NA
ENDROOT
BRANCH   1  11
HETATM   11  C   UNL     1      40.308 -14.512  -0.573  1.00  0.00     0.039 A 
HETATM   12  C   UNL     1      39.307 -13.776  -1.258  1.00  0.00     0.049 A 
HETATM   13  C   UNL     1      39.093 -14.012  -2.626  1.00  0.00     0.030 A 
HETATM   14  C   UNL     1      39.857 -14.945  -3.330  1.00  0.00     0.002 A 
HETATM   15  C   UNL     1      40.845 -15.665  -2.677  1.00  0.00     0.001 A 
HETATM   16  C   UNL     1      41.062 -15.452  -1.317  1.00  0.00     0.018 A 
BRANCH  12  17
HETATM   17  N   UNL     1      38.551 -12.809  -0.555  1.00  0.00    -0.325 N 
HETATM   18  C   UNL     1      37.493 -13.009   0.311  1.00  0.00     0.250 C 
HETATM   19  O   UNL     1      37.080 -14.090   0.725  1.00  0.00    -0.271 OA
HETATM   20  H   UNL     1      38.798 -11.834  -0.733  1.00  0.00     0.169 HD
BRANCH  18  21
HETATM   21  C   UNL     1      36.868 -11.697   0.800  1.00  0.00     0.375 C 
BRANCH  21  22
HETATM   22  N   UNL     1      35.481 -11.543   0.314  1.00  0.00     0.097 N 
HETATM   23  C   UNL     1      34.699 -10.629   1.157  1.00  0.00     0.273 C 
HETATM   24  C   UNL     1      33.498 -10.333   0.277  1.00  0.00     0.032 C 
HETATM   25  C   UNL     1      34.063 -10.321  -1.137  1.00  0.00     0.032 C 
HETATM   26  C   UNL     1      35.452 -10.940  -1.023  1.00  0.00     0.273 C 
ENDBRANCH  21  22
ENDBRANCH  18  21
ENDBRANCH  12  17
ENDBRANCH   1  11
BRANCH   3  27
HETATM   27  N   UNL     1      40.564 -16.647   3.680  1.00  0.00    -0.340 N 
HETATM   28  H   UNL     1      39.934 -16.489   4.459  1.00  0.00     0.167 HD
BRANCH  27  29
HETATM   29  C   UNL     1      41.629 -17.522   4.014  1.00  0.00     0.034 A 
HETATM   30  C   UNL     1      42.070 -17.667   5.339  1.00  0.00     0.032 A 
HETATM   31  C   UNL     1      43.136 -18.504   5.691  1.00  0.00     0.034 A 
HETATM   32  C   UNL     1      43.767 -19.186   4.652  1.00  0.00     0.062 A 
HETATM   33  N   UNL     1      44.814 -20.070   4.645  1.00  0.00    -0.278 N 
HETATM   34  C   UNL     1      43.390 -19.050   3.322  1.00  0.00     0.013 A 
HETATM   35  H   UNL     1      45.339 -20.409   5.443  1.00  0.00     0.189 HD
HETATM   36  N   UNL     1      45.147 -20.517   3.421  1.00  0.00    -0.186 NA
HETATM   37  C   UNL     1      44.280 -19.893   2.619  1.00  0.00     0.152 A 
HETATM   38  C   UNL     1      42.319 -18.197   2.991  1.00  0.00     0.044 A 
ENDBRANCH  27  29
ENDBRANCH   3  27
TORSDOF 6
ENDMDL
MODEL 9
REMARK VINA RESULT:      -8.1      2.967      7.206
REMARK  6 active torsions:
REMARK  status: ('A' for Active; 'I' for Inactive)
REMARK    1  A    between atoms: C_2  and  C_3 
REMARK       I    between atoms: C_2  and  N_9 
REMARK    2  A    between atoms: C_3  and  N_4 
REMARK    3  A    between atoms: N_9  and  C_10 
REMARK    4  A    between atoms: C_15  and  C_16 
REMARK    5  A    between atoms: C_18  and  N_19 
REMARK    6  A    between atoms: N_19  and  C_20 
ROOT
HETATM    1  C   UNL     1      40.697 -14.525   0.629  1.00  0.00     0.164 A 
HETATM    2  N   UNL     1      40.735 -15.706   1.259  1.00  0.00    -0.210 NA
HETATM    3  C   UNL     1      41.021 -15.721   2.571  1.00  0.00     0.143 A 
HETATM    4  C   UNL     1      41.308 -14.542   3.277  1.00  0.00     0.039 A 
HETATM    5  C   UNL     1      41.622 -14.474   4.659  1.00  0.00     0.018 A 
HETATM    6  C   UNL     1      41.890 -13.252   5.269  1.00  0.00     0.001 A 
HETATM    7  C   UNL     1      41.841 -12.088   4.513  1.00  0.00     0.002 A 
HETATM    8  C   UNL     1      41.518 -12.154   3.154  1.00  0.00     0.032 A 
HETATM    9  C   UNL     1      41.247 -13.361   2.522  1.00  0.00     0.073 A 
HETATM   10  N   UNL     1      40.933 -13.343   1.222  1.00  0.00    -0.228 NA
ENDROOT
BRANCH   1  11
HETATM   11  C   UNL     1      40.347 -14.551  -0.805  1.00  0.00     0.039 A 
HETATM   12  C   UNL     1      39.309 -13.769  -1.374  1.00  0.00     0.049 A 
HETATM   13  C   UNL     1      39.001 -13.918  -2.737  1.00  0.00     0.030 A 
HETATM   14  C   UNL     1      39.706 -14.811  -3.546  1.00  0.00     0.002 A 
HETATM   15  C   UNL     1      40.729 -15.576  -3.006  1.00  0.00     0.001 A 
HETATM   16  C   UNL     1      41.039 -15.448  -1.654  1.00  0.00     0.018 A 
BRANCH  12  17
HETATM   17  N   UNL     1      38.612 -12.842  -0.564  1.00  0.00    -0.325 N 
HETATM   18  C   UNL     1      37.589 -13.084   0.333  1.00  0.00     0.250 C 
HETATM   19  O   UNL     1      37.166 -14.184   0.681  1.00  0.00    -0.271 OA
HETATM   20  H   UNL     1      38.876 -11.862  -0.678  1.00  0.00     0.169 HD
BRANCH  18  21
HETATM   21  C   UNL     1      37.022 -11.800   0.950  1.00  0.00     0.375 C 
BRANCH  21  22
HETATM   22  N   UNL     1      38.093 -10.944   1.502  1.00  0.00     0.097 N 
HETATM   23  C   UNL     1      37.924  -9.535   1.124  1.00  0.00     0.273 C 
HETATM   24  C   UNL     1      38.862  -8.832   2.086  1.00  0.00     0.032 C 
HETATM   25  C   UNL     1      38.768  -9.651   3.367  1.00  0.00     0.032 C 
HETATM   26  C   UNL     1      38.069 -10.946   2.969  1.00  0.00     0.273 C 
ENDBRANCH  21  22
ENDBRANCH  18  21
ENDBRANCH  12  17
ENDBRANCH   1  11
BRANCH   3  27
HETATM   27  N   UNL     1      41.037 -16.973   3.241  1.00  0.00    -0.340 N 
HETATM   28  H   UNL     1      40.646 -16.858   4.170  1.00  0.00     0.167 HD
BRANCH  27  29
HETATM   29  C   UNL     1      42.092 -17.919   3.212  1.00  0.00     0.034 A 
HETATM   30  C   UNL     1      42.507 -18.518   2.012  1.00  0.00     0.032 A 
HETATM   31  C   UNL     1      43.529 -19.474   1.961  1.00  0.00     0.034 A 
HETATM   32  C   UNL     1      44.116 -19.830   3.174  1.00  0.00     0.062 A 
HETATM   33  N   UNL     1      45.123 -20.708   3.476  1.00  0.00    -0.278 N 
HETATM   34  C   UNL     1      43.718 -19.292   4.391  1.00  0.00     0.013 A 
HETATM   35  H   UNL     1      45.655 -21.282   2.832  1.00  0.00     0.189 HD
HETATM   36  N   UNL     1      45.410 -20.785   4.788  1.00  0.00    -0.186 NA
HETATM   37  C   UNL     1      44.552 -19.923   5.342  1.00  0.00     0.152 A 
HETATM   38  C   UNL     1      42.683 -18.337   4.419  1.00  0.00     0.044 A 
ENDBRANCH  27  29
ENDBRANCH   3  27
TORSDOF 6
ENDMDL
MODEL 10
REMARK VINA RESULT:      -8.0      3.724      6.386
REMARK  6 active torsions:
REMARK  status: ('A' for Active; 'I' for Inactive)
REMARK    1  A    between atoms: C_2  and  C_3 
REMARK       I    between atoms: C_2  and  N_9 
REMARK    2  A    between atoms: C_3  and  N_4 
REMARK    3  A    between atoms: N_9  and  C_10 
REMARK    4  A    between atoms: C_15  and  C_16 
REMARK    5  A    between atoms: C_18  and  N_19 
REMARK    6  A    between atoms: N_19  and  C_20 
ROOT
HETATM    1  C   UNL     1      42.184 -16.447   4.795  1.00  0.00     0.164 A 
HETATM    2  N   UNL     1      41.307 -15.497   5.141  1.00  0.00    -0.210 NA
HETATM    3  C   UNL     1      40.686 -14.815   4.166  1.00  0.00     0.143 A 
HETATM    4  C   UNL     1      40.958 -15.055   2.810  1.00  0.00     0.039 A 
HETATM    5  C   UNL     1      40.348 -14.377   1.723  1.00  0.00     0.018 A 
HETATM    6  C   UNL     1      40.685 -14.690   0.409  1.00  0.00     0.001 A 
HETATM    7  C   UNL     1      41.624 -15.684   0.165  1.00  0.00     0.002 A 
HETATM    8  C   UNL     1      42.214 -16.361   1.236  1.00  0.00     0.032 A 
HETATM    9  C   UNL     1      41.896 -16.066   2.556  1.00  0.00     0.073 A 
HETATM   10  N   UNL     1      42.493 -16.766   3.527  1.00  0.00    -0.228 NA
ENDROOT
BRANCH   1  11
HETATM   11  C   UNL     1      42.820 -17.195   5.897  1.00  0.00     0.039 A 
HETATM   12  C   UNL     1      43.397 -16.577   7.037  1.00  0.00     0.049 A 
HETATM   13  C   UNL     1      44.045 -17.369   7.998  1.00  0.00     0.030 A 
HETATM   14  C   UNL     1      44.120 -18.757   7.863  1.00  0.00     0.002 A 
HETATM   15  C   UNL     1      43.553 -19.377   6.760  1.00  0.00     0.001 A 
HETATM   16  C   UNL     1      42.917 -18.603   5.791  1.00  0.00     0.018 A 
BRANCH  12  17
HETATM   17  N   UNL     1      43.297 -15.174   7.192  1.00  0.00    -0.325 N 
HETATM   18  C   UNL     1      44.296 -14.225   7.085  1.00  0.00     0.250 C 
HETATM   19  O   UNL     1      45.452 -14.417   6.717  1.00  0.00    -0.271 OA
HETATM   20  H   UNL     1      42.375 -14.817   7.446  1.00  0.00     0.169 HD
BRANCH  18  21
HETATM   21  C   UNL     1      43.810 -12.809   7.421  1.00  0.00     0.375 C 
BRANCH  21  22
HETATM   22  N   UNL     1      44.256 -12.388   8.766  1.00  0.00     0.097 N 
HETATM   23  C   UNL     1      45.648 -11.923   8.766  1.00  0.00     0.273 C 
HETATM   24  C   UNL     1      45.744 -11.205  10.099  1.00  0.00     0.032 C 
HETATM   25  C   UNL     1      44.370 -10.577  10.287  1.00  0.00     0.032 C 
HETATM   26  C   UNL     1      43.476 -11.243   9.247  1.00  0.00     0.273 C 
ENDBRANCH  21  22
ENDBRANCH  18  21
ENDBRANCH  12  17
ENDBRANCH   1  11
BRANCH   3  27
HETATM   27  N   UNL     1      39.739 -13.824   4.536  1.00  0.00    -0.340 N 
HETATM   28  H   UNL     1      39.161 -13.598   3.734  1.00  0.00     0.167 HD
BRANCH  27  29
HETATM   29  C   UNL     1      39.994 -12.694   5.354  1.00  0.00     0.034 A 
HETATM   30  C   UNL     1      40.885 -11.685   4.954  1.00  0.00     0.032 A 
HETATM   31  C   UNL     1      41.173 -10.573   5.755  1.00  0.00     0.034 A 
HETATM   32  C   UNL     1      40.544 -10.515   6.997  1.00  0.00     0.062 A 
HETATM   33  N   UNL     1      40.596  -9.585   8.002  1.00  0.00    -0.278 N 
HETATM   34  C   UNL     1      39.681 -11.503   7.452  1.00  0.00     0.013 A 
HETATM   35  H   UNL     1      41.126  -8.722   8.016  1.00  0.00     0.189 HD
HETATM   36  N   UNL     1      39.839  -9.890   9.072  1.00  0.00    -0.186 NA
HETATM   37  C   UNL     1      39.286 -11.058   8.734  1.00  0.00     0.152 A 
HETATM   38  C   UNL     1      39.411 -12.617   6.633  1.00  0.00     0.044 A 
ENDBRANCH  27  29
ENDBRANCH   3  27
TORSDOF 6
ENDMDL
