MODEL 1
REMARK VINA RESULT:      -8.6      0.000      0.000
REMARK  3 active torsions:
REMARK  status: ('A' for Active; 'I' for Inactive)
REMARK       I    between atoms: C_2  and  N_3 
REMARK    1  A    between atoms: N_3  and  N_4 
REMARK       I    between atoms: N_4  and  C_5 
REMARK    2  A    between atoms: C_5  and  C_6 
REMARK    3  A    between atoms: C_11  and  C_12 
ROOT
HETATM    1  C   UNL     1      43.438 -16.941   5.453  1.00  0.00     0.115 A 
HETATM    2  N   UNL     1      44.178 -17.994   5.954  1.00  0.00    -0.350 N 
HETATM    3  H   UNL     1      44.623 -18.002   6.862  1.00  0.00     0.166 HD
HETATM    4  C   UNL     1      44.286 -19.015   5.043  1.00  0.00     0.044 A 
HETATM    5  C   UNL     1      43.603 -18.612   3.899  1.00  0.00     0.005 A 
HETATM    6  C   UNL     1      43.078 -17.302   4.157  1.00  0.00     0.019 A 
HETATM    7  C   UNL     1      44.940 -20.248   5.145  1.00  0.00     0.032 A 
HETATM    8  C   UNL     1      44.886 -21.103   4.039  1.00  0.00     0.021 A 
HETATM    9  C   UNL     1      44.204 -20.727   2.886  1.00  0.00     0.012 A 
HETATM   10 BR   UNL     1      44.151 -21.909   1.409  1.00  0.00    -0.051 Br
HETATM   11  C   UNL     1      43.556 -19.492   2.797  1.00  0.00     0.033 A 
ENDROOT
BRANCH   1  12
HETATM   12  C   UNL     1      43.195 -15.716   6.188  1.00  0.00     0.287 C 
HETATM   13  N   UNL     1      44.294 -15.246   6.891  1.00  0.00    -0.262 N 
HETATM   14  H   UNL     1      45.053 -15.870   7.162  1.00  0.00     0.190 HD
HETATM   15  O   UNL     1      42.124 -15.110   6.221  1.00  0.00    -0.264 OA
BRANCH  13  16
HETATM   16  N   UNL     1      44.103 -14.147   7.747  1.00  0.00    -0.268 N 
HETATM   17  C   UNL     1      45.123 -13.223   7.820  1.00  0.00     0.232 C 
HETATM   18  C   UNL     1      44.931 -12.163   8.869  1.00  0.00     0.119 C 
HETATM   19  O   UNL     1      46.099 -13.254   7.074  1.00  0.00    -0.272 OA
HETATM   20  H   UNL     1      43.435 -14.289   8.505  1.00  0.00     0.190 HD
ENDBRANCH  13  16
ENDBRANCH   1  12
BRANCH   6  21
HETATM   21  C   UNL     1      42.300 -16.470   3.252  1.00  0.00    -0.023 A 
HETATM   22  C   UNL     1      40.955 -16.759   2.991  1.00  0.00     0.012 A 
HETATM   23  C   UNL     1      40.228 -15.972   2.094  1.00  0.00     0.001 A 
HETATM   24  C   UNL     1      40.843 -14.900   1.449  1.00  0.00     0.000 A 
HETATM   25  C   UNL     1      42.182 -14.610   1.699  1.00  0.00     0.001 A 
HETATM   26  C   UNL     1      42.909 -15.392   2.598  1.00  0.00     0.012 A 
ENDBRANCH   6  21
TORSDOF 3
ENDMDL
MODEL 2
REMARK VINA RESULT:      -8.4      1.958      2.765
REMARK  3 active torsions:
REMARK  status: ('A' for Active; 'I' for Inactive)
REMARK       I    between atoms: C_2  and  N_3 
REMARK    1  A    between atoms: N_3  and  N_4 
REMARK       I    between atoms: N_4  and  C_5 
REMARK    2  A    between atoms: C_5  and  C_6 
REMARK    3  A    between atoms: C_11  and  C_12 
ROOT
HETATM    1  C   UNL     1      42.781 -16.774   5.306  1.00  0.00     0.115 A 
HETATM    2  N   UNL     1      43.526 -17.721   5.983  1.00  0.00    -0.350 N 
HETATM    3  H   UNL     1      43.826 -17.634   6.944  1.00  0.00     0.166 HD
HETATM    4  C   UNL     1      43.860 -18.775   5.172  1.00  0.00     0.044 A 
HETATM    5  C   UNL     1      43.327 -18.505   3.915  1.00  0.00     0.005 A 
HETATM    6  C   UNL     1      42.657 -17.240   4.001  1.00  0.00     0.019 A 
HETATM    7  C   UNL     1      44.597 -19.932   5.455  1.00  0.00     0.032 A 
HETATM    8  C   UNL     1      44.787 -20.848   4.415  1.00  0.00     0.021 A 
HETATM    9  C   UNL     1      44.258 -20.606   3.151  1.00  0.00     0.012 A 
HETATM   10 BR   UNL     1      44.535 -21.868   1.768  1.00  0.00    -0.051 Br
HETATM   11  C   UNL     1      43.526 -19.446   2.882  1.00  0.00     0.033 A 
ENDROOT
BRANCH   1  12
HETATM   12  C   UNL     1      42.323 -15.538   5.910  1.00  0.00     0.287 C 
HETATM   13  N   UNL     1      40.954 -15.481   6.122  1.00  0.00    -0.262 N 
HETATM   14  H   UNL     1      40.313 -16.064   5.587  1.00  0.00     0.190 HD
HETATM   15  O   UNL     1      43.046 -14.592   6.220  1.00  0.00    -0.264 OA
BRANCH  13  16
HETATM   16  N   UNL     1      40.410 -14.263   6.566  1.00  0.00    -0.268 N 
HETATM   17  C   UNL     1      39.834 -13.449   5.616  1.00  0.00     0.232 C 
HETATM   18  C   UNL     1      39.420 -12.095   6.122  1.00  0.00     0.119 C 
HETATM   19  O   UNL     1      39.655 -13.810   4.455  1.00  0.00    -0.272 OA
HETATM   20  H   UNL     1      40.795 -13.901   7.440  1.00  0.00     0.190 HD
ENDBRANCH  13  16
ENDBRANCH   1  12
BRANCH   6  21
HETATM   21  C   UNL     1      41.956 -16.539   2.935  1.00  0.00    -0.023 A 
HETATM   22  C   UNL     1      42.617 -15.587   2.148  1.00  0.00     0.012 A 
HETATM   23  C   UNL     1      41.924 -14.897   1.150  1.00  0.00     0.001 A 
HETATM   24  C   UNL     1      40.569 -15.149   0.939  1.00  0.00     0.000 A 
HETATM   25  C   UNL     1      39.904 -16.090   1.722  1.00  0.00     0.001 A 
HETATM   26  C   UNL     1      40.595 -16.784   2.717  1.00  0.00     0.012 A 
ENDBRANCH   6  21
TORSDOF 3
ENDMDL
MODEL 3
REMARK VINA RESULT:      -7.8      4.223      6.172
REMARK  3 active torsions:
REMARK  status: ('A' for Active; 'I' for Inactive)
REMARK       I    between atoms: C_2  and  N_3 
REMARK    1  A    between atoms: N_3  and  N_4 
REMARK       I    between atoms: N_4  and  C_5 
REMARK    2  A    between atoms: C_5  and  C_6 
REMARK    3  A    between atoms: C_11  and  C_12 
ROOT
HETATM    1  C   UNL     1      42.187 -16.143   1.300  1.00  0.00     0.115 A 
HETATM    2  N   UNL     1      42.674 -17.347   0.828  1.00  0.00    -0.350 N 
HETATM    3  H   UNL     1      42.664 -17.628  -0.143  1.00  0.00     0.166 HD
HETATM    4  C   UNL     1      43.124 -18.145   1.849  1.00  0.00     0.044 A 
HETATM    5  C   UNL     1      42.913 -17.446   3.034  1.00  0.00     0.005 A 
HETATM    6  C   UNL     1      42.314 -16.190   2.685  1.00  0.00     0.019 A 
HETATM    7  C   UNL     1      43.688 -19.426   1.809  1.00  0.00     0.032 A 
HETATM    8  C   UNL     1      44.057 -20.008   3.027  1.00  0.00     0.021 A 
HETATM    9  C   UNL     1      43.864 -19.327   4.225  1.00  0.00     0.012 A 
HETATM   10 BR   UNL     1      44.375 -20.147   5.853  1.00  0.00    -0.051 Br
HETATM   11  C   UNL     1      43.298 -18.050   4.250  1.00  0.00     0.033 A 
ENDROOT
BRANCH   1  12
HETATM   12  C   UNL     1      41.614 -15.123   0.444  1.00  0.00     0.287 C 
HETATM   13  N   UNL     1      40.540 -15.558  -0.320  1.00  0.00    -0.262 N 
HETATM   14  H   UNL     1      40.411 -16.545  -0.533  1.00  0.00     0.190 HD
HETATM   15  O   UNL     1      42.013 -13.962   0.362  1.00  0.00    -0.264 OA
BRANCH  13  16
HETATM   16  N   UNL     1      40.022 -14.674  -1.283  1.00  0.00    -0.268 N 
HETATM   17  C   UNL     1      40.375 -14.899  -2.596  1.00  0.00     0.232 C 
HETATM   18  C   UNL     1      39.926 -13.831  -3.555  1.00  0.00     0.119 C 
HETATM   19  O   UNL     1      40.988 -15.902  -2.954  1.00  0.00    -0.272 OA
HETATM   20  H   UNL     1      39.753 -13.752  -0.936  1.00  0.00     0.190 HD
ENDBRANCH  13  16
ENDBRANCH   1  12
BRANCH   6  21
HETATM   21  C   UNL     1      41.904 -15.128   3.591  1.00  0.00    -0.023 A 
HETATM   22  C   UNL     1      42.784 -14.090   3.924  1.00  0.00     0.012 A 
HETATM   23  C   UNL     1      42.389 -13.095   4.821  1.00  0.00     0.001 A 
HETATM   24  C   UNL     1      41.119 -13.135   5.394  1.00  0.00     0.000 A 
HETATM   25  C   UNL     1      40.240 -14.167   5.072  1.00  0.00     0.001 A 
HETATM   26  C   UNL     1      40.631 -15.161   4.173  1.00  0.00     0.012 A 
ENDBRANCH   6  21
TORSDOF 3
ENDMDL
MODEL 4
REMARK VINA RESULT:      -7.7      3.028      4.072
REMARK  3 active torsions:
REMARK  status: ('A' for Active; 'I' for Inactive)
REMARK       I    between atoms: C_2  and  N_3 
REMARK    1  A    between atoms: N_3  and  N_4 
REMARK       I    between atoms: N_4  and  C_5 
REMARK    2  A    between atoms: C_5  and  C_6 
REMARK    3  A    between atoms: C_11  and  C_12 
ROOT
HETATM    1  C   UNL     1      42.377 -15.172   5.431  1.00  0.00     0.115 A 
HETATM    2  N   UNL     1      42.740 -15.399   6.745  1.00  0.00    -0.350 N 
HETATM    3  H   UNL     1      42.793 -14.684   7.457  1.00  0.00     0.166 HD
HETATM    4  C   UNL     1      43.076 -16.712   6.956  1.00  0.00     0.044 A 
HETATM    5  C   UNL     1      42.942 -17.367   5.735  1.00  0.00     0.005 A 
HETATM    6  C   UNL     1      42.511 -16.392   4.775  1.00  0.00     0.019 A 
HETATM    7  C   UNL     1      43.494 -17.359   8.125  1.00  0.00     0.032 A 
HETATM    8  C   UNL     1      43.777 -18.726   8.043  1.00  0.00     0.021 A 
HETATM    9  C   UNL     1      43.644 -19.406   6.836  1.00  0.00     0.012 A 
HETATM   10 BR   UNL     1      44.036 -21.256   6.762  1.00  0.00    -0.051 Br
HETATM   11  C   UNL     1      43.227 -18.748   5.676  1.00  0.00     0.033 A 
ENDROOT
BRANCH   1  12
HETATM   12  C   UNL     1      42.010 -13.866   4.919  1.00  0.00     0.287 C 
HETATM   13  N   UNL     1      40.645 -13.620   4.913  1.00  0.00    -0.262 N 
HETATM   14  H   UNL     1      39.972 -14.385   4.911  1.00  0.00     0.190 HD
HETATM   15  O   UNL     1      42.802 -13.018   4.510  1.00  0.00    -0.264 OA
BRANCH  13  16
HETATM   16  N   UNL     1      40.195 -12.439   4.297  1.00  0.00    -0.268 N 
HETATM   17  C   UNL     1      39.087 -11.829   4.842  1.00  0.00     0.232 C 
HETATM   18  C   UNL     1      38.559 -10.667   4.047  1.00  0.00     0.119 C 
HETATM   19  O   UNL     1      38.586 -12.192   5.904  1.00  0.00    -0.272 OA
HETATM   20  H   UNL     1      40.459 -12.325   3.317  1.00  0.00     0.190 HD
ENDBRANCH  13  16
ENDBRANCH   1  12
BRANCH   6  21
HETATM   21  C   UNL     1      42.246 -16.605   3.360  1.00  0.00    -0.023 A 
HETATM   22  C   UNL     1      40.944 -16.845   2.903  1.00  0.00     0.012 A 
HETATM   23  C   UNL     1      40.708 -17.081   1.547  1.00  0.00     0.001 A 
HETATM   24  C   UNL     1      41.770 -17.086   0.643  1.00  0.00     0.000 A 
HETATM   25  C   UNL     1      43.069 -16.854   1.092  1.00  0.00     0.001 A 
HETATM   26  C   UNL     1      43.307 -16.614   2.446  1.00  0.00     0.012 A 
ENDBRANCH   6  21
TORSDOF 3
ENDMDL
MODEL 5
REMARK VINA RESULT:      -7.7      2.481      4.871
REMARK  3 active torsions:
REMARK  status: ('A' for Active; 'I' for Inactive)
REMARK       I    between atoms: C_2  and  N_3 
REMARK    1  A    between atoms: N_3  and  N_4 
REMARK       I    between atoms: N_4  and  C_5 
REMARK    2  A    between atoms: C_5  and  C_6 
REMARK    3  A    between atoms: C_11  and  C_12 
ROOT
HETATM    1  C   UNL     1      44.035 -14.220   5.637  1.00  0.00     0.115 A 
HETATM    2  N   UNL     1      43.616 -13.442   4.574  1.00  0.00    -0.350 N 
HETATM    3  H   UNL     1      43.740 -12.441   4.512  1.00  0.00     0.166 HD
HETATM    4  C   UNL     1      42.958 -14.190   3.630  1.00  0.00     0.044 A 
HETATM    5  C   UNL     1      42.931 -15.501   4.096  1.00  0.00     0.005 A 
HETATM    6  C   UNL     1      43.602 -15.515   5.364  1.00  0.00     0.019 A 
HETATM    7  C   UNL     1      42.381 -13.801   2.415  1.00  0.00     0.032 A 
HETATM    8  C   UNL     1      41.762 -14.792   1.646  1.00  0.00     0.021 A 
HETATM    9  C   UNL     1      41.729 -16.113   2.085  1.00  0.00     0.012 A 
HETATM   10 BR   UNL     1      40.883 -17.427   1.018  1.00  0.00    -0.051 Br
HETATM   11  C   UNL     1      42.308 -16.487   3.301  1.00  0.00     0.033 A 
ENDROOT
BRANCH   1  12
HETATM   12  C   UNL     1      44.724 -13.685   6.794  1.00  0.00     0.287 C 
HETATM   13  N   UNL     1      43.887 -13.326   7.840  1.00  0.00    -0.262 N 
HETATM   14  H   UNL     1      42.904 -13.114   7.680  1.00  0.00     0.190 HD
HETATM   15  O   UNL     1      45.942 -13.536   6.886  1.00  0.00    -0.264 OA
BRANCH  13  16
HETATM   16  N   UNL     1      44.461 -12.663   8.939  1.00  0.00    -0.268 N 
HETATM   17  C   UNL     1      44.067 -11.362   9.164  1.00  0.00     0.232 C 
HETATM   18  C   UNL     1      44.832 -10.656  10.249  1.00  0.00     0.119 C 
HETATM   19  O   UNL     1      43.149 -10.831   8.541  1.00  0.00    -0.272 OA
HETATM   20  H   UNL     1      45.362 -13.026   9.252  1.00  0.00     0.190 HD
ENDBRANCH  13  16
ENDBRANCH   1  12
BRANCH   6  21
HETATM   21  C   UNL     1      43.816 -16.660   6.236  1.00  0.00    -0.023 A 
HETATM   22  C   UNL     1      44.512 -17.787   5.780  1.00  0.00     0.012 A 
HETATM   23  C   UNL     1      44.681 -18.894   6.616  1.00  0.00     0.001 A 
HETATM   24  C   UNL     1      44.150 -18.882   7.906  1.00  0.00     0.000 A 
HETATM   25  C   UNL     1      43.451 -17.767   8.363  1.00  0.00     0.001 A 
HETATM   26  C   UNL     1      43.285 -16.659   7.531  1.00  0.00     0.012 A 
ENDBRANCH   6  21
TORSDOF 3
ENDMDL
MODEL 6
REMARK VINA RESULT:      -7.5      3.119      5.596
REMARK  3 active torsions:
REMARK  status: ('A' for Active; 'I' for Inactive)
REMARK       I    between atoms: C_2  and  N_3 
REMARK    1  A    between atoms: N_3  and  N_4 
REMARK       I    between atoms: N_4  and  C_5 
REMARK    2  A    between atoms: C_5  and  C_6 
REMARK    3  A    between atoms: C_11  and  C_12 
ROOT
HETATM    1  C   UNL     1      42.499 -13.448   4.811  1.00  0.00     0.115 A 
HETATM    2  N   UNL     1      41.797 -12.281   4.581  1.00  0.00    -0.350 N 
HETATM    3  H   UNL     1      41.986 -11.399   5.035  1.00  0.00     0.166 HD
HETATM    4  C   UNL     1      40.766 -12.478   3.696  1.00  0.00     0.044 A 
HETATM    5  C   UNL     1      40.785 -13.824   3.343  1.00  0.00     0.005 A 
HETATM    6  C   UNL     1      41.872 -14.434   4.054  1.00  0.00     0.019 A 
HETATM    7  C   UNL     1      39.823 -11.572   3.195  1.00  0.00     0.032 A 
HETATM    8  C   UNL     1      38.870 -12.062   2.296  1.00  0.00     0.021 A 
HETATM    9  C   UNL     1      38.872 -13.402   1.920  1.00  0.00     0.012 A 
HETATM   10 BR   UNL     1      37.568 -14.029   0.700  1.00  0.00    -0.051 Br
HETATM   11  C   UNL     1      39.819 -14.296   2.429  1.00  0.00     0.033 A 
ENDROOT
BRANCH   1  12
HETATM   12  C   UNL     1      43.616 -13.539   5.731  1.00  0.00     0.287 C 
HETATM   13  N   UNL     1      43.271 -13.370   7.064  1.00  0.00    -0.262 N 
HETATM   14  H   UNL     1      42.421 -12.878   7.330  1.00  0.00     0.190 HD
HETATM   15  O   UNL     1      44.785 -13.741   5.406  1.00  0.00    -0.264 OA
BRANCH  13  16
HETATM   16  N   UNL     1      44.313 -13.297   8.005  1.00  0.00    -0.268 N 
HETATM   17  C   UNL     1      44.457 -12.111   8.691  1.00  0.00     0.232 C 
HETATM   18  C   UNL     1      45.681 -12.036   9.560  1.00  0.00     0.119 C 
HETATM   19  O   UNL     1      43.637 -11.198   8.615  1.00  0.00    -0.272 OA
HETATM   20  H   UNL     1      45.089 -13.942   7.855  1.00  0.00     0.190 HD
ENDBRANCH  13  16
ENDBRANCH   1  12
BRANCH   6  21
HETATM   21  C   UNL     1      42.279 -15.830   4.013  1.00  0.00    -0.023 A 
HETATM   22  C   UNL     1      43.295 -16.256   3.148  1.00  0.00     0.012 A 
HETATM   23  C   UNL     1      43.653 -17.605   3.094  1.00  0.00     0.001 A 
HETATM   24  C   UNL     1      42.994 -18.535   3.897  1.00  0.00     0.000 A 
HETATM   25  C   UNL     1      41.978 -18.121   4.756  1.00  0.00     0.001 A 
HETATM   26  C   UNL     1      41.621 -16.772   4.814  1.00  0.00     0.012 A 
ENDBRANCH   6  21
TORSDOF 3
ENDMDL
MODEL 7
REMARK VINA RESULT:      -7.4      4.344      5.868
REMARK  3 active torsions:
REMARK  status: ('A' for Active; 'I' for Inactive)
REMARK       I    between atoms: C_2  and  N_3 
REMARK    1  A    between atoms: N_3  and  N_4 
REMARK       I    between atoms: N_4  and  C_5 
REMARK    2  A    between atoms: C_5  and  C_6 
REMARK    3  A    between atoms: C_11  and  C_12 
ROOT
HETATM    1  C   UNL     1      42.000 -15.628   0.820  1.00  0.00     0.115 A 
HETATM    2  N   UNL     1      42.566 -16.812   0.390  1.00  0.00    -0.350 N 
HETATM    3  H   UNL     1      42.566 -17.133  -0.569  1.00  0.00     0.166 HD
HETATM    4  C   UNL     1      43.081 -17.535   1.436  1.00  0.00     0.044 A 
HETATM    5  C   UNL     1      42.833 -16.805   2.595  1.00  0.00     0.005 A 
HETATM    6  C   UNL     1      42.144 -15.609   2.204  1.00  0.00     0.019 A 
HETATM    7  C   UNL     1      43.733 -18.774   1.441  1.00  0.00     0.032 A 
HETATM    8  C   UNL     1      44.154 -19.279   2.676  1.00  0.00     0.021 A 
HETATM    9  C   UNL     1      43.925 -18.565   3.849  1.00  0.00     0.012 A 
HETATM   10 BR   UNL     1      44.508 -19.279   5.502  1.00  0.00    -0.051 Br
HETATM   11  C   UNL     1      43.271 -17.330   3.830  1.00  0.00     0.033 A 
ENDROOT
BRANCH   1  12
HETATM   12  C   UNL     1      41.348 -14.686  -0.069  1.00  0.00     0.287 C 
HETATM   13  N   UNL     1      42.193 -14.107  -1.004  1.00  0.00    -0.262 N 
HETATM   14  H   UNL     1      43.198 -14.060  -0.848  1.00  0.00     0.190 HD
HETATM   15  O   UNL     1      40.154 -14.389  -0.034  1.00  0.00    -0.264 OA
BRANCH  13  16
HETATM   16  N   UNL     1      41.673 -13.075  -1.806  1.00  0.00    -0.268 N 
HETATM   17  C   UNL     1      42.148 -11.802  -1.577  1.00  0.00     0.232 C 
HETATM   18  C   UNL     1      41.440 -10.724  -2.349  1.00  0.00     0.119 C 
HETATM   19  O   UNL     1      43.089 -11.572  -0.820  1.00  0.00    -0.272 OA
HETATM   20  H   UNL     1      40.755 -13.254  -2.214  1.00  0.00     0.190 HD
ENDBRANCH  13  16
ENDBRANCH   1  12
BRANCH   6  21
HETATM   21  C   UNL     1      41.668 -14.542   3.072  1.00  0.00    -0.023 A 
HETATM   22  C   UNL     1      42.479 -13.436   3.356  1.00  0.00     0.012 A 
HETATM   23  C   UNL     1      42.024 -12.434   4.218  1.00  0.00     0.001 A 
HETATM   24  C   UNL     1      40.762 -12.537   4.804  1.00  0.00     0.000 A 
HETATM   25  C   UNL     1      39.953 -13.638   4.530  1.00  0.00     0.001 A 
HETATM   26  C   UNL     1      40.404 -14.638   3.666  1.00  0.00     0.012 A 
ENDBRANCH   6  21
TORSDOF 3
ENDMDL
MODEL 8
REMARK VINA RESULT:      -7.4      2.087      2.797
REMARK  3 active torsions:
REMARK  status: ('A' for Active; 'I' for Inactive)
REMARK       I    between atoms: C_2  and  N_3 
REMARK    1  A    between atoms: N_3  and  N_4 
REMARK       I    between atoms: N_4  and  C_5 
REMARK    2  A    between atoms: C_5  and  C_6 
REMARK    3  A    between atoms: C_11  and  C_12 
ROOT
HETATM    1  C   UNL     1      42.234 -14.851   5.629  1.00  0.00     0.115 A 
HETATM    2  N   UNL     1      42.975 -15.514   6.588  1.00  0.00    -0.350 N 
HETATM    3  H   UNL     1      43.148 -15.166   7.521  1.00  0.00     0.166 HD
HETATM    4  C   UNL     1      43.500 -16.685   6.100  1.00  0.00     0.044 A 
HETATM    5  C   UNL     1      43.101 -16.787   4.771  1.00  0.00     0.005 A 
HETATM    6  C   UNL     1      42.311 -15.626   4.475  1.00  0.00     0.019 A 
HETATM    7  C   UNL     1      44.300 -17.645   6.731  1.00  0.00     0.032 A 
HETATM    8  C   UNL     1      44.698 -18.753   5.976  1.00  0.00     0.021 A 
HETATM    9  C   UNL     1      44.305 -18.883   4.647  1.00  0.00     0.012 A 
HETATM   10 BR   UNL     1      44.862 -20.397   3.656  1.00  0.00    -0.051 Br
HETATM   11  C   UNL     1      43.507 -17.916   4.029  1.00  0.00     0.033 A 
ENDROOT
BRANCH   1  12
HETATM   12  C   UNL     1      41.595 -13.571   5.859  1.00  0.00     0.287 C 
HETATM   13  N   UNL     1      42.329 -12.702   6.653  1.00  0.00    -0.262 N 
HETATM   14  H   UNL     1      43.040 -13.048   7.295  1.00  0.00     0.190 HD
HETATM   15  O   UNL     1      40.497 -13.238   5.415  1.00  0.00    -0.264 OA
BRANCH  13  16
HETATM   16  N   UNL     1      41.718 -11.499   7.046  1.00  0.00    -0.268 N 
HETATM   17  C   UNL     1      42.304 -10.805   8.081  1.00  0.00     0.232 C 
HETATM   18  C   UNL     1      41.517  -9.617   8.562  1.00  0.00     0.119 C 
HETATM   19  O   UNL     1      43.392 -11.120   8.557  1.00  0.00    -0.272 OA
HETATM   20  H   UNL     1      40.726 -11.414   6.820  1.00  0.00     0.190 HD
ENDBRANCH  13  16
ENDBRANCH   1  12
BRANCH   6  21
HETATM   21  C   UNL     1      41.683 -15.288   3.207  1.00  0.00    -0.023 A 
HETATM   22  C   UNL     1      42.317 -14.428   2.301  1.00  0.00     0.012 A 
HETATM   23  C   UNL     1      41.688 -14.083   1.101  1.00  0.00     0.001 A 
HETATM   24  C   UNL     1      40.422 -14.590   0.806  1.00  0.00     0.000 A 
HETATM   25  C   UNL     1      39.784 -15.441   1.705  1.00  0.00     0.001 A 
HETATM   26  C   UNL     1      40.412 -15.789   2.902  1.00  0.00     0.012 A 
ENDBRANCH   6  21
TORSDOF 3
ENDMDL
MODEL 9
REMARK VINA RESULT:      -7.2      3.131      5.437
REMARK  3 active torsions:
REMARK  status: ('A' for Active; 'I' for Inactive)
REMARK       I    between atoms: C_2  and  N_3 
REMARK    1  A    between atoms: N_3  and  N_4 
REMARK       I    between atoms: N_4  and  C_5 
REMARK    2  A    between atoms: C_5  and  C_6 
REMARK    3  A    between atoms: C_11  and  C_12 
ROOT
HETATM    1  C   UNL     1      42.538 -13.568   3.206  1.00  0.00     0.115 A 
HETATM    2  N   UNL     1      42.262 -12.555   2.308  1.00  0.00    -0.350 N 
HETATM    3  H   UNL     1      42.278 -11.570   2.532  1.00  0.00     0.166 HD
HETATM    4  C   UNL     1      41.906 -13.053   1.079  1.00  0.00     0.044 A 
HETATM    5  C   UNL     1      41.937 -14.441   1.179  1.00  0.00     0.005 A 
HETATM    6  C   UNL     1      42.326 -14.762   2.522  1.00  0.00     0.019 A 
HETATM    7  C   UNL     1      41.554 -12.381  -0.097  1.00  0.00     0.032 A 
HETATM    8  C   UNL     1      41.229 -13.159  -1.213  1.00  0.00     0.021 A 
HETATM    9  C   UNL     1      41.259 -14.549  -1.143  1.00  0.00     0.012 A 
HETATM   10 BR   UNL     1      40.814 -15.569  -2.674  1.00  0.00    -0.051 Br
HETATM   11  C   UNL     1      41.612 -15.207   0.039  1.00  0.00     0.033 A 
ENDROOT
BRANCH   1  12
HETATM   12  C   UNL     1      42.905 -13.330   4.588  1.00  0.00     0.287 C 
HETATM   13  N   UNL     1      41.882 -12.808   5.367  1.00  0.00    -0.262 N 
HETATM   14  H   UNL     1      41.102 -12.308   4.945  1.00  0.00     0.190 HD
HETATM   15  O   UNL     1      44.013 -13.550   5.074  1.00  0.00    -0.264 OA
BRANCH  13  16
HETATM   16  N   UNL     1      42.196 -12.411   6.679  1.00  0.00    -0.268 N 
HETATM   17  C   UNL     1      41.781 -11.157   7.072  1.00  0.00     0.232 C 
HETATM   18  C   UNL     1      42.285 -10.727   8.421  1.00  0.00     0.119 C 
HETATM   19  O   UNL     1      41.041 -10.458   6.382  1.00  0.00    -0.272 OA
HETATM   20  H   UNL     1      42.995 -12.883   7.103  1.00  0.00     0.190 HD
ENDBRANCH  13  16
ENDBRANCH   1  12
BRANCH   6  21
HETATM   21  C   UNL     1      42.486 -16.087   3.101  1.00  0.00    -0.023 A 
HETATM   22  C   UNL     1      41.524 -16.608   3.975  1.00  0.00     0.012 A 
HETATM   23  C   UNL     1      41.705 -17.868   4.551  1.00  0.00     0.001 A 
HETATM   24  C   UNL     1      42.851 -18.609   4.262  1.00  0.00     0.000 A 
HETATM   25  C   UNL     1      43.815 -18.095   3.398  1.00  0.00     0.001 A 
HETATM   26  C   UNL     1      43.634 -16.838   2.819  1.00  0.00     0.012 A 
ENDBRANCH   6  21
TORSDOF 3
ENDMDL
MODEL 10
REMARK VINA RESULT:      -7.2      3.423      5.659
REMARK  3 active torsions:
REMARK  status: ('A' for Active; 'I' for Inactive)
REMARK       I    between atoms: C_2  and  N_3 
REMARK    1  A    between atoms: N_3  and  N_4 
REMARK       I    between atoms: N_4  and  C_5 
REMARK    2  A    between atoms: C_5  and  C_6 
REMARK    3  A    between atoms: C_11  and  C_12 
ROOT
HETATM    1  C   UNL     1      42.298 -14.884   5.614  1.00  0.00     0.115 A 
HETATM    2  N   UNL     1      41.521 -13.804   5.987  1.00  0.00    -0.350 N 
HETATM    3  H   UNL     1      41.514 -13.395   6.911  1.00  0.00     0.166 HD
HETATM    4  C   UNL     1      40.710 -13.387   4.962  1.00  0.00     0.044 A 
HETATM    5  C   UNL     1      40.955 -14.230   3.882  1.00  0.00     0.005 A 
HETATM    6  C   UNL     1      41.949 -15.177   4.298  1.00  0.00     0.019 A 
HETATM    7  C   UNL     1      39.780 -12.341   4.917  1.00  0.00     0.032 A 
HETATM    8  C   UNL     1      39.083 -12.147   3.720  1.00  0.00     0.021 A 
HETATM    9  C   UNL     1      39.314 -12.971   2.622  1.00  0.00     0.012 A 
HETATM   10 BR   UNL     1      38.352 -12.678   1.019  1.00  0.00    -0.051 Br
HETATM   11  C   UNL     1      40.245 -14.012   2.681  1.00  0.00     0.033 A 
ENDROOT
BRANCH   1  12
HETATM   12  C   UNL     1      43.220 -15.551   6.511  1.00  0.00     0.287 C 
HETATM   13  N   UNL     1      42.652 -16.574   7.255  1.00  0.00    -0.262 N 
HETATM   14  H   UNL     1      41.648 -16.606   7.427  1.00  0.00     0.190 HD
HETATM   15  O   UNL     1      44.411 -15.268   6.642  1.00  0.00    -0.264 OA
BRANCH  13  16
HETATM   16  N   UNL     1      43.439 -17.173   8.254  1.00  0.00    -0.268 N 
HETATM   17  C   UNL     1      43.912 -18.443   8.004  1.00  0.00     0.232 C 
HETATM   18  C   UNL     1      44.607 -19.092   9.169  1.00  0.00     0.119 C 
HETATM   19  O   UNL     1      43.794 -18.990   6.909  1.00  0.00    -0.272 OA
HETATM   20  H   UNL     1      43.298 -16.816   9.200  1.00  0.00     0.190 HD
ENDBRANCH  13  16
ENDBRANCH   1  12
BRANCH   6  21
HETATM   21  C   UNL     1      42.517 -16.262   3.513  1.00  0.00    -0.023 A 
HETATM   22  C   UNL     1      42.148 -17.591   3.754  1.00  0.00     0.012 A 
HETATM   23  C   UNL     1      42.727 -18.626   3.016  1.00  0.00     0.001 A 
HETATM   24  C   UNL     1      43.681 -18.340   2.040  1.00  0.00     0.000 A 
HETATM   25  C   UNL     1      44.057 -17.020   1.798  1.00  0.00     0.001 A 
HETATM   26  C   UNL     1      43.477 -15.984   2.533  1.00  0.00     0.012 A 
ENDBRANCH   6  21
TORSDOF 3
ENDMDL
