MODEL 1
REMARK VINA RESULT:      -9.6      0.000      0.000
REMARK  7 active torsions:
REMARK  status: ('A' for Active; 'I' for Inactive)
REMARK    1  A    between atoms: C_5  and  C_6 
REMARK    2  A    between atoms: C_6  and  N_7 
REMARK       I    between atoms: N_7  and  C_8 
REMARK    3  A    between atoms: C_8  and  C_9 
REMARK    4  A    between atoms: C_14  and  C_15 
REMARK    5  A    between atoms: C_15  and  S_16 
REMARK    6  A    between atoms: S_16  and  C_17 
REMARK    7  A    between atoms: C_17  and  C_18 
ROOT
HETATM    1  C   UNL     1      40.335 -12.339   6.039  1.00  0.00     0.034 A 
HETATM    2  C   UNL     1      39.656 -13.274   5.249  1.00  0.00     0.048 A 
HETATM    3  C   UNL     1      40.367 -14.017   4.300  1.00  0.00     0.057 A 
HETATM    4  C   UNL     1      41.751 -13.840   4.126  1.00  0.00     0.036 A 
HETATM    5  N   UNL     1      42.477 -14.521   3.133  1.00  0.00    -0.277 NA
HETATM    6  C   UNL     1      41.858 -15.792   2.684  1.00  0.00     0.162 C 
HETATM    7  C   UNL     1      40.324 -15.714   2.558  1.00  0.00     0.240 C 
HETATM    8  O   UNL     1      39.673 -16.403   1.774  1.00  0.00    -0.271 OA
HETATM    9  N   UNL     1      39.681 -14.912   3.470  1.00  0.00    -0.324 N 
HETATM   10  C   UNL     1      42.402 -12.858   4.872  1.00  0.00     0.027 A 
HETATM   11  C   UNL     1      41.704 -12.121   5.830  1.00  0.00     0.019 A 
HETATM   12  H   UNL     1      42.650 -13.892   2.345  1.00  0.00     0.128 HD
HETATM   13  H   UNL     1      38.671 -14.946   3.465  1.00  0.00     0.169 HD
ENDROOT
BRANCH   1  14
HETATM   14  C   UNL     1      39.666 -11.530   7.097  1.00  0.00     0.252 C 
HETATM   15  N   UNL     1      39.906 -11.881   8.407  1.00  0.00    -0.353 N 
HETATM   16  H   UNL     1      40.593 -12.583   8.637  1.00  0.00     0.163 HD
HETATM   17  O   UNL     1      38.969 -10.574   6.774  1.00  0.00    -0.268 OA
BRANCH  15  18
HETATM   18  C   UNL     1      39.436 -11.049   9.498  1.00  0.00     0.161 C 
BRANCH  18  19
HETATM   19  C   UNL     1      40.520 -10.752  10.501  1.00  0.00    -0.041 A 
HETATM   20  C   UNL     1      41.799 -10.371  10.073  1.00  0.00     0.009 A 
HETATM   21  C   UNL     1      42.781 -10.006  10.998  1.00  0.00     0.007 A 
HETATM   22  C   UNL     1      42.502 -10.013  12.368  1.00  0.00    -0.062 A 
HETATM   23  C   UNL     1      43.533  -9.581  13.369  1.00  0.00     0.048 C 
HETATM   24  C   UNL     1      41.226 -10.392  12.800  1.00  0.00     0.007 A 
HETATM   25  C   UNL     1      40.243 -10.752  11.875  1.00  0.00     0.009 A 
ENDBRANCH  18  19
ENDBRANCH  15  18
ENDBRANCH   1  14
BRANCH   6  26
HETATM   26  C   UNL     1      42.468 -16.275   1.355  1.00  0.00     0.103 C 
BRANCH  26  27
HETATM   27  S   UNL     1      44.045 -17.210   1.494  1.00  0.00    -0.162 SA
BRANCH  27  28
HETATM   28  C   UNL     1      43.814 -17.956   3.139  1.00  0.00     0.114 C 
BRANCH  28  29
HETATM   29  C   UNL     1      44.031 -19.449   3.113  1.00  0.00    -0.027 A 
HETATM   30  C   UNL     1      44.553 -20.166   4.201  1.00  0.00     0.041 A 
HETATM   31 CL   UNL     1      45.003 -19.390   5.679  1.00  0.00    -0.084 Cl
HETATM   32  C   UNL     1      44.735 -21.551   4.119  1.00  0.00     0.024 A 
HETATM   33  C   UNL     1      44.394 -22.238   2.954  1.00  0.00     0.002 A 
HETATM   34  C   UNL     1      43.865 -21.544   1.871  1.00  0.00     0.001 A 
HETATM   35  C   UNL     1      43.680 -20.162   1.951  1.00  0.00     0.009 A 
ENDBRANCH  28  29
ENDBRANCH  27  28
ENDBRANCH  26  27
ENDBRANCH   6  26
TORSDOF 7
ENDMDL
MODEL 2
REMARK VINA RESULT:      -9.4      2.533      3.309
REMARK  7 active torsions:
REMARK  status: ('A' for Active; 'I' for Inactive)
REMARK    1  A    between atoms: C_5  and  C_6 
REMARK    2  A    between atoms: C_6  and  N_7 
REMARK       I    between atoms: N_7  and  C_8 
REMARK    3  A    between atoms: C_8  and  C_9 
REMARK    4  A    between atoms: C_14  and  C_15 
REMARK    5  A    between atoms: C_15  and  S_16 
REMARK    6  A    between atoms: S_16  and  C_17 
REMARK    7  A    between atoms: C_17  and  C_18 
ROOT
HETATM    1  C   UNL     1      44.387 -12.281   8.252  1.00  0.00     0.034 A 
HETATM    2  C   UNL     1      43.146 -12.207   7.608  1.00  0.00     0.048 A 
HETATM    3  C   UNL     1      42.851 -13.111   6.582  1.00  0.00     0.057 A 
HETATM    4  C   UNL     1      43.779 -14.091   6.186  1.00  0.00     0.036 A 
HETATM    5  N   UNL     1      43.537 -14.965   5.111  1.00  0.00    -0.277 NA
HETATM    6  C   UNL     1      42.101 -15.176   4.804  1.00  0.00     0.162 C 
HETATM    7  C   UNL     1      41.255 -13.892   4.920  1.00  0.00     0.240 C 
HETATM    8  O   UNL     1      40.230 -13.695   4.269  1.00  0.00    -0.271 OA
HETATM    9  N   UNL     1      41.633 -13.004   5.897  1.00  0.00    -0.324 N 
HETATM   10  C   UNL     1      45.035 -14.110   6.790  1.00  0.00     0.027 A 
HETATM   11  C   UNL     1      45.334 -13.221   7.823  1.00  0.00     0.019 A 
HETATM   12  H   UNL     1      44.050 -14.644   4.288  1.00  0.00     0.128 HD
HETATM   13  H   UNL     1      41.018 -12.217   6.053  1.00  0.00     0.169 HD
ENDROOT
BRANCH   1  14
HETATM   14  C   UNL     1      44.772 -11.383   9.378  1.00  0.00     0.252 C 
HETATM   15  N   UNL     1      44.036 -11.473  10.539  1.00  0.00    -0.353 N 
HETATM   16  H   UNL     1      43.339 -12.193  10.654  1.00  0.00     0.163 HD
HETATM   17  O   UNL     1      45.737 -10.637   9.250  1.00  0.00    -0.268 OA
BRANCH  15  18
HETATM   18  C   UNL     1      44.445 -10.763  11.735  1.00  0.00     0.161 C 
BRANCH  18  19
HETATM   19  C   UNL     1      43.335  -9.925  12.312  1.00  0.00    -0.041 A 
HETATM   20  C   UNL     1      42.128  -9.768  11.617  1.00  0.00     0.009 A 
HETATM   21  C   UNL     1      41.061  -9.069  12.188  1.00  0.00     0.007 A 
HETATM   22  C   UNL     1      41.182  -8.512  13.466  1.00  0.00    -0.062 A 
HETATM   23  C   UNL     1      40.030  -7.796  14.108  1.00  0.00     0.048 C 
HETATM   24  C   UNL     1      42.385  -8.666  14.163  1.00  0.00     0.007 A 
HETATM   25  C   UNL     1      43.448  -9.370  13.594  1.00  0.00     0.009 A 
ENDBRANCH  18  19
ENDBRANCH  15  18
ENDBRANCH   1  14
BRANCH   6  26
HETATM   26  C   UNL     1      41.911 -15.804   3.410  1.00  0.00     0.103 C 
BRANCH  26  27
HETATM   27  S   UNL     1      41.843 -17.640   3.365  1.00  0.00    -0.162 SA
BRANCH  27  28
HETATM   28  C   UNL     1      43.512 -17.993   2.729  1.00  0.00     0.114 C 
BRANCH  28  29
HETATM   29  C   UNL     1      43.879 -19.447   2.893  1.00  0.00    -0.027 A 
HETATM   30  C   UNL     1      44.504 -19.954   4.043  1.00  0.00     0.041 A 
HETATM   31 CL   UNL     1      44.918 -18.944   5.382  1.00  0.00    -0.084 Cl
HETATM   32  C   UNL     1      44.822 -21.314   4.138  1.00  0.00     0.024 A 
HETATM   33  C   UNL     1      44.518 -22.184   3.092  1.00  0.00     0.002 A 
HETATM   34  C   UNL     1      43.888 -21.699   1.950  1.00  0.00     0.001 A 
HETATM   35  C   UNL     1      43.567 -20.344   1.853  1.00  0.00     0.009 A 
ENDBRANCH  28  29
ENDBRANCH  27  28
ENDBRANCH  26  27
ENDBRANCH   6  26
TORSDOF 7
ENDMDL
MODEL 3
REMARK VINA RESULT:      -9.3      3.680     11.013
REMARK  7 active torsions:
REMARK  status: ('A' for Active; 'I' for Inactive)
REMARK    1  A    between atoms: C_5  and  C_6 
REMARK    2  A    between atoms: C_6  and  N_7 
REMARK       I    between atoms: N_7  and  C_8 
REMARK    3  A    between atoms: C_8  and  C_9 
REMARK    4  A    between atoms: C_14  and  C_15 
REMARK    5  A    between atoms: C_15  and  S_16 
REMARK    6  A    between atoms: S_16  and  C_17 
REMARK    7  A    between atoms: C_17  and  C_18 
ROOT
HETATM    1  C   UNL     1      42.467 -15.041   4.493  1.00  0.00     0.034 A 
HETATM    2  C   UNL     1      43.667 -14.982   5.212  1.00  0.00     0.048 A 
HETATM    3  C   UNL     1      43.825 -14.010   6.206  1.00  0.00     0.057 A 
HETATM    4  C   UNL     1      42.801 -13.091   6.494  1.00  0.00     0.036 A 
HETATM    5  N   UNL     1      42.960 -12.060   7.438  1.00  0.00    -0.277 NA
HETATM    6  C   UNL     1      43.991 -12.327   8.470  1.00  0.00     0.162 C 
HETATM    7  C   UNL     1      45.250 -13.022   7.913  1.00  0.00     0.240 C 
HETATM    8  O   UNL     1      46.368 -12.894   8.407  1.00  0.00    -0.271 OA
HETATM    9  N   UNL     1      45.046 -13.913   6.887  1.00  0.00    -0.324 N 
HETATM   10  C   UNL     1      41.638 -13.117   5.726  1.00  0.00     0.027 A 
HETATM   11  C   UNL     1      41.465 -14.091   4.741  1.00  0.00     0.019 A 
HETATM   12  H   UNL     1      43.138 -11.179   6.953  1.00  0.00     0.128 HD
HETATM   13  H   UNL     1      45.848 -14.454   6.595  1.00  0.00     0.169 HD
ENDROOT
BRANCH   1  14
HETATM   14  C   UNL     1      42.198 -16.063   3.443  1.00  0.00     0.252 C 
HETATM   15  N   UNL     1      43.286 -16.609   2.798  1.00  0.00    -0.353 N 
HETATM   16  H   UNL     1      44.225 -16.403   3.105  1.00  0.00     0.163 HD
HETATM   17  O   UNL     1      41.042 -16.406   3.219  1.00  0.00    -0.268 OA
BRANCH  15  18
HETATM   18  C   UNL     1      43.128 -17.726   1.888  1.00  0.00     0.161 C 
BRANCH  18  19
HETATM   19  C   UNL     1      43.651 -19.015   2.467  1.00  0.00    -0.041 A 
HETATM   20  C   UNL     1      44.160 -19.053   3.772  1.00  0.00     0.009 A 
HETATM   21  C   UNL     1      44.561 -20.262   4.347  1.00  0.00     0.007 A 
HETATM   22  C   UNL     1      44.459 -21.457   3.627  1.00  0.00    -0.062 A 
HETATM   23  C   UNL     1      44.845 -22.767   4.248  1.00  0.00     0.048 C 
HETATM   24  C   UNL     1      43.951 -21.424   2.323  1.00  0.00     0.007 A 
HETATM   25  C   UNL     1      43.546 -20.216   1.752  1.00  0.00     0.009 A 
ENDBRANCH  18  19
ENDBRANCH  15  18
ENDBRANCH   1  14
BRANCH   6  26
HETATM   26  C   UNL     1      44.390 -11.038   9.212  1.00  0.00     0.103 C 
BRANCH  26  27
HETATM   27  S   UNL     1      44.706 -11.221  11.014  1.00  0.00    -0.162 SA
BRANCH  27  28
HETATM   28  C   UNL     1      43.019 -11.598  11.584  1.00  0.00     0.114 C 
BRANCH  28  29
HETATM   29  C   UNL     1      42.615 -10.732  12.752  1.00  0.00    -0.027 A 
HETATM   30  C   UNL     1      41.365 -10.832  13.384  1.00  0.00     0.041 A 
HETATM   31 CL   UNL     1      40.166 -11.965  12.869  1.00  0.00    -0.084 Cl
HETATM   32  C   UNL     1      41.046 -10.000  14.462  1.00  0.00     0.024 A 
HETATM   33  C   UNL     1      41.967  -9.063  14.927  1.00  0.00     0.002 A 
HETATM   34  C   UNL     1      43.214  -8.958  14.319  1.00  0.00     0.001 A 
HETATM   35  C   UNL     1      43.537  -9.789  13.244  1.00  0.00     0.009 A 
ENDBRANCH  28  29
ENDBRANCH  27  28
ENDBRANCH  26  27
ENDBRANCH   6  26
TORSDOF 7
ENDMDL
MODEL 4
REMARK VINA RESULT:      -9.3      3.243     10.673
REMARK  7 active torsions:
REMARK  status: ('A' for Active; 'I' for Inactive)
REMARK    1  A    between atoms: C_5  and  C_6 
REMARK    2  A    between atoms: C_6  and  N_7 
REMARK       I    between atoms: N_7  and  C_8 
REMARK    3  A    between atoms: C_8  and  C_9 
REMARK    4  A    between atoms: C_14  and  C_15 
REMARK    5  A    between atoms: C_15  and  S_16 
REMARK    6  A    between atoms: S_16  and  C_17 
REMARK    7  A    between atoms: C_17  and  C_18 
ROOT
HETATM    1  C   UNL     1      41.912 -15.405   3.919  1.00  0.00     0.034 A 
HETATM    2  C   UNL     1      40.870 -14.470   3.915  1.00  0.00     0.048 A 
HETATM    3  C   UNL     1      40.902 -13.402   4.819  1.00  0.00     0.057 A 
HETATM    4  C   UNL     1      41.961 -13.253   5.731  1.00  0.00     0.036 A 
HETATM    5  N   UNL     1      41.983 -12.230   6.697  1.00  0.00    -0.277 NA
HETATM    6  C   UNL     1      41.166 -11.042   6.350  1.00  0.00     0.162 C 
HETATM    7  C   UNL     1      39.826 -11.396   5.676  1.00  0.00     0.240 C 
HETATM    8  O   UNL     1      38.821 -10.692   5.756  1.00  0.00    -0.271 OA
HETATM    9  N   UNL     1      39.833 -12.498   4.855  1.00  0.00    -0.324 N 
HETATM   10  C   UNL     1      42.957 -14.227   5.771  1.00  0.00     0.027 A 
HETATM   11  C   UNL     1      42.941 -15.289   4.865  1.00  0.00     0.019 A 
HETATM   12  H   UNL     1      41.714 -12.614   7.606  1.00  0.00     0.128 HD
HETATM   13  H   UNL     1      38.991 -12.667   4.323  1.00  0.00     0.169 HD
ENDROOT
BRANCH   1  14
HETATM   14  C   UNL     1      41.979 -16.551   2.970  1.00  0.00     0.252 C 
HETATM   15  N   UNL     1      43.224 -16.915   2.504  1.00  0.00    -0.353 N 
HETATM   16  H   UNL     1      44.059 -16.491   2.877  1.00  0.00     0.163 HD
HETATM   17  O   UNL     1      40.950 -17.148   2.673  1.00  0.00    -0.268 OA
BRANCH  15  18
HETATM   18  C   UNL     1      43.400 -18.118   1.716  1.00  0.00     0.161 C 
BRANCH  18  19
HETATM   19  C   UNL     1      43.931 -19.266   2.534  1.00  0.00    -0.041 A 
HETATM   20  C   UNL     1      44.322 -19.069   3.865  1.00  0.00     0.009 A 
HETATM   21  C   UNL     1      44.728 -20.147   4.656  1.00  0.00     0.007 A 
HETATM   22  C   UNL     1      44.751 -21.443   4.131  1.00  0.00    -0.062 A 
HETATM   23  C   UNL     1      45.143 -22.614   4.983  1.00  0.00     0.048 C 
HETATM   24  C   UNL     1      44.361 -21.644   2.802  1.00  0.00     0.007 A 
HETATM   25  C   UNL     1      43.950 -20.568   2.014  1.00  0.00     0.009 A 
ENDBRANCH  18  19
ENDBRANCH  15  18
ENDBRANCH   1  14
BRANCH   6  26
HETATM   26  C   UNL     1      40.913 -10.155   7.583  1.00  0.00     0.103 C 
BRANCH  26  27
HETATM   27  S   UNL     1      42.137 -10.315   8.946  1.00  0.00    -0.162 SA
BRANCH  27  28
HETATM   28  C   UNL     1      41.447  -9.108  10.121  1.00  0.00     0.114 C 
BRANCH  28  29
HETATM   29  C   UNL     1      41.811  -9.442  11.547  1.00  0.00    -0.027 A 
HETATM   30  C   UNL     1      40.862  -9.800  12.517  1.00  0.00     0.041 A 
HETATM   31 CL   UNL     1      39.173  -9.884  12.158  1.00  0.00    -0.084 Cl
HETATM   32  C   UNL     1      41.259 -10.098  13.825  1.00  0.00     0.024 A 
HETATM   33  C   UNL     1      42.606 -10.047  14.181  1.00  0.00     0.002 A 
HETATM   34  C   UNL     1      43.561  -9.705  13.229  1.00  0.00     0.001 A 
HETATM   35  C   UNL     1      43.168  -9.410  11.922  1.00  0.00     0.009 A 
ENDBRANCH  28  29
ENDBRANCH  27  28
ENDBRANCH  26  27
ENDBRANCH   6  26
TORSDOF 7
ENDMDL
MODEL 5
REMARK VINA RESULT:      -9.2      3.035     10.120
REMARK  7 active torsions:
REMARK  status: ('A' for Active; 'I' for Inactive)
REMARK    1  A    between atoms: C_5  and  C_6 
REMARK    2  A    between atoms: C_6  and  N_7 
REMARK       I    between atoms: N_7  and  C_8 
REMARK    3  A    between atoms: C_8  and  C_9 
REMARK    4  A    between atoms: C_14  and  C_15 
REMARK    5  A    between atoms: C_15  and  S_16 
REMARK    6  A    between atoms: S_16  and  C_17 
REMARK    7  A    between atoms: C_17  and  C_18 
ROOT
HETATM    1  C   UNL     1      41.544 -15.452   3.634  1.00  0.00     0.034 A 
HETATM    2  C   UNL     1      41.795 -14.099   3.377  1.00  0.00     0.048 A 
HETATM    3  C   UNL     1      41.433 -13.140   4.329  1.00  0.00     0.057 A 
HETATM    4  C   UNL     1      40.819 -13.510   5.538  1.00  0.00     0.036 A 
HETATM    5  N   UNL     1      40.380 -12.563   6.480  1.00  0.00    -0.277 NA
HETATM    6  C   UNL     1      41.077 -11.255   6.405  1.00  0.00     0.162 C 
HETATM    7  C   UNL     1      41.353 -10.792   4.960  1.00  0.00     0.240 C 
HETATM    8  O   UNL     1      41.438  -9.609   4.633  1.00  0.00    -0.271 OA
HETATM    9  N   UNL     1      41.633 -11.781   4.049  1.00  0.00    -0.324 N 
HETATM   10  C   UNL     1      40.513 -14.853   5.753  1.00  0.00     0.027 A 
HETATM   11  C   UNL     1      40.882 -15.819   4.815  1.00  0.00     0.019 A 
HETATM   12  H   UNL     1      39.368 -12.450   6.404  1.00  0.00     0.128 HD
HETATM   13  H   UNL     1      41.925 -11.478   3.131  1.00  0.00     0.169 HD
ENDROOT
BRANCH   1  14
HETATM   14  C   UNL     1      41.927 -16.543   2.695  1.00  0.00     0.252 C 
HETATM   15  N   UNL     1      43.272 -16.805   2.545  1.00  0.00    -0.353 N 
HETATM   16  H   UNL     1      43.955 -16.349   3.131  1.00  0.00     0.163 HD
HETATM   17  O   UNL     1      41.050 -17.186   2.128  1.00  0.00    -0.268 OA
BRANCH  15  18
HETATM   18  C   UNL     1      43.725 -17.954   1.787  1.00  0.00     0.161 C 
BRANCH  18  19
HETATM   19  C   UNL     1      44.013 -19.143   2.666  1.00  0.00    -0.041 A 
HETATM   20  C   UNL     1      44.078 -20.431   2.119  1.00  0.00     0.009 A 
HETATM   21  C   UNL     1      44.434 -21.526   2.911  1.00  0.00     0.007 A 
HETATM   22  C   UNL     1      44.734 -21.352   4.266  1.00  0.00    -0.062 A 
HETATM   23  C   UNL     1      45.161 -22.512   5.117  1.00  0.00     0.048 C 
HETATM   24  C   UNL     1      44.671 -20.067   4.816  1.00  0.00     0.007 A 
HETATM   25  C   UNL     1      44.320 -18.973   4.023  1.00  0.00     0.009 A 
ENDBRANCH  18  19
ENDBRANCH  15  18
ENDBRANCH   1  14
BRANCH   6  26
HETATM   26  C   UNL     1      40.304 -10.162   7.166  1.00  0.00     0.103 C 
BRANCH  26  27
HETATM   27  S   UNL     1      41.310  -9.112   8.292  1.00  0.00    -0.162 SA
BRANCH  27  28
HETATM   28  C   UNL     1      42.386 -10.387   9.019  1.00  0.00     0.114 C 
BRANCH  28  29
HETATM   29  C   UNL     1      41.982 -10.722  10.434  1.00  0.00    -0.027 A 
HETATM   30  C   UNL     1      42.910 -10.924  11.468  1.00  0.00     0.041 A 
HETATM   31 CL   UNL     1      44.615 -10.812  11.205  1.00  0.00    -0.084 Cl
HETATM   32  C   UNL     1      42.476 -11.235  12.761  1.00  0.00     0.024 A 
HETATM   33  C   UNL     1      41.114 -11.343  13.041  1.00  0.00     0.002 A 
HETATM   34  C   UNL     1      40.182 -11.134  12.030  1.00  0.00     0.001 A 
HETATM   35  C   UNL     1      40.611 -10.822  10.739  1.00  0.00     0.009 A 
ENDBRANCH  28  29
ENDBRANCH  27  28
ENDBRANCH  26  27
ENDBRANCH   6  26
TORSDOF 7
ENDMDL
MODEL 6
REMARK VINA RESULT:      -9.2      2.653      3.399
REMARK  7 active torsions:
REMARK  status: ('A' for Active; 'I' for Inactive)
REMARK    1  A    between atoms: C_5  and  C_6 
REMARK    2  A    between atoms: C_6  and  N_7 
REMARK       I    between atoms: N_7  and  C_8 
REMARK    3  A    between atoms: C_8  and  C_9 
REMARK    4  A    between atoms: C_14  and  C_15 
REMARK    5  A    between atoms: C_15  and  S_16 
REMARK    6  A    between atoms: S_16  and  C_17 
REMARK    7  A    between atoms: C_17  and  C_18 
ROOT
HETATM    1  C   UNL     1      44.400 -13.706   7.343  1.00  0.00     0.034 A 
HETATM    2  C   UNL     1      43.977 -13.152   6.129  1.00  0.00     0.048 A 
HETATM    3  C   UNL     1      43.509 -13.996   5.115  1.00  0.00     0.057 A 
HETATM    4  C   UNL     1      43.458 -15.390   5.295  1.00  0.00     0.036 A 
HETATM    5  N   UNL     1      43.060 -16.266   4.269  1.00  0.00    -0.277 NA
HETATM    6  C   UNL     1      42.195 -15.646   3.235  1.00  0.00     0.162 C 
HETATM    7  C   UNL     1      42.618 -14.212   2.862  1.00  0.00     0.240 C 
HETATM    8  O   UNL     1      42.412 -13.710   1.758  1.00  0.00    -0.271 OA
HETATM    9  N   UNL     1      43.139 -13.449   3.880  1.00  0.00    -0.324 N 
HETATM   10  C   UNL     1      43.945 -15.933   6.483  1.00  0.00     0.027 A 
HETATM   11  C   UNL     1      44.401 -15.099   7.505  1.00  0.00     0.019 A 
HETATM   12  H   UNL     1      43.886 -16.699   3.851  1.00  0.00     0.128 HD
HETATM   13  H   UNL     1      43.312 -12.476   3.669  1.00  0.00     0.169 HD
ENDROOT
BRANCH   1  14
HETATM   14  C   UNL     1      44.879 -12.883   8.489  1.00  0.00     0.252 C 
HETATM   15  N   UNL     1      43.976 -12.613   9.494  1.00  0.00    -0.353 N 
HETATM   16  H   UNL     1      43.066 -13.049   9.503  1.00  0.00     0.163 HD
HETATM   17  O   UNL     1      46.047 -12.513   8.518  1.00  0.00    -0.268 OA
BRANCH  15  18
HETATM   18  C   UNL     1      44.401 -11.968  10.721  1.00  0.00     0.161 C 
BRANCH  18  19
HETATM   19  C   UNL     1      43.309 -11.133  11.337  1.00  0.00    -0.041 A 
HETATM   20  C   UNL     1      43.561 -10.367  12.483  1.00  0.00     0.009 A 
HETATM   21  C   UNL     1      42.580  -9.519  13.005  1.00  0.00     0.007 A 
HETATM   22  C   UNL     1      41.328  -9.421  12.390  1.00  0.00    -0.062 A 
HETATM   23  C   UNL     1      40.281  -8.483  12.915  1.00  0.00     0.048 C 
HETATM   24  C   UNL     1      41.072 -10.184  11.245  1.00  0.00     0.007 A 
HETATM   25  C   UNL     1      42.054 -11.026  10.721  1.00  0.00     0.009 A 
ENDBRANCH  18  19
ENDBRANCH  15  18
ENDBRANCH   1  14
BRANCH   6  26
HETATM   26  C   UNL     1      42.123 -16.517   1.967  1.00  0.00     0.103 C 
BRANCH  26  27
HETATM   27  S   UNL     1      43.670 -17.403   1.520  1.00  0.00    -0.162 SA
BRANCH  27  28
HETATM   28  C   UNL     1      43.076 -19.122   1.611  1.00  0.00     0.114 C 
BRANCH  28  29
HETATM   29  C   UNL     1      43.749 -19.890   2.721  1.00  0.00    -0.027 A 
HETATM   30  C   UNL     1      44.170 -21.223   2.585  1.00  0.00     0.041 A 
HETATM   31 CL   UNL     1      43.944 -22.110   1.119  1.00  0.00    -0.084 Cl
HETATM   32  C   UNL     1      44.788 -21.885   3.652  1.00  0.00     0.024 A 
HETATM   33  C   UNL     1      44.998 -21.228   4.863  1.00  0.00     0.002 A 
HETATM   34  C   UNL     1      44.598 -19.904   5.010  1.00  0.00     0.001 A 
HETATM   35  C   UNL     1      43.983 -19.239   3.947  1.00  0.00     0.009 A 
ENDBRANCH  28  29
ENDBRANCH  27  28
ENDBRANCH  26  27
ENDBRANCH   6  26
TORSDOF 7
ENDMDL
MODEL 7
REMARK VINA RESULT:      -9.1      4.596      8.370
REMARK  7 active torsions:
REMARK  status: ('A' for Active; 'I' for Inactive)
REMARK    1  A    between atoms: C_5  and  C_6 
REMARK    2  A    between atoms: C_6  and  N_7 
REMARK       I    between atoms: N_7  and  C_8 
REMARK    3  A    between atoms: C_8  and  C_9 
REMARK    4  A    between atoms: C_14  and  C_15 
REMARK    5  A    between atoms: C_15  and  S_16 
REMARK    6  A    between atoms: S_16  and  C_17 
REMARK    7  A    between atoms: C_17  and  C_18 
ROOT
HETATM    1  C   UNL     1      41.510 -13.696   2.458  1.00  0.00     0.034 A 
HETATM    2  C   UNL     1      40.777 -14.531   3.309  1.00  0.00     0.048 A 
HETATM    3  C   UNL     1      41.417 -15.138   4.395  1.00  0.00     0.057 A 
HETATM    4  C   UNL     1      42.784 -14.925   4.645  1.00  0.00     0.036 A 
HETATM    5  N   UNL     1      43.468 -15.578   5.686  1.00  0.00    -0.277 NA
HETATM    6  C   UNL     1      42.601 -16.032   6.800  1.00  0.00     0.162 C 
HETATM    7  C   UNL     1      41.249 -16.604   6.329  1.00  0.00     0.240 C 
HETATM    8  O   UNL     1      40.619 -17.455   6.955  1.00  0.00    -0.271 OA
HETATM    9  N   UNL     1      40.699 -16.019   5.214  1.00  0.00    -0.324 N 
HETATM   10  C   UNL     1      43.517 -14.146   3.752  1.00  0.00     0.027 A 
HETATM   11  C   UNL     1      42.885 -13.525   2.674  1.00  0.00     0.019 A 
HETATM   12  H   UNL     1      44.016 -16.351   5.302  1.00  0.00     0.128 HD
HETATM   13  H   UNL     1      39.763 -16.311   4.968  1.00  0.00     0.169 HD
ENDROOT
BRANCH   1  14
HETATM   14  C   UNL     1      40.904 -12.981   1.300  1.00  0.00     0.252 C 
HETATM   15  N   UNL     1      41.699 -12.784   0.192  1.00  0.00    -0.353 N 
HETATM   16  H   UNL     1      42.613 -13.205   0.131  1.00  0.00     0.163 HD
HETATM   17  O   UNL     1      39.729 -12.633   1.355  1.00  0.00    -0.268 OA
BRANCH  15  18
HETATM   18  C   UNL     1      41.143 -12.252  -1.037  1.00  0.00     0.161 C 
BRANCH  18  19
HETATM   19  C   UNL     1      40.506 -13.320  -1.887  1.00  0.00    -0.041 A 
HETATM   20  C   UNL     1      39.265 -13.095  -2.498  1.00  0.00     0.009 A 
HETATM   21  C   UNL     1      38.712 -14.044  -3.362  1.00  0.00     0.007 A 
HETATM   22  C   UNL     1      39.391 -15.237  -3.631  1.00  0.00    -0.062 A 
HETATM   23  C   UNL     1      38.830 -16.245  -4.590  1.00  0.00     0.048 C 
HETATM   24  C   UNL     1      40.631 -15.466  -3.024  1.00  0.00     0.007 A 
HETATM   25  C   UNL     1      41.185 -14.514  -2.165  1.00  0.00     0.009 A 
ENDBRANCH  18  19
ENDBRANCH  15  18
ENDBRANCH   1  14
BRANCH   6  26
HETATM   26  C   UNL     1      43.322 -17.061   7.691  1.00  0.00     0.103 C 
BRANCH  26  27
HETATM   27  S   UNL     1      44.750 -17.923   6.918  1.00  0.00    -0.162 SA
BRANCH  27  28
HETATM   28  C   UNL     1      43.928 -19.457   6.382  1.00  0.00     0.114 C 
BRANCH  28  29
HETATM   29  C   UNL     1      43.967 -19.619   4.882  1.00  0.00    -0.027 A 
HETATM   30  C   UNL     1      44.520 -20.742   4.248  1.00  0.00     0.041 A 
HETATM   31 CL   UNL     1      45.219 -22.048   5.139  1.00  0.00    -0.084 Cl
HETATM   32  C   UNL     1      44.529 -20.837   2.852  1.00  0.00     0.024 A 
HETATM   33  C   UNL     1      43.984 -19.818   2.073  1.00  0.00     0.002 A 
HETATM   34  C   UNL     1      43.421 -18.703   2.686  1.00  0.00     0.001 A 
HETATM   35  C   UNL     1      43.408 -18.607   4.079  1.00  0.00     0.009 A 
ENDBRANCH  28  29
ENDBRANCH  27  28
ENDBRANCH  26  27
ENDBRANCH   6  26
TORSDOF 7
ENDMDL
MODEL 8
REMARK VINA RESULT:      -8.8      1.601      2.129
REMARK  7 active torsions:
REMARK  status: ('A' for Active; 'I' for Inactive)
REMARK    1  A    between atoms: C_5  and  C_6 
REMARK    2  A    between atoms: C_6  and  N_7 
REMARK       I    between atoms: N_7  and  C_8 
REMARK    3  A    between atoms: C_8  and  C_9 
REMARK    4  A    between atoms: C_14  and  C_15 
REMARK    5  A    between atoms: C_15  and  S_16 
REMARK    6  A    between atoms: S_16  and  C_17 
REMARK    7  A    between atoms: C_17  and  C_18 
ROOT
HETATM    1  C   UNL     1      40.928 -12.906   5.933  1.00  0.00     0.034 A 
HETATM    2  C   UNL     1      40.185 -13.762   5.111  1.00  0.00     0.048 A 
HETATM    3  C   UNL     1      40.848 -14.730   4.349  1.00  0.00     0.057 A 
HETATM    4  C   UNL     1      42.248 -14.856   4.392  1.00  0.00     0.036 A 
HETATM    5  N   UNL     1      42.945 -15.772   3.583  1.00  0.00    -0.277 NA
HETATM    6  C   UNL     1      42.137 -16.930   3.131  1.00  0.00     0.162 C 
HETATM    7  C   UNL     1      40.690 -16.557   2.750  1.00  0.00     0.240 C 
HETATM    8  O   UNL     1      40.026 -17.177   1.922  1.00  0.00    -0.271 OA
HETATM    9  N   UNL     1      40.111 -15.549   3.484  1.00  0.00    -0.324 N 
HETATM   10  C   UNL     1      42.981 -13.955   5.161  1.00  0.00     0.027 A 
HETATM   11  C   UNL     1      42.328 -12.994   5.935  1.00  0.00     0.019 A 
HETATM   12  H   UNL     1      43.362 -15.278   2.791  1.00  0.00     0.128 HD
HETATM   13  H   UNL     1      39.130 -15.378   3.316  1.00  0.00     0.169 HD
ENDROOT
BRANCH   1  14
HETATM   14  C   UNL     1      40.305 -11.872   6.805  1.00  0.00     0.252 C 
HETATM   15  N   UNL     1      41.117 -11.250   7.728  1.00  0.00    -0.353 N 
HETATM   16  H   UNL     1      42.112 -11.413   7.734  1.00  0.00     0.163 HD
HETATM   17  O   UNL     1      39.123 -11.585   6.648  1.00  0.00    -0.268 OA
BRANCH  15  18
HETATM   18  C   UNL     1      40.638 -10.119   8.497  1.00  0.00     0.161 C 
BRANCH  18  19
HETATM   19  C   UNL     1      41.436  -9.901   9.755  1.00  0.00    -0.041 A 
HETATM   20  C   UNL     1      41.348  -8.688  10.451  1.00  0.00     0.009 A 
HETATM   21  C   UNL     1      42.014  -8.513  11.667  1.00  0.00     0.007 A 
HETATM   22  C   UNL     1      42.781  -9.549  12.211  1.00  0.00    -0.062 A 
HETATM   23  C   UNL     1      43.466  -9.390  13.536  1.00  0.00     0.048 C 
HETATM   24  C   UNL     1      42.872 -10.762  11.519  1.00  0.00     0.007 A 
HETATM   25  C   UNL     1      42.201 -10.938  10.307  1.00  0.00     0.009 A 
ENDBRANCH  18  19
ENDBRANCH  15  18
ENDBRANCH   1  14
BRANCH   6  26
HETATM   26  C   UNL     1      42.813 -17.665   1.959  1.00  0.00     0.103 C 
BRANCH  26  27
HETATM   27  S   UNL     1      43.191 -19.442   2.243  1.00  0.00    -0.162 SA
BRANCH  27  28
HETATM   28  C   UNL     1      44.631 -19.277   3.344  1.00  0.00     0.114 C 
BRANCH  28  29
HETATM   29  C   UNL     1      44.310 -19.705   4.755  1.00  0.00    -0.027 A 
HETATM   30  C   UNL     1      44.327 -21.046   5.171  1.00  0.00     0.041 A 
HETATM   31 CL   UNL     1      44.716 -22.336   4.089  1.00  0.00    -0.084 Cl
HETATM   32  C   UNL     1      44.018 -21.383   6.493  1.00  0.00     0.024 A 
HETATM   33  C   UNL     1      43.694 -20.391   7.417  1.00  0.00     0.002 A 
HETATM   34  C   UNL     1      43.683 -19.056   7.023  1.00  0.00     0.001 A 
HETATM   35  C   UNL     1      43.993 -18.716   5.705  1.00  0.00     0.009 A 
ENDBRANCH  28  29
ENDBRANCH  27  28
ENDBRANCH  26  27
ENDBRANCH   6  26
TORSDOF 7
ENDMDL
MODEL 9
REMARK VINA RESULT:      -8.7      6.361      9.701
REMARK  7 active torsions:
REMARK  status: ('A' for Active; 'I' for Inactive)
REMARK    1  A    between atoms: C_5  and  C_6 
REMARK    2  A    between atoms: C_6  and  N_7 
REMARK       I    between atoms: N_7  and  C_8 
REMARK    3  A    between atoms: C_8  and  C_9 
REMARK    4  A    between atoms: C_14  and  C_15 
REMARK    5  A    between atoms: C_15  and  S_16 
REMARK    6  A    between atoms: S_16  and  C_17 
REMARK    7  A    between atoms: C_17  and  C_18 
ROOT
HETATM    1  C   UNL     1      41.070 -15.940   2.559  1.00  0.00     0.034 A 
HETATM    2  C   UNL     1      41.578 -16.188   1.278  1.00  0.00     0.048 A 
HETATM    3  C   UNL     1      41.068 -15.476   0.187  1.00  0.00     0.057 A 
HETATM    4  C   UNL     1      40.052 -14.518   0.354  1.00  0.00     0.036 A 
HETATM    5  N   UNL     1      39.472 -13.839  -0.733  1.00  0.00    -0.277 NA
HETATM    6  C   UNL     1      40.332 -13.766  -1.939  1.00  0.00     0.162 C 
HETATM    7  C   UNL     1      41.119 -15.063  -2.210  1.00  0.00     0.240 C 
HETATM    8  O   UNL     1      41.470 -15.421  -3.333  1.00  0.00    -0.271 OA
HETATM    9  N   UNL     1      41.535 -15.762  -1.102  1.00  0.00    -0.324 N 
HETATM   10  C   UNL     1      39.509 -14.329   1.624  1.00  0.00     0.027 A 
HETATM   11  C   UNL     1      40.020 -15.024   2.720  1.00  0.00     0.019 A 
HETATM   12  H   UNL     1      38.564 -14.255  -0.948  1.00  0.00     0.128 HD
HETATM   13  H   UNL     1      42.146 -16.549  -1.270  1.00  0.00     0.169 HD
ENDROOT
BRANCH   1  14
HETATM   14  C   UNL     1      41.577 -16.624   3.781  1.00  0.00     0.252 C 
HETATM   15  N   UNL     1      42.941 -16.634   3.980  1.00  0.00    -0.353 N 
HETATM   16  H   UNL     1      43.554 -16.105   3.379  1.00  0.00     0.163 HD
HETATM   17  O   UNL     1      40.779 -17.111   4.574  1.00  0.00    -0.268 OA
BRANCH  15  18
HETATM   18  C   UNL     1      43.507 -17.125   5.220  1.00  0.00     0.161 C 
BRANCH  18  19
HETATM   19  C   UNL     1      43.960 -18.558   5.116  1.00  0.00    -0.041 A 
HETATM   20  C   UNL     1      43.861 -19.416   6.220  1.00  0.00     0.009 A 
HETATM   21  C   UNL     1      44.193 -20.769   6.103  1.00  0.00     0.007 A 
HETATM   22  C   UNL     1      44.629 -21.289   4.880  1.00  0.00    -0.062 A 
HETATM   23  C   UNL     1      44.947 -22.748   4.731  1.00  0.00     0.048 C 
HETATM   24  C   UNL     1      44.729 -20.436   3.776  1.00  0.00     0.007 A 
HETATM   25  C   UNL     1      44.392 -19.086   3.891  1.00  0.00     0.009 A 
ENDBRANCH  18  19
ENDBRANCH  15  18
ENDBRANCH   1  14
BRANCH   6  26
HETATM   26  C   UNL     1      39.517 -13.378  -3.187  1.00  0.00     0.103 C 
BRANCH  26  27
HETATM   27  S   UNL     1      39.893 -11.727  -3.904  1.00  0.00    -0.162 SA
BRANCH  27  28
HETATM   28  C   UNL     1      41.711 -11.816  -3.939  1.00  0.00     0.114 C 
BRANCH  28  29
HETATM   29  C   UNL     1      42.342 -10.719  -3.116  1.00  0.00    -0.027 A 
HETATM   30  C   UNL     1      42.390  -9.379  -3.534  1.00  0.00     0.041 A 
HETATM   31 CL   UNL     1      41.730  -8.867  -5.047  1.00  0.00    -0.084 Cl
HETATM   32  C   UNL     1      42.990  -8.405  -2.729  1.00  0.00     0.024 A 
HETATM   33  C   UNL     1      43.544  -8.752  -1.497  1.00  0.00     0.002 A 
HETATM   34  C   UNL     1      43.494 -10.072  -1.063  1.00  0.00     0.001 A 
HETATM   35  C   UNL     1      42.894 -11.047  -1.863  1.00  0.00     0.009 A 
ENDBRANCH  28  29
ENDBRANCH  27  28
ENDBRANCH  26  27
ENDBRANCH   6  26
TORSDOF 7
ENDMDL
MODEL 10
REMARK VINA RESULT:      -8.6      5.328      8.956
REMARK  7 active torsions:
REMARK  status: ('A' for Active; 'I' for Inactive)
REMARK    1  A    between atoms: C_5  and  C_6 
REMARK    2  A    between atoms: C_6  and  N_7 
REMARK       I    between atoms: N_7  and  C_8 
REMARK    3  A    between atoms: C_8  and  C_9 
REMARK    4  A    between atoms: C_14  and  C_15 
REMARK    5  A    between atoms: C_15  and  S_16 
REMARK    6  A    between atoms: S_16  and  C_17 
REMARK    7  A    between atoms: C_17  and  C_18 
ROOT
HETATM    1  C   UNL     1      42.016 -14.611   4.113  1.00  0.00     0.034 A 
HETATM    2  C   UNL     1      40.913 -15.103   3.404  1.00  0.00     0.048 A 
HETATM    3  C   UNL     1      40.140 -14.222   2.640  1.00  0.00     0.057 A 
HETATM    4  C   UNL     1      40.451 -12.852   2.573  1.00  0.00     0.036 A 
HETATM    5  N   UNL     1      39.650 -11.933   1.871  1.00  0.00    -0.277 NA
HETATM    6  C   UNL     1      38.833 -12.534   0.789  1.00  0.00     0.162 C 
HETATM    7  C   UNL     1      38.233 -13.905   1.163  1.00  0.00     0.240 C 
HETATM    8  O   UNL     1      37.184 -14.337   0.690  1.00  0.00    -0.271 OA
HETATM    9  N   UNL     1      39.004 -14.701   1.976  1.00  0.00    -0.324 N 
HETATM   10  C   UNL     1      41.510 -12.365   3.336  1.00  0.00     0.027 A 
HETATM   11  C   UNL     1      42.296 -13.237   4.091  1.00  0.00     0.019 A 
HETATM   12  H   UNL     1      39.069 -11.413   2.531  1.00  0.00     0.128 HD
HETATM   13  H   UNL     1      38.669 -15.642   2.132  1.00  0.00     0.169 HD
ENDROOT
BRANCH   1  14
HETATM   14  C   UNL     1      42.915 -15.481   4.923  1.00  0.00     0.252 C 
HETATM   15  N   UNL     1      42.616 -16.825   4.974  1.00  0.00    -0.353 N 
HETATM   16  H   UNL     1      41.886 -17.214   4.398  1.00  0.00     0.163 HD
HETATM   17  O   UNL     1      43.894 -14.988   5.473  1.00  0.00    -0.268 OA
BRANCH  15  18
HETATM   18  C   UNL     1      43.528 -17.766   5.595  1.00  0.00     0.161 C 
BRANCH  18  19
HETATM   19  C   UNL     1      43.926 -18.879   4.661  1.00  0.00    -0.041 A 
HETATM   20  C   UNL     1      44.491 -20.059   5.163  1.00  0.00     0.009 A 
HETATM   21  C   UNL     1      44.776 -21.131   4.314  1.00  0.00     0.007 A 
HETATM   22  C   UNL     1      44.502 -21.043   2.945  1.00  0.00    -0.062 A 
HETATM   23  C   UNL     1      44.763 -22.202   2.029  1.00  0.00     0.048 C 
HETATM   24  C   UNL     1      43.938 -19.867   2.439  1.00  0.00     0.007 A 
HETATM   25  C   UNL     1      43.647 -18.798   3.290  1.00  0.00     0.009 A 
ENDBRANCH  18  19
ENDBRANCH  15  18
ENDBRANCH   1  14
BRANCH   6  26
HETATM   26  C   UNL     1      37.712 -11.580   0.335  1.00  0.00     0.103 C 
BRANCH  26  27
HETATM   27  S   UNL     1      37.588 -11.301  -1.478  1.00  0.00    -0.162 SA
BRANCH  27  28
HETATM   28  C   UNL     1      39.169 -12.029  -2.009  1.00  0.00     0.114 C 
BRANCH  28  29
HETATM   29  C   UNL     1      38.973 -13.362  -2.690  1.00  0.00    -0.027 A 
HETATM   30  C   UNL     1      40.035 -14.130  -3.192  1.00  0.00     0.041 A 
HETATM   31 CL   UNL     1      41.678 -13.606  -3.078  1.00  0.00    -0.084 Cl
HETATM   32  C   UNL     1      39.791 -15.358  -3.817  1.00  0.00     0.024 A 
HETATM   33  C   UNL     1      38.489 -15.837  -3.944  1.00  0.00     0.002 A 
HETATM   34  C   UNL     1      37.425 -15.094  -3.441  1.00  0.00     0.001 A 
HETATM   35  C   UNL     1      37.665 -13.869  -2.816  1.00  0.00     0.009 A 
ENDBRANCH  28  29
ENDBRANCH  27  28
ENDBRANCH  26  27
ENDBRANCH   6  26
TORSDOF 7
ENDMDL
