MODEL 1
REMARK VINA RESULT:      -9.8      0.000      0.000
REMARK  7 active torsions:
REMARK  status: ('A' for Active; 'I' for Inactive)
REMARK    1  A    between atoms: C_6  and  N_7 
REMARK       I    between atoms: N_7  and  C_8 
REMARK    2  A    between atoms: C_8  and  C_9 
REMARK    3  A    between atoms: C_9  and  N_10 
REMARK    4  A    between atoms: N_13  and  C_14 
REMARK    5  A    between atoms: C_14  and  C_15 
REMARK    6  A    between atoms: C_30  and  C_31 
REMARK       I    between atoms: C_31  and  N_32 
REMARK    7  A    between atoms: N_32  and  C_33 
ROOT
HETATM    1  N   UNL     1      41.028 -12.994   4.624  1.00  0.00    -0.290 N 
HETATM    2  C   UNL     1      40.075 -13.591   3.814  1.00  0.00     0.332 C 
HETATM    3  O   UNL     1      39.096 -12.947   3.425  1.00  0.00    -0.246 OA
HETATM    4  N   UNL     1      40.281 -14.916   3.469  1.00  0.00    -0.261 N 
HETATM    5  C   UNL     1      41.267 -15.724   4.013  1.00  0.00     0.264 C 
HETATM    6  O   UNL     1      41.450 -16.898   3.695  1.00  0.00    -0.267 OA
HETATM    7  C   UNL     1      42.147 -15.111   5.023  1.00  0.00     0.059 A 
HETATM    8  C   UNL     1      42.023 -13.749   5.297  1.00  0.00     0.056 A 
HETATM    9  C   UNL     1      43.122 -15.895   5.658  1.00  0.00     0.020 A 
HETATM   10  C   UNL     1      43.994 -15.318   6.581  1.00  0.00     0.018 A 
HETATM   11  C   UNL     1      43.887 -13.954   6.864  1.00  0.00     0.034 A 
HETATM   12  C   UNL     1      42.891 -13.181   6.240  1.00  0.00     0.048 A 
ENDROOT
BRANCH   1  13
HETATM   13  C   UNL     1      41.048 -11.529   4.657  1.00  0.00     0.237 C 
BRANCH  13  14
HETATM   14  C   UNL     1      40.293 -10.889   5.823  1.00  0.00     0.240 C 
HETATM   15  N   UNL     1      41.128 -10.406   6.814  1.00  0.00    -0.325 N 
HETATM   16  H   UNL     1      42.117 -10.353   6.574  1.00  0.00     0.169 HD
HETATM   17  O   UNL     1      39.065 -10.900   5.841  1.00  0.00    -0.271 OA
BRANCH  15  18
HETATM   18  C   UNL     1      40.782 -10.058   8.140  1.00  0.00     0.040 A 
HETATM   19  C   UNL     1      40.810  -8.701   8.521  1.00  0.00    -0.035 A 
HETATM   20  C   UNL     1      40.587  -8.356   9.868  1.00  0.00     0.015 A 
HETATM   21  C   UNL     1      41.082  -7.594   7.537  1.00  0.00     0.050 C 
HETATM   22  C   UNL     1      40.321  -9.332  10.833  1.00  0.00    -0.061 A 
HETATM   23  C   UNL     1      40.128  -8.968  12.276  1.00  0.00     0.048 C 
HETATM   24  C   UNL     1      40.263 -10.669  10.439  1.00  0.00     0.009 A 
HETATM   25  C   UNL     1      40.487 -11.026   9.106  1.00  0.00     0.030 A 
ENDBRANCH  15  18
ENDBRANCH  13  14
ENDBRANCH   1  13
BRANCH   4  26
HETATM   26  C   UNL     1      39.453 -15.466   2.402  1.00  0.00     0.175 C 
BRANCH  26  27
HETATM   27  C   UNL     1      40.049 -15.151   1.041  1.00  0.00    -0.037 A 
HETATM   28  C   UNL     1      39.580 -14.055   0.296  1.00  0.00     0.048 A 
HETATM   29  C   UNL     1      40.075 -13.877  -0.979  1.00  0.00     0.105 A 
HETATM   30  C   UNL     1      41.011 -14.728  -1.520  1.00  0.00     0.105 A 
HETATM   31  O   UNL     1      39.704 -12.897  -1.846  1.00  0.00    -0.323 OA
HETATM   32  O   UNL     1      41.347 -14.389  -2.793  1.00  0.00    -0.323 OA
HETATM   33  C   UNL     1      41.510 -15.800  -0.816  1.00  0.00     0.040 A 
HETATM   34  C   UNL     1      40.499 -13.240  -3.000  1.00  0.00     0.352 A 
HETATM   35  C   UNL     1      41.020 -16.012   0.476  1.00  0.00     0.012 A 
ENDBRANCH  26  27
ENDBRANCH   4  26
BRANCH  11  36
HETATM   36  C   UNL     1      44.791 -13.276   7.832  1.00  0.00     0.252 C 
HETATM   37  N   UNL     1      44.193 -12.775   8.964  1.00  0.00    -0.352 N 
HETATM   38  H   UNL     1      43.224 -13.019   9.120  1.00  0.00     0.163 HD
HETATM   39  O   UNL     1      45.988 -13.245   7.592  1.00  0.00    -0.268 OA
BRANCH  37  40
HETATM   40  C   UNL     1      44.882 -12.215  10.129  1.00  0.00     0.084 C 
HETATM   41  C   UNL     1      45.091 -10.698  10.027  1.00  0.00     0.025 C 
HETATM   42  C   UNL     1      43.973  -9.863  10.643  1.00  0.00     0.002 C 
HETATM   43  C   UNL     1      43.670 -10.303  12.069  1.00  0.00     0.000 C 
HETATM   44  C   UNL     1      43.303 -11.779  12.145  1.00  0.00     0.002 C 
HETATM   45  C   UNL     1      44.346 -12.683  11.489  1.00  0.00     0.025 C 
ENDBRANCH  37  40
ENDBRANCH  11  36
TORSDOF 7
ENDMDL
MODEL 2
REMARK VINA RESULT:      -9.5      3.067      7.963
REMARK  7 active torsions:
REMARK  status: ('A' for Active; 'I' for Inactive)
REMARK    1  A    between atoms: C_6  and  N_7 
REMARK       I    between atoms: N_7  and  C_8 
REMARK    2  A    between atoms: C_8  and  C_9 
REMARK    3  A    between atoms: C_9  and  N_10 
REMARK    4  A    between atoms: N_13  and  C_14 
REMARK    5  A    between atoms: C_14  and  C_15 
REMARK    6  A    between atoms: C_30  and  C_31 
REMARK       I    between atoms: C_31  and  N_32 
REMARK    7  A    between atoms: N_32  and  C_33 
ROOT
HETATM    1  N   UNL     1      40.480 -15.956   2.605  1.00  0.00    -0.290 N 
HETATM    2  C   UNL     1      41.261 -16.933   2.008  1.00  0.00     0.332 C 
HETATM    3  O   UNL     1      40.771 -17.700   1.173  1.00  0.00    -0.246 OA
HETATM    4  N   UNL     1      42.592 -16.994   2.386  1.00  0.00    -0.261 N 
HETATM    5  C   UNL     1      43.145 -16.273   3.432  1.00  0.00     0.264 C 
HETATM    6  O   UNL     1      44.330 -16.326   3.756  1.00  0.00    -0.267 OA
HETATM    7  C   UNL     1      42.238 -15.384   4.178  1.00  0.00     0.059 A 
HETATM    8  C   UNL     1      40.923 -15.227   3.738  1.00  0.00     0.056 A 
HETATM    9  C   UNL     1      42.722 -14.676   5.289  1.00  0.00     0.020 A 
HETATM   10  C   UNL     1      41.889 -13.794   5.976  1.00  0.00     0.018 A 
HETATM   11  C   UNL     1      40.571 -13.622   5.546  1.00  0.00     0.034 A 
HETATM   12  C   UNL     1      40.088 -14.352   4.446  1.00  0.00     0.048 A 
ENDROOT
BRANCH   1  13
HETATM   13  C   UNL     1      39.221 -15.614   1.938  1.00  0.00     0.237 C 
BRANCH  13  14
HETATM   14  C   UNL     1      39.301 -14.463   0.935  1.00  0.00     0.240 C 
HETATM   15  N   UNL     1      39.987 -14.793  -0.220  1.00  0.00    -0.325 N 
HETATM   16  H   UNL     1      40.180 -15.785  -0.353  1.00  0.00     0.169 HD
HETATM   17  O   UNL     1      38.840 -13.362   1.222  1.00  0.00    -0.271 OA
BRANCH  15  18
HETATM   18  C   UNL     1      40.520 -13.912  -1.189  1.00  0.00     0.040 A 
HETATM   19  C   UNL     1      39.812 -13.708  -2.392  1.00  0.00    -0.035 A 
HETATM   20  C   UNL     1      40.392 -12.931  -3.413  1.00  0.00     0.015 A 
HETATM   21  C   UNL     1      38.451 -14.304  -2.635  1.00  0.00     0.050 C 
HETATM   22  C   UNL     1      41.650 -12.341  -3.250  1.00  0.00    -0.061 A 
HETATM   23  C   UNL     1      42.286 -11.551  -4.355  1.00  0.00     0.048 C 
HETATM   24  C   UNL     1      42.326 -12.522  -2.044  1.00  0.00     0.009 A 
HETATM   25  C   UNL     1      41.764 -13.296  -1.024  1.00  0.00     0.030 A 
ENDBRANCH  15  18
ENDBRANCH  13  14
ENDBRANCH   1  13
BRANCH   4  26
HETATM   26  C   UNL     1      43.481 -17.814   1.571  1.00  0.00     0.175 C 
BRANCH  26  27
HETATM   27  C   UNL     1      43.689 -19.179   2.206  1.00  0.00    -0.037 A 
HETATM   28  C   UNL     1      44.192 -19.284   3.514  1.00  0.00     0.048 A 
HETATM   29  C   UNL     1      44.466 -20.544   4.005  1.00  0.00     0.105 A 
HETATM   30  C   UNL     1      44.250 -21.677   3.257  1.00  0.00     0.105 A 
HETATM   31  O   UNL     1      44.989 -20.822   5.229  1.00  0.00    -0.323 OA
HETATM   32  O   UNL     1      44.608 -22.811   3.917  1.00  0.00    -0.323 OA
HETATM   33  C   UNL     1      43.740 -21.618   1.980  1.00  0.00     0.040 A 
HETATM   34  C   UNL     1      45.095 -22.260   5.158  1.00  0.00     0.352 A 
HETATM   35  C   UNL     1      43.461 -20.354   1.451  1.00  0.00     0.012 A 
ENDBRANCH  26  27
ENDBRANCH   4  26
BRANCH  11  36
HETATM   36  C   UNL     1      39.633 -12.690   6.230  1.00  0.00     0.252 C 
HETATM   37  N   UNL     1      40.099 -12.110   7.386  1.00  0.00    -0.352 N 
HETATM   38  H   UNL     1      41.075 -12.248   7.611  1.00  0.00     0.163 HD
HETATM   39  O   UNL     1      38.550 -12.466   5.713  1.00  0.00    -0.268 OA
BRANCH  37  40
HETATM   40  C   UNL     1      39.437 -11.046   8.146  1.00  0.00     0.084 C 
HETATM   41  C   UNL     1      39.749 -11.101   9.647  1.00  0.00     0.025 C 
HETATM   42  C   UNL     1      40.951 -10.267  10.074  1.00  0.00     0.002 C 
HETATM   43  C   UNL     1      40.846  -8.836   9.565  1.00  0.00     0.000 C 
HETATM   44  C   UNL     1      40.699  -8.778   8.051  1.00  0.00     0.002 C 
HETATM   45  C   UNL     1      39.550  -9.642   7.533  1.00  0.00     0.025 C 
ENDBRANCH  37  40
ENDBRANCH  11  36
TORSDOF 7
ENDMDL
MODEL 3
REMARK VINA RESULT:      -9.2      2.532      6.506
REMARK  7 active torsions:
REMARK  status: ('A' for Active; 'I' for Inactive)
REMARK    1  A    between atoms: C_6  and  N_7 
REMARK       I    between atoms: N_7  and  C_8 
REMARK    2  A    between atoms: C_8  and  C_9 
REMARK    3  A    between atoms: C_9  and  N_10 
REMARK    4  A    between atoms: N_13  and  C_14 
REMARK    5  A    between atoms: C_14  and  C_15 
REMARK    6  A    between atoms: C_30  and  C_31 
REMARK       I    between atoms: C_31  and  N_32 
REMARK    7  A    between atoms: N_32  and  C_33 
ROOT
HETATM    1  N   UNL     1      41.922 -13.897   4.016  1.00  0.00    -0.290 N 
HETATM    2  C   UNL     1      41.469 -14.494   2.850  1.00  0.00     0.332 C 
HETATM    3  O   UNL     1      42.146 -15.361   2.289  1.00  0.00    -0.246 OA
HETATM    4  N   UNL     1      40.240 -14.079   2.366  1.00  0.00    -0.261 N 
HETATM    5  C   UNL     1      39.524 -13.001   2.861  1.00  0.00     0.264 C 
HETATM    6  O   UNL     1      38.429 -12.644   2.431  1.00  0.00    -0.267 OA
HETATM    7  C   UNL     1      40.130 -12.260   3.981  1.00  0.00     0.059 A 
HETATM    8  C   UNL     1      41.312 -12.734   4.551  1.00  0.00     0.056 A 
HETATM    9  C   UNL     1      39.487 -11.118   4.484  1.00  0.00     0.020 A 
HETATM   10  C   UNL     1      40.022 -10.435   5.575  1.00  0.00     0.018 A 
HETATM   11  C   UNL     1      41.203 -10.899   6.161  1.00  0.00     0.034 A 
HETATM   12  C   UNL     1      41.853 -12.030   5.636  1.00  0.00     0.048 A 
ENDROOT
BRANCH   1  13
HETATM   13  C   UNL     1      42.984 -14.592   4.748  1.00  0.00     0.237 C 
BRANCH  13  14
HETATM   14  C   UNL     1      42.862 -16.115   4.793  1.00  0.00     0.240 C 
HETATM   15  N   UNL     1      43.876 -16.764   4.112  1.00  0.00    -0.325 N 
HETATM   16  H   UNL     1      44.669 -16.184   3.838  1.00  0.00     0.169 HD
HETATM   17  O   UNL     1      41.896 -16.640   5.340  1.00  0.00    -0.271 OA
BRANCH  15  18
HETATM   18  C   UNL     1      43.903 -18.110   3.683  1.00  0.00     0.040 A 
HETATM   19  C   UNL     1      44.487 -19.084   4.519  1.00  0.00    -0.035 A 
HETATM   20  C   UNL     1      44.630 -20.404   4.050  1.00  0.00     0.015 A 
HETATM   21  C   UNL     1      44.980 -18.763   5.905  1.00  0.00     0.050 C 
HETATM   22  C   UNL     1      44.186 -20.773   2.776  1.00  0.00    -0.061 A 
HETATM   23  C   UNL     1      44.379 -22.169   2.259  1.00  0.00     0.048 C 
HETATM   24  C   UNL     1      43.581 -19.810   1.970  1.00  0.00     0.009 A 
HETATM   25  C   UNL     1      43.438 -18.495   2.421  1.00  0.00     0.030 A 
ENDBRANCH  15  18
ENDBRANCH  13  14
ENDBRANCH   1  13
BRANCH   4  26
HETATM   26  C   UNL     1      39.626 -14.888   1.318  1.00  0.00     0.175 C 
BRANCH  26  27
HETATM   27  C   UNL     1      39.837 -14.252  -0.046  1.00  0.00    -0.037 A 
HETATM   28  C   UNL     1      41.134 -14.103  -0.567  1.00  0.00     0.048 A 
HETATM   29  C   UNL     1      41.281 -13.421  -1.757  1.00  0.00     0.105 A 
HETATM   30  C   UNL     1      40.203 -12.904  -2.436  1.00  0.00     0.105 A 
HETATM   31  O   UNL     1      42.461 -13.156  -2.380  1.00  0.00    -0.323 OA
HETATM   32  O   UNL     1      40.567 -12.250  -3.570  1.00  0.00    -0.323 OA
HETATM   33  C   UNL     1      38.916 -13.045  -1.968  1.00  0.00     0.040 A 
HETATM   34  C   UNL     1      42.002 -12.396  -3.518  1.00  0.00     0.352 A 
HETATM   35  C   UNL     1      38.735 -13.724  -0.759  1.00  0.00     0.012 A 
ENDBRANCH  26  27
ENDBRANCH   4  26
BRANCH  11  36
HETATM   36  C   UNL     1      41.822 -10.220   7.332  1.00  0.00     0.252 C 
HETATM   37  N   UNL     1      42.484 -11.036   8.218  1.00  0.00    -0.352 N 
HETATM   38  H   UNL     1      42.619 -12.000   7.946  1.00  0.00     0.163 HD
HETATM   39  O   UNL     1      41.746  -9.004   7.410  1.00  0.00    -0.268 OA
BRANCH  37  40
HETATM   40  C   UNL     1      43.305 -10.595   9.349  1.00  0.00     0.084 C 
HETATM   41  C   UNL     1      42.468 -10.157  10.559  1.00  0.00     0.025 C 
HETATM   42  C   UNL     1      42.182 -11.266  11.565  1.00  0.00     0.002 C 
HETATM   43  C   UNL     1      43.460 -11.982  11.983  1.00  0.00     0.000 C 
HETATM   44  C   UNL     1      44.207 -12.559  10.789  1.00  0.00     0.002 C 
HETATM   45  C   UNL     1      44.478 -11.521   9.701  1.00  0.00     0.025 C 
ENDBRANCH  37  40
ENDBRANCH  11  36
TORSDOF 7
ENDMDL
MODEL 4
REMARK VINA RESULT:      -9.0      2.384      6.241
REMARK  7 active torsions:
REMARK  status: ('A' for Active; 'I' for Inactive)
REMARK    1  A    between atoms: C_6  and  N_7 
REMARK       I    between atoms: N_7  and  C_8 
REMARK    2  A    between atoms: C_8  and  C_9 
REMARK    3  A    between atoms: C_9  and  N_10 
REMARK    4  A    between atoms: N_13  and  C_14 
REMARK    5  A    between atoms: C_14  and  C_15 
REMARK    6  A    between atoms: C_30  and  C_31 
REMARK       I    between atoms: C_31  and  N_32 
REMARK    7  A    between atoms: N_32  and  C_33 
ROOT
HETATM    1  N   UNL     1      40.904 -13.495   5.020  1.00  0.00    -0.290 N 
HETATM    2  C   UNL     1      40.251 -13.511   3.799  1.00  0.00     0.332 C 
HETATM    3  O   UNL     1      40.250 -14.533   3.105  1.00  0.00    -0.246 OA
HETATM    4  N   UNL     1      39.608 -12.347   3.411  1.00  0.00    -0.261 N 
HETATM    5  C   UNL     1      39.720 -11.132   4.069  1.00  0.00     0.264 C 
HETATM    6  O   UNL     1      39.139 -10.105   3.724  1.00  0.00    -0.267 OA
HETATM    7  C   UNL     1      40.585 -11.100   5.261  1.00  0.00     0.059 A 
HETATM    8  C   UNL     1      41.148 -12.288   5.726  1.00  0.00     0.056 A 
HETATM    9  C   UNL     1      40.792  -9.885   5.933  1.00  0.00     0.020 A 
HETATM   10  C   UNL     1      41.569  -9.847   7.090  1.00  0.00     0.018 A 
HETATM   11  C   UNL     1      42.136 -11.029   7.573  1.00  0.00     0.034 A 
HETATM   12  C   UNL     1      41.942 -12.238   6.880  1.00  0.00     0.048 A 
ENDROOT
BRANCH   1  13
HETATM   13  C   UNL     1      41.224 -14.792   5.620  1.00  0.00     0.237 C 
BRANCH  13  14
HETATM   14  C   UNL     1      42.347 -15.573   4.937  1.00  0.00     0.240 C 
HETATM   15  N   UNL     1      41.895 -16.666   4.220  1.00  0.00    -0.325 N 
HETATM   16  H   UNL     1      40.888 -16.711   4.068  1.00  0.00     0.169 HD
HETATM   17  O   UNL     1      43.518 -15.244   5.109  1.00  0.00    -0.271 OA
BRANCH  15  18
HETATM   18  C   UNL     1      42.653 -17.762   3.750  1.00  0.00     0.040 A 
HETATM   19  C   UNL     1      42.461 -18.208   2.425  1.00  0.00    -0.035 A 
HETATM   20  C   UNL     1      43.119 -19.374   1.986  1.00  0.00     0.015 A 
HETATM   21  C   UNL     1      41.564 -17.487   1.455  1.00  0.00     0.050 C 
HETATM   22  C   UNL     1      43.974 -20.088   2.832  1.00  0.00    -0.061 A 
HETATM   23  C   UNL     1      44.639 -21.353   2.378  1.00  0.00     0.048 C 
HETATM   24  C   UNL     1      44.181 -19.619   4.129  1.00  0.00     0.009 A 
HETATM   25  C   UNL     1      43.530 -18.467   4.580  1.00  0.00     0.030 A 
ENDBRANCH  15  18
ENDBRANCH  13  14
ENDBRANCH   1  13
BRANCH   4  26
HETATM   26  C   UNL     1      38.689 -12.435   2.282  1.00  0.00     0.175 C 
BRANCH  26  27
HETATM   27  C   UNL     1      39.453 -12.503   0.970  1.00  0.00    -0.037 A 
HETATM   28  C   UNL     1      39.164 -13.507   0.031  1.00  0.00     0.048 A 
HETATM   29  C   UNL     1      39.959 -13.594  -1.093  1.00  0.00     0.105 A 
HETATM   30  C   UNL     1      41.002 -12.725  -1.314  1.00  0.00     0.105 A 
HETATM   31  O   UNL     1      39.842 -14.523  -2.079  1.00  0.00    -0.323 OA
HETATM   32  O   UNL     1      41.670 -12.997  -2.465  1.00  0.00    -0.323 OA
HETATM   33  C   UNL     1      41.305 -11.715  -0.428  1.00  0.00     0.040 A 
HETATM   34  C   UNL     1      40.943 -14.151  -2.934  1.00  0.00     0.352 A 
HETATM   35  C   UNL     1      40.522 -11.608   0.726  1.00  0.00     0.012 A 
ENDBRANCH  26  27
ENDBRANCH   4  26
BRANCH  11  36
HETATM   36  C   UNL     1      42.969 -11.058   8.807  1.00  0.00     0.252 C 
HETATM   37  N   UNL     1      42.280 -11.028   9.996  1.00  0.00    -0.352 N 
HETATM   38  H   UNL     1      41.276 -11.124   9.951  1.00  0.00     0.163 HD
HETATM   39  O   UNL     1      44.180 -11.152   8.692  1.00  0.00    -0.268 OA
BRANCH  37  40
HETATM   40  C   UNL     1      42.857 -11.208  11.331  1.00  0.00     0.084 C 
HETATM   41  C   UNL     1      43.751 -10.037  11.759  1.00  0.00     0.025 C 
HETATM   42  C   UNL     1      43.028  -8.938  12.530  1.00  0.00     0.002 C 
HETATM   43  C   UNL     1      42.235  -9.507  13.699  1.00  0.00     0.000 C 
HETATM   44  C   UNL     1      41.229 -10.557  13.248  1.00  0.00     0.002 C 
HETATM   45  C   UNL     1      41.865 -11.666  12.411  1.00  0.00     0.025 C 
ENDBRANCH  37  40
ENDBRANCH  11  36
TORSDOF 7
ENDMDL
MODEL 5
REMARK VINA RESULT:      -8.8      2.686      6.961
REMARK  7 active torsions:
REMARK  status: ('A' for Active; 'I' for Inactive)
REMARK    1  A    between atoms: C_6  and  N_7 
REMARK       I    between atoms: N_7  and  C_8 
REMARK    2  A    between atoms: C_8  and  C_9 
REMARK    3  A    between atoms: C_9  and  N_10 
REMARK    4  A    between atoms: N_13  and  C_14 
REMARK    5  A    between atoms: C_14  and  C_15 
REMARK    6  A    between atoms: C_30  and  C_31 
REMARK       I    between atoms: C_31  and  N_32 
REMARK    7  A    between atoms: N_32  and  C_33 
ROOT
HETATM    1  N   UNL     1      41.598 -14.109   3.309  1.00  0.00    -0.290 N 
HETATM    2  C   UNL     1      41.703 -14.609   2.021  1.00  0.00     0.332 C 
HETATM    3  O   UNL     1      42.689 -15.275   1.688  1.00  0.00    -0.246 OA
HETATM    4  N   UNL     1      40.662 -14.332   1.151  1.00  0.00    -0.261 N 
HETATM    5  C   UNL     1      39.623 -13.455   1.422  1.00  0.00     0.264 C 
HETATM    6  O   UNL     1      38.698 -13.221   0.648  1.00  0.00    -0.267 OA
HETATM    7  C   UNL     1      39.646 -12.786   2.734  1.00  0.00     0.059 A 
HETATM    8  C   UNL     1      40.626 -13.139   3.663  1.00  0.00     0.056 A 
HETATM    9  C   UNL     1      38.659 -11.837   3.044  1.00  0.00     0.020 A 
HETATM   10  C   UNL     1      38.638 -11.231   4.299  1.00  0.00     0.018 A 
HETATM   11  C   UNL     1      39.609 -11.577   5.243  1.00  0.00     0.034 A 
HETATM   12  C   UNL     1      40.608 -12.511   4.916  1.00  0.00     0.048 A 
ENDROOT
BRANCH   1  13
HETATM   13  C   UNL     1      42.454 -14.719   4.329  1.00  0.00     0.237 C 
BRANCH  13  14
HETATM   14  C   UNL     1      42.397 -16.245   4.408  1.00  0.00     0.240 C 
HETATM   15  N   UNL     1      43.536 -16.860   3.919  1.00  0.00    -0.325 N 
HETATM   16  H   UNL     1      44.334 -16.248   3.754  1.00  0.00     0.169 HD
HETATM   17  O   UNL     1      41.381 -16.803   4.813  1.00  0.00    -0.271 OA
BRANCH  15  18
HETATM   18  C   UNL     1      43.693 -18.214   3.546  1.00  0.00     0.040 A 
HETATM   19  C   UNL     1      44.437 -19.072   4.382  1.00  0.00    -0.035 A 
HETATM   20  C   UNL     1      44.703 -20.390   3.960  1.00  0.00     0.015 A 
HETATM   21  C   UNL     1      44.974 -18.629   5.717  1.00  0.00     0.050 C 
HETATM   22  C   UNL     1      44.227 -20.870   2.736  1.00  0.00    -0.061 A 
HETATM   23  C   UNL     1      44.549 -22.258   2.267  1.00  0.00     0.048 C 
HETATM   24  C   UNL     1      43.464 -20.023   1.933  1.00  0.00     0.009 A 
HETATM   25  C   UNL     1      43.197 -18.711   2.337  1.00  0.00     0.030 A 
ENDBRANCH  15  18
ENDBRANCH  13  14
ENDBRANCH   1  13
BRANCH   4  26
HETATM   26  C   UNL     1      40.621 -15.079  -0.102  1.00  0.00     0.175 C 
BRANCH  26  27
HETATM   27  C   UNL     1      40.948 -14.175  -1.279  1.00  0.00    -0.037 A 
HETATM   28  C   UNL     1      41.896 -13.147  -1.142  1.00  0.00     0.048 A 
HETATM   29  C   UNL     1      42.077 -12.286  -2.205  1.00  0.00     0.105 A 
HETATM   30  C   UNL     1      41.370 -12.419  -3.376  1.00  0.00     0.105 A 
HETATM   31  O   UNL     1      42.922 -11.220  -2.228  1.00  0.00    -0.323 OA
HETATM   32  O   UNL     1      41.681 -11.456  -4.284  1.00  0.00    -0.323 OA
HETATM   33  C   UNL     1      40.447 -13.425  -3.557  1.00  0.00     0.040 A 
HETATM   34  C   UNL     1      42.650 -10.688  -3.542  1.00  0.00     0.352 A 
HETATM   35  C   UNL     1      40.235 -14.308  -2.494  1.00  0.00     0.012 A 
ENDBRANCH  26  27
ENDBRANCH   4  26
BRANCH  11  36
HETATM   36  C   UNL     1      39.638 -10.972   6.603  1.00  0.00     0.252 C 
HETATM   37  N   UNL     1      40.653 -11.397   7.428  1.00  0.00    -0.352 N 
HETATM   38  H   UNL     1      41.372 -11.974   7.014  1.00  0.00     0.163 HD
HETATM   39  O   UNL     1      38.808 -10.122   6.882  1.00  0.00    -0.268 OA
BRANCH  37  40
HETATM   40  C   UNL     1      40.989 -10.839   8.740  1.00  0.00     0.084 C 
HETATM   41  C   UNL     1      41.627  -9.446   8.650  1.00  0.00     0.025 C 
HETATM   42  C   UNL     1      40.636  -8.290   8.728  1.00  0.00     0.002 C 
HETATM   43  C   UNL     1      39.720  -8.422   9.937  1.00  0.00     0.000 C 
HETATM   44  C   UNL     1      38.962  -9.742   9.938  1.00  0.00     0.002 C 
HETATM   45  C   UNL     1      39.882 -10.954   9.798  1.00  0.00     0.025 C 
ENDBRANCH  37  40
ENDBRANCH  11  36
TORSDOF 7
ENDMDL
MODEL 6
REMARK VINA RESULT:      -8.8      2.842      9.702
REMARK  7 active torsions:
REMARK  status: ('A' for Active; 'I' for Inactive)
REMARK    1  A    between atoms: C_6  and  N_7 
REMARK       I    between atoms: N_7  and  C_8 
REMARK    2  A    between atoms: C_8  and  C_9 
REMARK    3  A    between atoms: C_9  and  N_10 
REMARK    4  A    between atoms: N_13  and  C_14 
REMARK    5  A    between atoms: C_14  and  C_15 
REMARK    6  A    between atoms: C_30  and  C_31 
REMARK       I    between atoms: C_31  and  N_32 
REMARK    7  A    between atoms: N_32  and  C_33 
ROOT
HETATM    1  N   UNL     1      42.472 -12.309   6.469  1.00  0.00    -0.290 N 
HETATM    2  C   UNL     1      42.440 -11.387   7.503  1.00  0.00     0.332 C 
HETATM    3  O   UNL     1      43.377 -11.317   8.305  1.00  0.00    -0.246 OA
HETATM    4  N   UNL     1      41.329 -10.564   7.581  1.00  0.00    -0.261 N 
HETATM    5  C   UNL     1      40.185 -10.715   6.813  1.00  0.00     0.264 C 
HETATM    6  O   UNL     1      39.206  -9.975   6.881  1.00  0.00    -0.267 OA
HETATM    7  C   UNL     1      40.173 -11.833   5.853  1.00  0.00     0.059 A 
HETATM    8  C   UNL     1      41.326 -12.600   5.685  1.00  0.00     0.056 A 
HETATM    9  C   UNL     1      39.018 -12.079   5.093  1.00  0.00     0.020 A 
HETATM   10  C   UNL     1      39.007 -13.102   4.146  1.00  0.00     0.018 A 
HETATM   11  C   UNL     1      40.156 -13.877   3.962  1.00  0.00     0.034 A 
HETATM   12  C   UNL     1      41.300 -13.638   4.744  1.00  0.00     0.048 A 
ENDROOT
BRANCH   1  13
HETATM   13  C   UNL     1      43.777 -12.882   6.130  1.00  0.00     0.237 C 
BRANCH  13  14
HETATM   14  C   UNL     1      44.095 -14.225   6.789  1.00  0.00     0.240 C 
HETATM   15  N   UNL     1      44.000 -15.296   5.918  1.00  0.00    -0.325 N 
HETATM   16  H   UNL     1      43.929 -15.058   4.929  1.00  0.00     0.169 HD
HETATM   17  O   UNL     1      44.334 -14.279   7.992  1.00  0.00    -0.271 OA
BRANCH  15  18
HETATM   18  C   UNL     1      43.908 -16.668   6.245  1.00  0.00     0.040 A 
HETATM   19  C   UNL     1      42.647 -17.213   6.564  1.00  0.00    -0.035 A 
HETATM   20  C   UNL     1      42.562 -18.546   7.009  1.00  0.00     0.015 A 
HETATM   21  C   UNL     1      41.375 -16.414   6.455  1.00  0.00     0.050 C 
HETATM   22  C   UNL     1      43.702 -19.347   7.125  1.00  0.00    -0.061 A 
HETATM   23  C   UNL     1      43.617 -20.752   7.642  1.00  0.00     0.048 C 
HETATM   24  C   UNL     1      44.940 -18.808   6.776  1.00  0.00     0.009 A 
HETATM   25  C   UNL     1      45.040 -17.484   6.337  1.00  0.00     0.030 A 
ENDBRANCH  15  18
ENDBRANCH  13  14
ENDBRANCH   1  13
BRANCH   4  26
HETATM   26  C   UNL     1      41.409  -9.415   8.475  1.00  0.00     0.175 C 
BRANCH  26  27
HETATM   27  C   UNL     1      41.229  -9.845   9.921  1.00  0.00    -0.037 A 
HETATM   28  C   UNL     1      42.061  -9.322  10.926  1.00  0.00     0.048 A 
HETATM   29  C   UNL     1      41.931  -9.826  12.204  1.00  0.00     0.105 A 
HETATM   30  C   UNL     1      41.012 -10.803  12.509  1.00  0.00     0.105 A 
HETATM   31  O   UNL     1      42.676  -9.462  13.281  1.00  0.00    -0.323 OA
HETATM   32  O   UNL     1      41.063 -11.174  13.816  1.00  0.00    -0.323 OA
HETATM   33  C   UNL     1      40.166 -11.327  11.558  1.00  0.00     0.040 A 
HETATM   34  C   UNL     1      42.134 -10.335  14.294  1.00  0.00     0.352 A 
HETATM   35  C   UNL     1      40.281 -10.842  10.251  1.00  0.00     0.012 A 
ENDBRANCH  26  27
ENDBRANCH   4  26
BRANCH  11  36
HETATM   36  C   UNL     1      40.212 -14.978   2.962  1.00  0.00     0.252 C 
HETATM   37  N   UNL     1      41.365 -15.728   2.958  1.00  0.00    -0.352 N 
HETATM   38  H   UNL     1      42.021 -15.569   3.710  1.00  0.00     0.163 HD
HETATM   39  O   UNL     1      39.237 -15.175   2.253  1.00  0.00    -0.268 OA
BRANCH  37  40
HETATM   40  C   UNL     1      41.594 -16.954   2.189  1.00  0.00     0.084 C 
HETATM   41  C   UNL     1      42.602 -16.763   1.048  1.00  0.00     0.025 C 
HETATM   42  C   UNL     1      44.048 -17.066   1.424  1.00  0.00     0.002 C 
HETATM   43  C   UNL     1      44.178 -18.435   2.078  1.00  0.00     0.000 C 
HETATM   44  C   UNL     1      43.294 -18.565   3.311  1.00  0.00     0.002 C 
HETATM   45  C   UNL     1      41.834 -18.215   3.033  1.00  0.00     0.025 C 
ENDBRANCH  37  40
ENDBRANCH  11  36
TORSDOF 7
ENDMDL
MODEL 7
REMARK VINA RESULT:      -8.6      2.006      4.929
REMARK  7 active torsions:
REMARK  status: ('A' for Active; 'I' for Inactive)
REMARK    1  A    between atoms: C_6  and  N_7 
REMARK       I    between atoms: N_7  and  C_8 
REMARK    2  A    between atoms: C_8  and  C_9 
REMARK    3  A    between atoms: C_9  and  N_10 
REMARK    4  A    between atoms: N_13  and  C_14 
REMARK    5  A    between atoms: C_14  and  C_15 
REMARK    6  A    between atoms: C_30  and  C_31 
REMARK       I    between atoms: C_31  and  N_32 
REMARK    7  A    between atoms: N_32  and  C_33 
ROOT
HETATM    1  N   UNL     1      40.871 -12.717   4.375  1.00  0.00    -0.290 N 
HETATM    2  C   UNL     1      39.860 -13.224   3.575  1.00  0.00     0.332 C 
HETATM    3  O   UNL     1      38.919 -12.503   3.227  1.00  0.00    -0.246 OA
HETATM    4  N   UNL     1      39.964 -14.550   3.191  1.00  0.00    -0.261 N 
HETATM    5  C   UNL     1      40.903 -15.440   3.688  1.00  0.00     0.264 C 
HETATM    6  O   UNL     1      40.995 -16.614   3.336  1.00  0.00    -0.267 OA
HETATM    7  C   UNL     1      41.846 -14.917   4.691  1.00  0.00     0.059 A 
HETATM    8  C   UNL     1      41.825 -13.558   5.004  1.00  0.00     0.056 A 
HETATM    9  C   UNL     1      42.779 -15.785   5.282  1.00  0.00     0.020 A 
HETATM   10  C   UNL     1      43.710 -15.296   6.197  1.00  0.00     0.018 A 
HETATM   11  C   UNL     1      43.706 -13.936   6.517  1.00  0.00     0.034 A 
HETATM   12  C   UNL     1      42.753 -13.078   5.938  1.00  0.00     0.048 A 
ENDROOT
BRANCH   1  13
HETATM   13  C   UNL     1      40.995 -11.259   4.446  1.00  0.00     0.237 C 
BRANCH  13  14
HETATM   14  C   UNL     1      40.941 -10.530   3.103  1.00  0.00     0.240 C 
HETATM   15  N   UNL     1      41.157 -11.363   2.021  1.00  0.00    -0.325 N 
HETATM   16  H   UNL     1      41.129 -12.363   2.218  1.00  0.00     0.169 HD
HETATM   17  O   UNL     1      40.786  -9.312   3.069  1.00  0.00    -0.271 OA
BRANCH  15  18
HETATM   18  C   UNL     1      41.492 -10.991   0.698  1.00  0.00     0.040 A 
HETATM   19  C   UNL     1      40.476 -10.519  -0.158  1.00  0.00    -0.035 A 
HETATM   20  C   UNL     1      40.774 -10.263  -1.510  1.00  0.00     0.015 A 
HETATM   21  C   UNL     1      39.066 -10.285   0.319  1.00  0.00     0.050 C 
HETATM   22  C   UNL     1      42.063 -10.450  -2.017  1.00  0.00    -0.061 A 
HETATM   23  C   UNL     1      42.370 -10.220  -3.467  1.00  0.00     0.048 C 
HETATM   24  C   UNL     1      43.068 -10.887  -1.154  1.00  0.00     0.009 A 
HETATM   25  C   UNL     1      42.785 -11.150   0.190  1.00  0.00     0.030 A 
ENDBRANCH  15  18
ENDBRANCH  13  14
ENDBRANCH   1  13
BRANCH   4  26
HETATM   26  C   UNL     1      39.074 -15.011   2.131  1.00  0.00     0.175 C 
BRANCH  26  27
HETATM   27  C   UNL     1      39.565 -14.541   0.773  1.00  0.00    -0.037 A 
HETATM   28  C   UNL     1      38.673 -13.954  -0.141  1.00  0.00     0.048 A 
HETATM   29  C   UNL     1      39.144 -13.645  -1.401  1.00  0.00     0.105 A 
HETATM   30  C   UNL     1      40.447 -13.885  -1.768  1.00  0.00     0.105 A 
HETATM   31  O   UNL     1      38.410 -13.110  -2.413  1.00  0.00    -0.323 OA
HETATM   32  O   UNL     1      40.698 -13.530  -3.056  1.00  0.00    -0.323 OA
HETATM   33  C   UNL     1      41.356 -14.440  -0.896  1.00  0.00     0.040 A 
HETATM   34  C   UNL     1      39.397 -13.059  -3.465  1.00  0.00     0.352 A 
HETATM   35  C   UNL     1      40.907 -14.773   0.386  1.00  0.00     0.012 A 
ENDBRANCH  26  27
ENDBRANCH   4  26
BRANCH  11  36
HETATM   36  C   UNL     1      44.678 -13.349   7.480  1.00  0.00     0.252 C 
HETATM   37  N   UNL     1      44.151 -12.894   8.665  1.00  0.00    -0.352 N 
HETATM   38  H   UNL     1      43.181 -13.111   8.852  1.00  0.00     0.163 HD
HETATM   39  O   UNL     1      45.863 -13.348   7.186  1.00  0.00    -0.268 OA
BRANCH  37  40
HETATM   40  C   UNL     1      44.913 -12.429   9.826  1.00  0.00     0.084 C 
HETATM   41  C   UNL     1      45.296 -10.946   9.734  1.00  0.00     0.025 C 
HETATM   42  C   UNL     1      44.291  -9.992  10.368  1.00  0.00     0.002 C 
HETATM   43  C   UNL     1      43.952 -10.406  11.794  1.00  0.00     0.000 C 
HETATM   44  C   UNL     1      43.416 -11.829  11.862  1.00  0.00     0.002 C 
HETATM   45  C   UNL     1      44.338 -12.843  11.189  1.00  0.00     0.025 C 
ENDBRANCH  37  40
ENDBRANCH  11  36
TORSDOF 7
ENDMDL
MODEL 8
REMARK VINA RESULT:      -8.6      4.253      8.495
REMARK  7 active torsions:
REMARK  status: ('A' for Active; 'I' for Inactive)
REMARK    1  A    between atoms: C_6  and  N_7 
REMARK       I    between atoms: N_7  and  C_8 
REMARK    2  A    between atoms: C_8  and  C_9 
REMARK    3  A    between atoms: C_9  and  N_10 
REMARK    4  A    between atoms: N_13  and  C_14 
REMARK    5  A    between atoms: C_14  and  C_15 
REMARK    6  A    between atoms: C_30  and  C_31 
REMARK       I    between atoms: C_31  and  N_32 
REMARK    7  A    between atoms: N_32  and  C_33 
ROOT
HETATM    1  N   UNL     1      40.307 -11.717   1.633  1.00  0.00    -0.290 N 
HETATM    2  C   UNL     1      41.275 -12.460   0.978  1.00  0.00     0.332 C 
HETATM    3  O   UNL     1      42.473 -12.266   1.209  1.00  0.00    -0.246 OA
HETATM    4  N   UNL     1      40.835 -13.415   0.076  1.00  0.00    -0.261 N 
HETATM    5  C   UNL     1      39.521 -13.555  -0.340  1.00  0.00     0.264 C 
HETATM    6  O   UNL     1      39.136 -14.411  -1.134  1.00  0.00    -0.267 OA
HETATM    7  C   UNL     1      38.540 -12.615   0.231  1.00  0.00     0.059 A 
HETATM    8  C   UNL     1      38.949 -11.723   1.222  1.00  0.00     0.056 A 
HETATM    9  C   UNL     1      37.205 -12.662  -0.200  1.00  0.00     0.020 A 
HETATM   10  C   UNL     1      36.255 -11.812   0.365  1.00  0.00     0.018 A 
HETATM   11  C   UNL     1      36.647 -10.916   1.363  1.00  0.00     0.034 A 
HETATM   12  C   UNL     1      37.991 -10.859   1.772  1.00  0.00     0.048 A 
ENDROOT
BRANCH   1  13
HETATM   13  C   UNL     1      40.718 -11.018   2.852  1.00  0.00     0.237 C 
BRANCH  13  14
HETATM   14  C   UNL     1      40.895 -11.901   4.088  1.00  0.00     0.240 C 
HETATM   15  N   UNL     1      41.927 -12.814   3.962  1.00  0.00    -0.325 N 
HETATM   16  H   UNL     1      42.556 -12.666   3.174  1.00  0.00     0.169 HD
HETATM   17  O   UNL     1      40.118 -11.801   5.033  1.00  0.00    -0.271 OA
BRANCH  15  18
HETATM   18  C   UNL     1      42.159 -13.967   4.746  1.00  0.00     0.040 A 
HETATM   19  C   UNL     1      41.227 -15.025   4.702  1.00  0.00    -0.035 A 
HETATM   20  C   UNL     1      41.384 -16.122   5.570  1.00  0.00     0.015 A 
HETATM   21  C   UNL     1      40.052 -15.022   3.760  1.00  0.00     0.050 C 
HETATM   22  C   UNL     1      42.457 -16.193   6.464  1.00  0.00    -0.061 A 
HETATM   23  C   UNL     1      42.599 -17.341   7.419  1.00  0.00     0.048 C 
HETATM   24  C   UNL     1      43.391 -15.157   6.476  1.00  0.00     0.009 A 
HETATM   25  C   UNL     1      43.244 -14.059   5.624  1.00  0.00     0.030 A 
ENDBRANCH  15  18
ENDBRANCH  13  14
ENDBRANCH   1  13
BRANCH   4  26
HETATM   26  C   UNL     1      41.814 -14.386  -0.400  1.00  0.00     0.175 C 
BRANCH  26  27
HETATM   27  C   UNL     1      41.943 -15.543   0.577  1.00  0.00    -0.037 A 
HETATM   28  C   UNL     1      42.997 -15.574   1.506  1.00  0.00     0.048 A 
HETATM   29  C   UNL     1      43.135 -16.697   2.295  1.00  0.00     0.105 A 
HETATM   30  C   UNL     1      42.270 -17.762   2.200  1.00  0.00     0.105 A 
HETATM   31  O   UNL     1      44.115 -16.907   3.214  1.00  0.00    -0.323 OA
HETATM   32  O   UNL     1      42.595 -18.773   3.047  1.00  0.00    -0.323 OA
HETATM   33  C   UNL     1      41.213 -17.762   1.317  1.00  0.00     0.040 A 
HETATM   34  C   UNL     1      43.778 -18.233   3.672  1.00  0.00     0.352 A 
HETATM   35  C   UNL     1      41.053 -16.641   0.497  1.00  0.00     0.012 A 
ENDBRANCH  26  27
ENDBRANCH   4  26
BRANCH  11  36
HETATM   36  C   UNL     1      35.681  -9.987   2.012  1.00  0.00     0.252 C 
HETATM   37  N   UNL     1      34.351 -10.294   1.851  1.00  0.00    -0.352 N 
HETATM   38  H   UNL     1      34.131 -11.186   1.428  1.00  0.00     0.163 HD
HETATM   39  O   UNL     1      36.118  -9.057   2.672  1.00  0.00    -0.268 OA
BRANCH  37  40
HETATM   40  C   UNL     1      33.226  -9.636   2.520  1.00  0.00     0.084 C 
HETATM   41  C   UNL     1      32.104  -9.240   1.551  1.00  0.00     0.025 C 
HETATM   42  C   UNL     1      31.016 -10.293   1.378  1.00  0.00     0.002 C 
HETATM   43  C   UNL     1      30.472 -10.758   2.722  1.00  0.00     0.000 C 
HETATM   44  C   UNL     1      31.570 -11.305   3.624  1.00  0.00     0.002 C 
HETATM   45  C   UNL     1      32.733 -10.330   3.798  1.00  0.00     0.025 C 
ENDBRANCH  37  40
ENDBRANCH  11  36
TORSDOF 7
ENDMDL
MODEL 9
REMARK VINA RESULT:      -8.4      2.588      9.554
REMARK  7 active torsions:
REMARK  status: ('A' for Active; 'I' for Inactive)
REMARK    1  A    between atoms: C_6  and  N_7 
REMARK       I    between atoms: N_7  and  C_8 
REMARK    2  A    between atoms: C_8  and  C_9 
REMARK    3  A    between atoms: C_9  and  N_10 
REMARK    4  A    between atoms: N_13  and  C_14 
REMARK    5  A    between atoms: C_14  and  C_15 
REMARK    6  A    between atoms: C_30  and  C_31 
REMARK       I    between atoms: C_31  and  N_32 
REMARK    7  A    between atoms: N_32  and  C_33 
ROOT
HETATM    1  N   UNL     1      40.999 -12.350   6.524  1.00  0.00    -0.290 N 
HETATM    2  C   UNL     1      40.948 -11.063   7.034  1.00  0.00     0.332 C 
HETATM    3  O   UNL     1      40.008 -10.314   6.745  1.00  0.00    -0.246 OA
HETATM    4  N   UNL     1      41.981 -10.674   7.870  1.00  0.00    -0.261 N 
HETATM    5  C   UNL     1      43.134 -11.410   8.089  1.00  0.00     0.264 C 
HETATM    6  O   UNL     1      44.043 -11.062   8.840  1.00  0.00    -0.267 OA
HETATM    7  C   UNL     1      43.247 -12.694   7.374  1.00  0.00     0.059 A 
HETATM    8  C   UNL     1      42.168 -13.150   6.618  1.00  0.00     0.056 A 
HETATM    9  C   UNL     1      44.419 -13.455   7.502  1.00  0.00     0.020 A 
HETATM   10  C   UNL     1      44.523 -14.695   6.871  1.00  0.00     0.018 A 
HETATM   11  C   UNL     1      43.448 -15.169   6.114  1.00  0.00     0.034 A 
HETATM   12  C   UNL     1      42.287 -14.388   5.972  1.00  0.00     0.048 A 
ENDROOT
BRANCH   1  13
HETATM   13  C   UNL     1      39.751 -12.905   5.995  1.00  0.00     0.237 C 
BRANCH  13  14
HETATM   14  C   UNL     1      39.539 -12.725   4.491  1.00  0.00     0.240 C 
HETATM   15  N   UNL     1      39.964 -13.810   3.746  1.00  0.00    -0.325 N 
HETATM   16  H   UNL     1      40.177 -14.655   4.275  1.00  0.00     0.169 HD
HETATM   17  O   UNL     1      39.093 -11.667   4.055  1.00  0.00    -0.271 OA
BRANCH  15  18
HETATM   18  C   UNL     1      40.214 -13.857   2.356  1.00  0.00     0.040 A 
HETATM   19  C   UNL     1      41.501 -13.527   1.880  1.00  0.00    -0.035 A 
HETATM   20  C   UNL     1      41.727 -13.451   0.492  1.00  0.00     0.015 A 
HETATM   21  C   UNL     1      42.652 -13.239   2.807  1.00  0.00     0.050 C 
HETATM   22  C   UNL     1      40.705 -13.714  -0.425  1.00  0.00    -0.061 A 
HETATM   23  C   UNL     1      40.934 -13.589  -1.902  1.00  0.00     0.048 C 
HETATM   24  C   UNL     1      39.445 -14.072   0.056  1.00  0.00     0.009 A 
HETATM   25  C   UNL     1      39.206 -14.146   1.431  1.00  0.00     0.030 A 
ENDBRANCH  15  18
ENDBRANCH  13  14
ENDBRANCH   1  13
BRANCH   4  26
HETATM   26  C   UNL     1      41.797  -9.443   8.631  1.00  0.00     0.175 C 
BRANCH  26  27
HETATM   27  C   UNL     1      41.558  -9.749  10.100  1.00  0.00    -0.037 A 
HETATM   28  C   UNL     1      42.415  -9.226  11.083  1.00  0.00     0.048 A 
HETATM   29  C   UNL     1      42.221  -9.622  12.390  1.00  0.00     0.105 A 
HETATM   30  C   UNL     1      41.218 -10.493  12.744  1.00  0.00     0.105 A 
HETATM   31  O   UNL     1      42.978  -9.244  13.455  1.00  0.00    -0.323 OA
HETATM   32  O   UNL     1      41.216 -10.770  14.075  1.00  0.00    -0.323 OA
HETATM   33  C   UNL     1      40.345 -11.011  11.814  1.00  0.00     0.040 A 
HETATM   34  C   UNL     1      42.347  -9.992  14.516  1.00  0.00     0.352 A 
HETATM   35  C   UNL     1      40.522 -10.635  10.479  1.00  0.00     0.012 A 
ENDBRANCH  26  27
ENDBRANCH   4  26
BRANCH  11  36
HETATM   36  C   UNL     1      43.491 -16.486   5.422  1.00  0.00     0.252 C 
HETATM   37  N   UNL     1      42.673 -16.616   4.325  1.00  0.00    -0.352 N 
HETATM   38  H   UNL     1      42.213 -15.780   3.991  1.00  0.00     0.163 HD
HETATM   39  O   UNL     1      44.266 -17.336   5.832  1.00  0.00    -0.268 OA
BRANCH  37  40
HETATM   40  C   UNL     1      42.656 -17.744   3.390  1.00  0.00     0.084 C 
HETATM   41  C   UNL     1      41.477 -17.688   2.409  1.00  0.00     0.025 C 
HETATM   42  C   UNL     1      41.780 -16.974   1.097  1.00  0.00     0.002 C 
HETATM   43  C   UNL     1      43.042 -17.520   0.443  1.00  0.00     0.000 C 
HETATM   44  C   UNL     1      44.250 -17.423   1.365  1.00  0.00     0.002 C 
HETATM   45  C   UNL     1      44.005 -18.063   2.731  1.00  0.00     0.025 C 
ENDBRANCH  37  40
ENDBRANCH  11  36
TORSDOF 7
ENDMDL
MODEL 10
REMARK VINA RESULT:      -8.4      3.492      9.122
REMARK  7 active torsions:
REMARK  status: ('A' for Active; 'I' for Inactive)
REMARK    1  A    between atoms: C_6  and  N_7 
REMARK       I    between atoms: N_7  and  C_8 
REMARK    2  A    between atoms: C_8  and  C_9 
REMARK    3  A    between atoms: C_9  and  N_10 
REMARK    4  A    between atoms: N_13  and  C_14 
REMARK    5  A    between atoms: C_14  and  C_15 
REMARK    6  A    between atoms: C_30  and  C_31 
REMARK       I    between atoms: C_31  and  N_32 
REMARK    7  A    between atoms: N_32  and  C_33 
ROOT
HETATM    1  N   UNL     1      41.944 -14.215   2.965  1.00  0.00    -0.290 N 
HETATM    2  C   UNL     1      41.069 -13.141   2.974  1.00  0.00     0.332 C 
HETATM    3  O   UNL     1      41.154 -12.260   2.112  1.00  0.00    -0.246 OA
HETATM    4  N   UNL     1      40.112 -13.114   3.974  1.00  0.00    -0.261 N 
HETATM    5  C   UNL     1      40.081 -13.982   5.054  1.00  0.00     0.264 C 
HETATM    6  O   UNL     1      39.223 -13.959   5.934  1.00  0.00    -0.267 OA
HETATM    7  C   UNL     1      41.148 -14.997   5.121  1.00  0.00     0.059 A 
HETATM    8  C   UNL     1      42.051 -15.106   4.064  1.00  0.00     0.056 A 
HETATM    9  C   UNL     1      41.210 -15.863   6.224  1.00  0.00     0.020 A 
HETATM   10  C   UNL     1      42.184 -16.859   6.279  1.00  0.00     0.018 A 
HETATM   11  C   UNL     1      43.094 -16.986   5.226  1.00  0.00     0.034 A 
HETATM   12  C   UNL     1      43.038 -16.099   4.136  1.00  0.00     0.048 A 
ENDROOT
BRANCH   1  13
HETATM   13  C   UNL     1      42.669 -14.471   1.718  1.00  0.00     0.237 C 
BRANCH  13  14
HETATM   14  C   UNL     1      41.843 -15.101   0.596  1.00  0.00     0.240 C 
HETATM   15  N   UNL     1      41.525 -14.211  -0.413  1.00  0.00    -0.325 N 
HETATM   16  H   UNL     1      42.026 -13.323  -0.396  1.00  0.00     0.169 HD
HETATM   17  O   UNL     1      41.476 -16.270   0.684  1.00  0.00    -0.271 OA
BRANCH  15  18
HETATM   18  C   UNL     1      40.534 -14.356  -1.410  1.00  0.00     0.040 A 
HETATM   19  C   UNL     1      39.255 -13.804  -1.189  1.00  0.00    -0.035 A 
HETATM   20  C   UNL     1      38.226 -14.047  -2.119  1.00  0.00     0.015 A 
HETATM   21  C   UNL     1      38.939 -12.964   0.020  1.00  0.00     0.050 C 
HETATM   22  C   UNL     1      38.452 -14.811  -3.269  1.00  0.00    -0.061 A 
HETATM   23  C   UNL     1      37.345 -15.108  -4.236  1.00  0.00     0.048 C 
HETATM   24  C   UNL     1      39.729 -15.324  -3.494  1.00  0.00     0.009 A 
HETATM   25  C   UNL     1      40.758 -15.095  -2.576  1.00  0.00     0.030 A 
ENDBRANCH  15  18
ENDBRANCH  13  14
ENDBRANCH   1  13
BRANCH   4  26
HETATM   26  C   UNL     1      39.020 -12.158   3.830  1.00  0.00     0.175 C 
BRANCH  26  27
HETATM   27  C   UNL     1      39.351 -10.853   4.536  1.00  0.00    -0.037 A 
HETATM   28  C   UNL     1      40.545 -10.723   5.265  1.00  0.00     0.048 A 
HETATM   29  C   UNL     1      40.747  -9.559   5.978  1.00  0.00     0.105 A 
HETATM   30  C   UNL     1      39.825  -8.539   5.979  1.00  0.00     0.105 A 
HETATM   31  O   UNL     1      41.824  -9.285   6.762  1.00  0.00    -0.323 OA
HETATM   32  O   UNL     1      40.206  -7.495   6.762  1.00  0.00    -0.323 OA
HETATM   33  C   UNL     1      38.653  -8.620   5.262  1.00  0.00     0.040 A 
HETATM   34  C   UNL     1      41.464  -7.984   7.272  1.00  0.00     0.352 A 
HETATM   35  C   UNL     1      38.415  -9.791   4.537  1.00  0.00     0.012 A 
ENDBRANCH  26  27
ENDBRANCH   4  26
BRANCH  11  36
HETATM   36  C   UNL     1      44.151 -18.033   5.219  1.00  0.00     0.252 C 
HETATM   37  N   UNL     1      44.071 -18.962   4.208  1.00  0.00    -0.352 N 
HETATM   38  H   UNL     1      43.395 -18.791   3.477  1.00  0.00     0.163 HD
HETATM   39  O   UNL     1      45.032 -17.980   6.063  1.00  0.00    -0.268 OA
BRANCH  37  40
HETATM   40  C   UNL     1      45.074 -19.983   3.893  1.00  0.00     0.084 C 
HETATM   41  C   UNL     1      45.240 -21.021   5.011  1.00  0.00     0.025 C 
HETATM   42  C   UNL     1      44.353 -22.253   4.867  1.00  0.00     0.002 C 
HETATM   43  C   UNL     1      44.485 -22.877   3.485  1.00  0.00     0.000 C 
HETATM   44  C   UNL     1      44.160 -21.884   2.377  1.00  0.00     0.002 C 
HETATM   45  C   UNL     1      44.964 -20.589   2.487  1.00  0.00     0.025 C 
ENDBRANCH  37  40
ENDBRANCH  11  36
TORSDOF 7
ENDMDL
