MODEL 1
REMARK VINA RESULT:      -8.4      0.000      0.000
REMARK  8 active torsions:
REMARK  status: ('A' for Active; 'I' for Inactive)
REMARK    1  A    between atoms: O_2  and  C_3 
REMARK    2  A    between atoms: C_3  and  C_4 
REMARK    3  A    between atoms: C_7  and  C_8 
REMARK    4  A    between atoms: C_8  and  N_9 
REMARK    5  A    between atoms: C_18  and  C_19 
REMARK    6  A    between atoms: C_19  and  N_20 
REMARK    7  A    between atoms: C_24  and  O_25 
REMARK    8  A    between atoms: C_24  and  C_26 
ROOT
HETATM    1  N   UNL     1      44.641 -20.736   2.544  1.00  0.00    -0.061 N 
HETATM    2  H   UNL     1      45.158 -20.594   1.669  1.00  0.00     0.280 HD
HETATM    3  C   UNL     1      45.264 -19.755   3.513  1.00  0.00     0.276 C 
HETATM    4  C   UNL     1      44.573 -19.622   4.841  1.00  0.00     0.002 A 
HETATM    5  C   UNL     1      44.453 -20.723   5.689  1.00  0.00     0.076 A 
HETATM    6  O   UNL     1      45.014 -21.926   5.367  1.00  0.00    -0.349 OA
HETATM    7  C   UNL     1      44.330 -22.577   4.290  1.00  0.00     0.203 C 
HETATM    8  C   UNL     1      44.914 -22.184   2.927  1.00  0.00     0.262 C 
HETATM    9  C   UNL     1      44.089 -18.377   5.285  1.00  0.00     0.020 A 
HETATM   10  C   UNL     1      43.480 -18.234   6.548  1.00  0.00    -0.032 A 
HETATM   11  C   UNL     1      43.349 -19.367   7.362  1.00  0.00     0.011 A 
HETATM   12  C   UNL     1      43.856 -20.600   6.942  1.00  0.00     0.038 A 
ENDROOT
BRANCH  10  13
HETATM   13  C   UNL     1      42.987 -16.880   7.006  1.00  0.00     0.273 C 
BRANCH  13  14
HETATM   14  N   UNL     1      42.461 -15.966   5.911  1.00  0.00    -0.067 N 
HETATM   15  H   UNL     1      42.619 -16.455   5.020  1.00  0.00     0.280 HD
HETATM   16  C   UNL     1      40.977 -15.697   6.012  1.00  0.00     0.238 C 
HETATM   17  C   UNL     1      40.541 -14.812   4.858  1.00  0.00     0.071 C 
HETATM   18  C   UNL     1      41.263 -13.451   4.878  1.00  0.00     0.089 C 
HETATM   19  C   UNL     1      42.771 -13.757   4.772  1.00  0.00     0.071 C 
HETATM   20  C   UNL     1      43.272 -14.686   5.869  1.00  0.00     0.238 C 
BRANCH  18  21
HETATM   21  O   UNL     1      40.906 -12.788   3.665  1.00  0.00    -0.385 OA
HETATM   22  H   UNL     1      41.701 -12.419   3.234  1.00  0.00     0.211 HD
ENDBRANCH  18  21
BRANCH  18  23
HETATM   23  C   UNL     1      40.830 -12.576   6.048  1.00  0.00    -0.006 A 
HETATM   24  C   UNL     1      39.571 -12.657   6.640  1.00  0.00     0.126 A 
HETATM   25  N   UNL     1      39.130 -11.845   7.625  1.00  0.00    -0.272 NA
HETATM   26  C   UNL     1      40.002 -10.947   8.126  1.00  0.00     0.116 A 
HETATM   27  C   UNL     1      41.297 -10.819   7.667  1.00  0.00     0.020 A 
HETATM   28  C   UNL     1      41.711 -11.643   6.623  1.00  0.00     0.013 A 
ENDBRANCH  18  23
ENDBRANCH  13  14
ENDBRANCH  10  13
BRANCH   1  29
HETATM   29  C   UNL     1      43.191 -20.488   2.180  1.00  0.00     0.273 C 
BRANCH  29  30
HETATM   30  C   UNL     1      42.829 -19.049   1.909  1.00  0.00    -0.033 A 
HETATM   31  C   UNL     1      41.725 -18.441   2.523  1.00  0.00     0.010 A 
HETATM   32  C   UNL     1      41.399 -17.112   2.232  1.00  0.00     0.018 A 
HETATM   33  C   UNL     1      42.178 -16.363   1.341  1.00  0.00     0.039 A 
HETATM   34  C   UNL     1      43.302 -16.955   0.754  1.00  0.00     0.018 A 
HETATM   35  C   UNL     1      43.625 -18.284   1.038  1.00  0.00     0.010 A 
BRANCH  33  36
HETATM   36  C   UNL     1      41.770 -14.960   1.052  1.00  0.00     0.292 C 
HETATM   37  O   UNL     1      42.373 -13.993   1.483  1.00  0.00    -0.259 OA
BRANCH  36  38
HETATM   38  O   UNL     1      40.643 -14.937   0.298  1.00  0.00    -0.323 OA
HETATM   39  C   UNL     1      40.886 -14.732  -1.098  1.00  0.00     0.213 C 
ENDBRANCH  36  38
ENDBRANCH  33  36
ENDBRANCH  29  30
ENDBRANCH   1  29
TORSDOF 8
ENDMDL
MODEL 2
REMARK VINA RESULT:      -8.2      2.513      6.463
REMARK  8 active torsions:
REMARK  status: ('A' for Active; 'I' for Inactive)
REMARK    1  A    between atoms: O_2  and  C_3 
REMARK    2  A    between atoms: C_3  and  C_4 
REMARK    3  A    between atoms: C_7  and  C_8 
REMARK    4  A    between atoms: C_8  and  N_9 
REMARK    5  A    between atoms: C_18  and  C_19 
REMARK    6  A    between atoms: C_19  and  N_20 
REMARK    7  A    between atoms: C_24  and  O_25 
REMARK    8  A    between atoms: C_24  and  C_26 
ROOT
HETATM    1  N   UNL     1      41.171 -16.219   0.928  1.00  0.00    -0.061 N 
HETATM    2  H   UNL     1      41.122 -17.216   0.688  1.00  0.00     0.280 HD
HETATM    3  C   UNL     1      40.057 -16.020   1.934  1.00  0.00     0.276 C 
HETATM    4  C   UNL     1      40.012 -14.672   2.596  1.00  0.00     0.002 A 
HETATM    5  C   UNL     1      39.830 -13.516   1.836  1.00  0.00     0.076 A 
HETATM    6  O   UNL     1      39.626 -13.584   0.487  1.00  0.00    -0.349 OA
HETATM    7  C   UNL     1      40.807 -13.968  -0.226  1.00  0.00     0.203 C 
HETATM    8  C   UNL     1      40.907 -15.490  -0.383  1.00  0.00     0.262 C 
HETATM    9  C   UNL     1      40.087 -14.549   3.996  1.00  0.00     0.020 A 
HETATM   10  C   UNL     1      39.999 -13.293   4.630  1.00  0.00    -0.032 A 
HETATM   11  C   UNL     1      39.846 -12.150   3.833  1.00  0.00     0.011 A 
HETATM   12  C   UNL     1      39.739 -12.266   2.444  1.00  0.00     0.038 A 
ENDROOT
BRANCH  10  13
HETATM   13  C   UNL     1      40.062 -13.194   6.137  1.00  0.00     0.273 C 
BRANCH  13  14
HETATM   14  N   UNL     1      40.099 -11.783   6.703  1.00  0.00    -0.067 N 
HETATM   15  H   UNL     1      39.589 -11.187   6.037  1.00  0.00     0.280 HD
HETATM   16  C   UNL     1      39.405 -11.652   8.039  1.00  0.00     0.238 C 
HETATM   17  C   UNL     1      39.460 -10.206   8.500  1.00  0.00     0.071 C 
HETATM   18  C   UNL     1      40.911  -9.719   8.680  1.00  0.00     0.089 C 
HETATM   19  C   UNL     1      41.593  -9.864   7.304  1.00  0.00     0.071 C 
HETATM   20  C   UNL     1      41.528 -11.281   6.750  1.00  0.00     0.238 C 
BRANCH  18  21
HETATM   21  O   UNL     1      40.836  -8.318   8.942  1.00  0.00    -0.385 OA
HETATM   22  H   UNL     1      41.670  -7.880   8.680  1.00  0.00     0.211 HD
ENDBRANCH  18  21
BRANCH  18  23
HETATM   23  C   UNL     1      41.611 -10.390   9.857  1.00  0.00    -0.006 A 
HETATM   24  C   UNL     1      40.953 -10.768  11.025  1.00  0.00     0.126 A 
HETATM   25  N   UNL     1      41.557 -11.292  12.113  1.00  0.00    -0.272 NA
HETATM   26  C   UNL     1      42.879 -11.544  12.029  1.00  0.00     0.116 A 
HETATM   27  C   UNL     1      43.625 -11.274  10.900  1.00  0.00     0.020 A 
HETATM   28  C   UNL     1      42.982 -10.697   9.807  1.00  0.00     0.013 A 
ENDBRANCH  18  23
ENDBRANCH  13  14
ENDBRANCH  10  13
BRANCH   1  29
HETATM   29  C   UNL     1      42.582 -16.014   1.441  1.00  0.00     0.273 C 
BRANCH  29  30
HETATM   30  C   UNL     1      43.087 -17.074   2.387  1.00  0.00    -0.033 A 
HETATM   31  C   UNL     1      43.438 -18.354   1.936  1.00  0.00     0.010 A 
HETATM   32  C   UNL     1      43.878 -19.325   2.842  1.00  0.00     0.018 A 
HETATM   33  C   UNL     1      43.995 -19.031   4.206  1.00  0.00     0.039 A 
HETATM   34  C   UNL     1      43.681 -17.743   4.655  1.00  0.00     0.018 A 
HETATM   35  C   UNL     1      43.234 -16.774   3.752  1.00  0.00     0.010 A 
BRANCH  33  36
HETATM   36  C   UNL     1      44.447 -20.110   5.127  1.00  0.00     0.292 C 
HETATM   37  O   UNL     1      44.239 -20.088   6.327  1.00  0.00    -0.259 OA
BRANCH  36  38
HETATM   38  O   UNL     1      45.134 -21.061   4.446  1.00  0.00    -0.323 OA
HETATM   39  C   UNL     1      45.006 -22.374   5.000  1.00  0.00     0.213 C 
ENDBRANCH  36  38
ENDBRANCH  33  36
ENDBRANCH  29  30
ENDBRANCH   1  29
TORSDOF 8
ENDMDL
MODEL 3
REMARK VINA RESULT:      -8.1      2.724      6.528
REMARK  8 active torsions:
REMARK  status: ('A' for Active; 'I' for Inactive)
REMARK    1  A    between atoms: O_2  and  C_3 
REMARK    2  A    between atoms: C_3  and  C_4 
REMARK    3  A    between atoms: C_7  and  C_8 
REMARK    4  A    between atoms: C_8  and  N_9 
REMARK    5  A    between atoms: C_18  and  C_19 
REMARK    6  A    between atoms: C_19  and  N_20 
REMARK    7  A    between atoms: C_24  and  O_25 
REMARK    8  A    between atoms: C_24  and  C_26 
ROOT
HETATM    1  N   UNL     1      42.813 -15.918   7.162  1.00  0.00    -0.061 N 
HETATM    2  H   UNL     1      42.304 -15.351   7.849  1.00  0.00     0.280 HD
HETATM    3  C   UNL     1      41.728 -16.626   6.380  1.00  0.00     0.276 C 
HETATM    4  C   UNL     1      42.191 -17.398   5.177  1.00  0.00     0.002 A 
HETATM    5  C   UNL     1      43.086 -18.459   5.319  1.00  0.00     0.076 A 
HETATM    6  O   UNL     1      43.514 -18.861   6.553  1.00  0.00    -0.349 OA
HETATM    7  C   UNL     1      44.405 -17.918   7.158  1.00  0.00     0.203 C 
HETATM    8  C   UNL     1      43.650 -16.880   7.996  1.00  0.00     0.262 C 
HETATM    9  C   UNL     1      41.687 -17.113   3.894  1.00  0.00     0.020 A 
HETATM   10  C   UNL     1      42.080 -17.862   2.767  1.00  0.00    -0.032 A 
HETATM   11  C   UNL     1      43.004 -18.901   2.941  1.00  0.00     0.011 A 
HETATM   12  C   UNL     1      43.485 -19.212   4.216  1.00  0.00     0.038 A 
ENDROOT
BRANCH  10  13
HETATM   13  C   UNL     1      41.506 -17.546   1.404  1.00  0.00     0.273 C 
BRANCH  13  14
HETATM   14  N   UNL     1      41.293 -16.070   1.107  1.00  0.00    -0.067 N 
HETATM   15  H   UNL     1      41.749 -15.549   1.867  1.00  0.00     0.280 HD
HETATM   16  C   UNL     1      41.932 -15.618  -0.187  1.00  0.00     0.238 C 
HETATM   17  C   UNL     1      41.700 -14.130  -0.374  1.00  0.00     0.071 C 
HETATM   18  C   UNL     1      40.198 -13.791  -0.454  1.00  0.00     0.089 C 
HETATM   19  C   UNL     1      39.575 -14.262   0.876  1.00  0.00     0.071 C 
HETATM   20  C   UNL     1      39.815 -15.738   1.161  1.00  0.00     0.238 C 
BRANCH  18  21
HETATM   21  O   UNL     1      40.105 -12.367  -0.455  1.00  0.00    -0.385 OA
HETATM   22  H   UNL     1      39.176 -12.088  -0.340  1.00  0.00     0.211 HD
ENDBRANCH  18  21
BRANCH  18  23
HETATM   23  C   UNL     1      39.548 -14.315  -1.730  1.00  0.00    -0.006 A 
HETATM   24  C   UNL     1      40.255 -14.961  -2.740  1.00  0.00     0.126 A 
HETATM   25  N   UNL     1      39.724 -15.366  -3.914  1.00  0.00    -0.272 NA
HETATM   26  C   UNL     1      38.395 -15.208  -4.082  1.00  0.00     0.116 A 
HETATM   27  C   UNL     1      37.579 -14.641  -3.124  1.00  0.00     0.020 A 
HETATM   28  C   UNL     1      38.162 -14.197  -1.939  1.00  0.00     0.013 A 
ENDBRANCH  18  23
ENDBRANCH  13  14
ENDBRANCH  10  13
BRANCH   1  29
HETATM   29  C   UNL     1      43.656 -14.924   6.390  1.00  0.00     0.273 C 
BRANCH  29  30
HETATM   30  C   UNL     1      42.894 -14.015   5.459  1.00  0.00    -0.033 A 
HETATM   31  C   UNL     1      43.167 -13.975   4.085  1.00  0.00     0.010 A 
HETATM   32  C   UNL     1      42.461 -13.102   3.250  1.00  0.00     0.018 A 
HETATM   33  C   UNL     1      41.458 -12.272   3.767  1.00  0.00     0.039 A 
HETATM   34  C   UNL     1      41.157 -12.336   5.132  1.00  0.00     0.018 A 
HETATM   35  C   UNL     1      41.867 -13.202   5.968  1.00  0.00     0.010 A 
BRANCH  33  36
HETATM   36  C   UNL     1      40.755 -11.347   2.835  1.00  0.00     0.292 C 
HETATM   37  O   UNL     1      41.223 -11.006   1.763  1.00  0.00    -0.259 OA
BRANCH  36  38
HETATM   38  O   UNL     1      39.581 -10.932   3.371  1.00  0.00    -0.323 OA
HETATM   39  C   UNL     1      38.455 -11.116   2.507  1.00  0.00     0.213 C 
ENDBRANCH  36  38
ENDBRANCH  33  36
ENDBRANCH  29  30
ENDBRANCH   1  29
TORSDOF 8
ENDMDL
MODEL 4
REMARK VINA RESULT:      -7.9      2.977      6.154
REMARK  8 active torsions:
REMARK  status: ('A' for Active; 'I' for Inactive)
REMARK    1  A    between atoms: O_2  and  C_3 
REMARK    2  A    between atoms: C_3  and  C_4 
REMARK    3  A    between atoms: C_7  and  C_8 
REMARK    4  A    between atoms: C_8  and  N_9 
REMARK    5  A    between atoms: C_18  and  C_19 
REMARK    6  A    between atoms: C_19  and  N_20 
REMARK    7  A    between atoms: C_24  and  O_25 
REMARK    8  A    between atoms: C_24  and  C_26 
ROOT
HETATM    1  N   UNL     1      42.636 -17.695   6.109  1.00  0.00    -0.061 N 
HETATM    2  H   UNL     1      42.009 -17.705   6.921  1.00  0.00     0.280 HD
HETATM    3  C   UNL     1      41.753 -18.089   4.946  1.00  0.00     0.276 C 
HETATM    4  C   UNL     1      42.381 -17.981   3.585  1.00  0.00     0.002 A 
HETATM    5  C   UNL     1      43.511 -18.734   3.267  1.00  0.00     0.076 A 
HETATM    6  O   UNL     1      44.035 -19.631   4.155  1.00  0.00    -0.349 OA
HETATM    7  C   UNL     1      44.671 -18.991   5.267  1.00  0.00     0.203 C 
HETATM    8  C   UNL     1      43.691 -18.749   6.420  1.00  0.00     0.262 C 
HETATM    9  C   UNL     1      41.810 -17.172   2.585  1.00  0.00     0.020 A 
HETATM   10  C   UNL     1      42.367 -17.100   1.291  1.00  0.00    -0.032 A 
HETATM   11  C   UNL     1      43.520 -17.847   1.016  1.00  0.00     0.011 A 
HETATM   12  C   UNL     1      44.074 -18.678   1.993  1.00  0.00     0.038 A 
ENDROOT
BRANCH  10  13
HETATM   13  C   UNL     1      41.720 -16.237   0.232  1.00  0.00     0.273 C 
BRANCH  13  14
HETATM   14  N   UNL     1      41.087 -14.947   0.729  1.00  0.00    -0.067 N 
HETATM   15  H   UNL     1      40.525 -15.196   1.554  1.00  0.00     0.280 HD
HETATM   16  C   UNL     1      42.097 -13.914   1.175  1.00  0.00     0.238 C 
HETATM   17  C   UNL     1      41.371 -12.684   1.690  1.00  0.00     0.071 C 
HETATM   18  C   UNL     1      40.496 -12.038   0.598  1.00  0.00     0.089 C 
HETATM   19  C   UNL     1      39.478 -13.113   0.164  1.00  0.00     0.071 C 
HETATM   20  C   UNL     1      40.134 -14.401  -0.314  1.00  0.00     0.238 C 
BRANCH  18  21
HETATM   21  O   UNL     1      39.742 -11.012   1.241  1.00  0.00    -0.385 OA
HETATM   22  H   UNL     1      39.116 -10.606   0.609  1.00  0.00     0.211 HD
ENDBRANCH  18  21
BRANCH  18  23
HETATM   23  C   UNL     1      41.323 -11.402  -0.513  1.00  0.00    -0.006 A 
HETATM   24  C   UNL     1      40.928 -11.385  -1.849  1.00  0.00     0.126 A 
HETATM   25  N   UNL     1      41.672 -10.899  -2.866  1.00  0.00    -0.272 NA
HETATM   26  C   UNL     1      42.845 -10.313  -2.552  1.00  0.00     0.116 A 
HETATM   27  C   UNL     1      43.311 -10.209  -1.257  1.00  0.00     0.020 A 
HETATM   28  C   UNL     1      42.540 -10.755  -0.233  1.00  0.00     0.013 A 
ENDBRANCH  18  23
ENDBRANCH  13  14
ENDBRANCH  10  13
BRANCH   1  29
HETATM   29  C   UNL     1      43.201 -16.289   6.076  1.00  0.00     0.273 C 
BRANCH  29  30
HETATM   30  C   UNL     1      42.199 -15.196   5.803  1.00  0.00    -0.033 A 
HETATM   31  C   UNL     1      42.604 -13.897   5.464  1.00  0.00     0.010 A 
HETATM   32  C   UNL     1      41.651 -12.897   5.243  1.00  0.00     0.018 A 
HETATM   33  C   UNL     1      40.283 -13.179   5.335  1.00  0.00     0.039 A 
HETATM   34  C   UNL     1      39.874 -14.483   5.636  1.00  0.00     0.018 A 
HETATM   35  C   UNL     1      40.825 -15.481   5.865  1.00  0.00     0.010 A 
BRANCH  33  36
HETATM   36  C   UNL     1      39.315 -12.070   5.110  1.00  0.00     0.292 C 
HETATM   37  O   UNL     1      38.836 -11.819   4.018  1.00  0.00    -0.259 OA
BRANCH  36  38
HETATM   38  O   UNL     1      39.095 -11.388   6.262  1.00  0.00    -0.323 OA
HETATM   39  C   UNL     1      39.473 -10.009   6.198  1.00  0.00     0.213 C 
ENDBRANCH  36  38
ENDBRANCH  33  36
ENDBRANCH  29  30
ENDBRANCH   1  29
TORSDOF 8
ENDMDL
MODEL 5
REMARK VINA RESULT:      -7.8      2.737      5.605
REMARK  8 active torsions:
REMARK  status: ('A' for Active; 'I' for Inactive)
REMARK    1  A    between atoms: O_2  and  C_3 
REMARK    2  A    between atoms: C_3  and  C_4 
REMARK    3  A    between atoms: C_7  and  C_8 
REMARK    4  A    between atoms: C_8  and  N_9 
REMARK    5  A    between atoms: C_18  and  C_19 
REMARK    6  A    between atoms: C_19  and  N_20 
REMARK    7  A    between atoms: C_24  and  O_25 
REMARK    8  A    between atoms: C_24  and  C_26 
ROOT
HETATM    1  N   UNL     1      42.854 -17.786   6.200  1.00  0.00    -0.061 N 
HETATM    2  H   UNL     1      42.261 -17.745   7.037  1.00  0.00     0.280 HD
HETATM    3  C   UNL     1      41.903 -18.162   5.084  1.00  0.00     0.276 C 
HETATM    4  C   UNL     1      42.478 -18.118   3.696  1.00  0.00     0.002 A 
HETATM    5  C   UNL     1      43.555 -18.934   3.351  1.00  0.00     0.076 A 
HETATM    6  O   UNL     1      44.071 -19.835   4.239  1.00  0.00    -0.349 OA
HETATM    7  C   UNL     1      44.785 -19.203   5.307  1.00  0.00     0.203 C 
HETATM    8  C   UNL     1      43.867 -18.884   6.494  1.00  0.00     0.262 C 
HETATM    9  C   UNL     1      41.907 -17.304   2.700  1.00  0.00     0.020 A 
HETATM   10  C   UNL     1      42.411 -17.290   1.383  1.00  0.00    -0.032 A 
HETATM   11  C   UNL     1      43.513 -18.101   1.079  1.00  0.00     0.011 A 
HETATM   12  C   UNL     1      44.066 -18.936   2.054  1.00  0.00     0.038 A 
ENDROOT
BRANCH  10  13
HETATM   13  C   UNL     1      41.764 -16.421   0.329  1.00  0.00     0.273 C 
BRANCH  13  14
HETATM   14  N   UNL     1      42.197 -14.963   0.323  1.00  0.00    -0.067 N 
HETATM   15  H   UNL     1      43.213 -14.959   0.168  1.00  0.00     0.280 HD
HETATM   16  C   UNL     1      41.574 -14.155  -0.793  1.00  0.00     0.238 C 
HETATM   17  C   UNL     1      42.095 -12.730  -0.739  1.00  0.00     0.071 C 
HETATM   18  C   UNL     1      41.735 -12.040   0.591  1.00  0.00     0.089 C 
HETATM   19  C   UNL     1      42.383 -12.884   1.708  1.00  0.00     0.071 C 
HETATM   20  C   UNL     1      41.949 -14.343   1.684  1.00  0.00     0.238 C 
BRANCH  18  21
HETATM   21  O   UNL     1      42.419 -10.786   0.593  1.00  0.00    -0.385 OA
HETATM   22  H   UNL     1      42.992 -10.713  -0.195  1.00  0.00     0.211 HD
ENDBRANCH  18  21
BRANCH  18  23
HETATM   23  C   UNL     1      40.241 -11.771   0.725  1.00  0.00    -0.006 A 
HETATM   24  C   UNL     1      39.471 -11.202  -0.287  1.00  0.00     0.126 A 
HETATM   25  N   UNL     1      38.165 -10.881  -0.173  1.00  0.00    -0.272 NA
HETATM   26  C   UNL     1      37.543 -11.211   0.977  1.00  0.00     0.116 A 
HETATM   27  C   UNL     1      38.184 -11.838   2.026  1.00  0.00     0.020 A 
HETATM   28  C   UNL     1      39.542 -12.122   1.893  1.00  0.00     0.013 A 
ENDBRANCH  18  23
ENDBRANCH  13  14
ENDBRANCH  10  13
BRANCH   1  29
HETATM   29  C   UNL     1      43.486 -16.412   6.108  1.00  0.00     0.273 C 
BRANCH  29  30
HETATM   30  C   UNL     1      42.522 -15.268   5.918  1.00  0.00    -0.033 A 
HETATM   31  C   UNL     1      42.964 -13.988   5.553  1.00  0.00     0.010 A 
HETATM   32  C   UNL     1      42.048 -12.940   5.410  1.00  0.00     0.018 A 
HETATM   33  C   UNL     1      40.679 -13.155   5.608  1.00  0.00     0.039 A 
HETATM   34  C   UNL     1      40.230 -14.439   5.937  1.00  0.00     0.018 A 
HETATM   35  C   UNL     1      41.144 -15.485   6.087  1.00  0.00     0.010 A 
BRANCH  33  36
HETATM   36  C   UNL     1      39.754 -11.996   5.464  1.00  0.00     0.292 C 
HETATM   37  O   UNL     1      38.543 -12.100   5.563  1.00  0.00    -0.259 OA
BRANCH  36  38
HETATM   38  O   UNL     1      40.445 -10.866   5.178  1.00  0.00    -0.323 OA
HETATM   39  C   UNL     1      40.183  -9.785   6.078  1.00  0.00     0.213 C 
ENDBRANCH  36  38
ENDBRANCH  33  36
ENDBRANCH  29  30
ENDBRANCH   1  29
TORSDOF 8
ENDMDL
MODEL 6
REMARK VINA RESULT:      -7.8      3.275      8.287
REMARK  8 active torsions:
REMARK  status: ('A' for Active; 'I' for Inactive)
REMARK    1  A    between atoms: O_2  and  C_3 
REMARK    2  A    between atoms: C_3  and  C_4 
REMARK    3  A    between atoms: C_7  and  C_8 
REMARK    4  A    between atoms: C_8  and  N_9 
REMARK    5  A    between atoms: C_18  and  C_19 
REMARK    6  A    between atoms: C_19  and  N_20 
REMARK    7  A    between atoms: C_24  and  O_25 
REMARK    8  A    between atoms: C_24  and  C_26 
ROOT
HETATM    1  N   UNL     1      42.353 -15.173   4.789  1.00  0.00    -0.061 N 
HETATM    2  H   UNL     1      43.220 -15.631   5.090  1.00  0.00     0.280 HD
HETATM    3  C   UNL     1      42.793 -13.801   4.327  1.00  0.00     0.276 C 
HETATM    4  C   UNL     1      41.735 -12.969   3.659  1.00  0.00     0.002 A 
HETATM    5  C   UNL     1      40.579 -12.606   4.350  1.00  0.00     0.076 A 
HETATM    6  O   UNL     1      40.408 -12.942   5.664  1.00  0.00    -0.349 OA
HETATM    7  C   UNL     1      40.178 -14.344   5.844  1.00  0.00     0.203 C 
HETATM    8  C   UNL     1      41.489 -15.114   6.042  1.00  0.00     0.262 C 
HETATM    9  C   UNL     1      41.913 -12.484   2.349  1.00  0.00     0.020 A 
HETATM   10  C   UNL     1      40.947 -11.664   1.731  1.00  0.00    -0.032 A 
HETATM   11  C   UNL     1      39.784 -11.345   2.445  1.00  0.00     0.011 A 
HETATM   12  C   UNL     1      39.614 -11.795   3.757  1.00  0.00     0.038 A 
ENDROOT
BRANCH  10  13
HETATM   13  C   UNL     1      41.175 -11.142   0.331  1.00  0.00     0.273 C 
BRANCH  13  14
HETATM   14  N   UNL     1      41.680 -12.162  -0.677  1.00  0.00    -0.067 N 
HETATM   15  H   UNL     1      42.691 -12.256  -0.517  1.00  0.00     0.280 HD
HETATM   16  C   UNL     1      41.072 -13.535  -0.500  1.00  0.00     0.238 C 
HETATM   17  C   UNL     1      41.666 -14.488  -1.522  1.00  0.00     0.071 C 
HETATM   18  C   UNL     1      41.373 -14.032  -2.965  1.00  0.00     0.089 C 
HETATM   19  C   UNL     1      42.004 -12.632  -3.116  1.00  0.00     0.071 C 
HETATM   20  C   UNL     1      41.496 -11.633  -2.086  1.00  0.00     0.238 C 
BRANCH  18  21
HETATM   21  O   UNL     1      42.119 -14.898  -3.821  1.00  0.00    -0.385 OA
HETATM   22  H   UNL     1      42.886 -15.267  -3.342  1.00  0.00     0.211 HD
ENDBRANCH  18  21
BRANCH  18  23
HETATM   23  C   UNL     1      39.898 -14.153  -3.329  1.00  0.00    -0.006 A 
HETATM   24  C   UNL     1      39.046 -13.057  -3.449  1.00  0.00     0.126 A 
HETATM   25  N   UNL     1      37.720 -13.135  -3.693  1.00  0.00    -0.272 NA
HETATM   26  C   UNL     1      37.202 -14.360  -3.918  1.00  0.00     0.116 A 
HETATM   27  C   UNL     1      37.959 -15.513  -3.892  1.00  0.00     0.020 A 
HETATM   28  C   UNL     1      39.317 -15.405  -3.599  1.00  0.00     0.013 A 
ENDBRANCH  18  23
ENDBRANCH  13  14
ENDBRANCH  10  13
BRANCH   1  29
HETATM   29  C   UNL     1      41.783 -16.089   3.724  1.00  0.00     0.273 C 
BRANCH  29  30
HETATM   30  C   UNL     1      42.532 -17.380   3.513  1.00  0.00    -0.033 A 
HETATM   31  C   UNL     1      42.372 -18.140   2.346  1.00  0.00     0.010 A 
HETATM   32  C   UNL     1      43.061 -19.348   2.191  1.00  0.00     0.018 A 
HETATM   33  C   UNL     1      43.935 -19.806   3.185  1.00  0.00     0.039 A 
HETATM   34  C   UNL     1      44.125 -19.032   4.335  1.00  0.00     0.018 A 
HETATM   35  C   UNL     1      43.432 -17.830   4.495  1.00  0.00     0.010 A 
BRANCH  33  36
HETATM   36  C   UNL     1      44.623 -21.110   2.974  1.00  0.00     0.292 C 
HETATM   37  O   UNL     1      44.534 -21.747   1.939  1.00  0.00    -0.259 OA
BRANCH  36  38
HETATM   38  O   UNL     1      45.304 -21.475   4.089  1.00  0.00    -0.323 OA
HETATM   39  C   UNL     1      44.770 -22.634   4.737  1.00  0.00     0.213 C 
ENDBRANCH  36  38
ENDBRANCH  33  36
ENDBRANCH  29  30
ENDBRANCH   1  29
TORSDOF 8
ENDMDL
MODEL 7
REMARK VINA RESULT:      -7.7      3.730      8.441
REMARK  8 active torsions:
REMARK  status: ('A' for Active; 'I' for Inactive)
REMARK    1  A    between atoms: O_2  and  C_3 
REMARK    2  A    between atoms: C_3  and  C_4 
REMARK    3  A    between atoms: C_7  and  C_8 
REMARK    4  A    between atoms: C_8  and  N_9 
REMARK    5  A    between atoms: C_18  and  C_19 
REMARK    6  A    between atoms: C_19  and  N_20 
REMARK    7  A    between atoms: C_24  and  O_25 
REMARK    8  A    between atoms: C_24  and  C_26 
ROOT
HETATM    1  N   UNL     1      41.723 -14.414   3.580  1.00  0.00    -0.061 N 
HETATM    2  H   UNL     1      42.706 -14.610   3.801  1.00  0.00     0.280 HD
HETATM    3  C   UNL     1      41.775 -13.672   2.262  1.00  0.00     0.276 C 
HETATM    4  C   UNL     1      40.447 -13.414   1.608  1.00  0.00     0.002 A 
HETATM    5  C   UNL     1      39.478 -12.647   2.254  1.00  0.00     0.076 A 
HETATM    6  O   UNL     1      39.731 -12.061   3.462  1.00  0.00    -0.349 OA
HETATM    7  C   UNL     1      39.807 -13.014   4.527  1.00  0.00     0.203 C 
HETATM    8  C   UNL     1      41.236 -13.535   4.723  1.00  0.00     0.262 C 
HETATM    9  C   UNL     1      40.176 -13.883   0.309  1.00  0.00     0.020 A 
HETATM   10  C   UNL     1      38.950 -13.607  -0.331  1.00  0.00    -0.032 A 
HETATM   11  C   UNL     1      37.987 -12.858   0.359  1.00  0.00     0.011 A 
HETATM   12  C   UNL     1      38.262 -12.361   1.636  1.00  0.00     0.038 A 
ENDROOT
BRANCH  10  13
HETATM   13  C   UNL     1      38.695 -14.107  -1.735  1.00  0.00     0.273 C 
BRANCH  13  14
HETATM   14  N   UNL     1      39.621 -13.558  -2.808  1.00  0.00    -0.067 N 
HETATM   15  H   UNL     1      39.327 -13.985  -3.696  1.00  0.00     0.280 HD
HETATM   16  C   UNL     1      39.520 -12.059  -2.981  1.00  0.00     0.238 C 
HETATM   17  C   UNL     1      40.449 -11.613  -4.096  1.00  0.00     0.071 C 
HETATM   18  C   UNL     1      41.920 -11.947  -3.782  1.00  0.00     0.089 C 
HETATM   19  C   UNL     1      41.992 -13.479  -3.611  1.00  0.00     0.071 C 
HETATM   20  C   UNL     1      41.044 -14.007  -2.544  1.00  0.00     0.238 C 
BRANCH  18  21
HETATM   21  O   UNL     1      42.664 -11.642  -4.962  1.00  0.00    -0.385 OA
HETATM   22  H   UNL     1      42.569 -10.696  -5.186  1.00  0.00     0.211 HD
ENDBRANCH  18  21
BRANCH  18  23
HETATM   23  C   UNL     1      42.477 -11.111  -2.635  1.00  0.00    -0.006 A 
HETATM   24  C   UNL     1      42.817 -11.644  -1.394  1.00  0.00     0.126 A 
HETATM   25  N   UNL     1      43.238 -10.920  -0.335  1.00  0.00    -0.272 NA
HETATM   26  C   UNL     1      43.423  -9.597  -0.521  1.00  0.00     0.116 A 
HETATM   27  C   UNL     1      43.184  -8.967  -1.725  1.00  0.00     0.020 A 
HETATM   28  C   UNL     1      42.712  -9.733  -2.789  1.00  0.00     0.013 A 
ENDBRANCH  18  23
ENDBRANCH  13  14
ENDBRANCH  10  13
BRANCH   1  29
HETATM   29  C   UNL     1      41.055 -15.774   3.557  1.00  0.00     0.273 C 
BRANCH  29  30
HETATM   30  C   UNL     1      41.992 -16.955   3.507  1.00  0.00    -0.033 A 
HETATM   31  C   UNL     1      42.634 -17.333   2.320  1.00  0.00     0.010 A 
HETATM   32  C   UNL     1      43.477 -18.449   2.298  1.00  0.00     0.018 A 
HETATM   33  C   UNL     1      43.710 -19.192   3.462  1.00  0.00     0.039 A 
HETATM   34  C   UNL     1      43.100 -18.796   4.658  1.00  0.00     0.018 A 
HETATM   35  C   UNL     1      42.251 -17.686   4.679  1.00  0.00     0.010 A 
BRANCH  33  36
HETATM   36  C   UNL     1      44.599 -20.383   3.374  1.00  0.00     0.292 C 
HETATM   37  O   UNL     1      44.728 -21.040   2.356  1.00  0.00    -0.259 OA
BRANCH  36  38
HETATM   38  O   UNL     1      45.183 -20.632   4.572  1.00  0.00    -0.323 OA
HETATM   39  C   UNL     1      45.001 -21.973   5.037  1.00  0.00     0.213 C 
ENDBRANCH  36  38
ENDBRANCH  33  36
ENDBRANCH  29  30
ENDBRANCH   1  29
TORSDOF 8
ENDMDL
MODEL 8
REMARK VINA RESULT:      -7.7      3.216      7.173
REMARK  8 active torsions:
REMARK  status: ('A' for Active; 'I' for Inactive)
REMARK    1  A    between atoms: O_2  and  C_3 
REMARK    2  A    between atoms: C_3  and  C_4 
REMARK    3  A    between atoms: C_7  and  C_8 
REMARK    4  A    between atoms: C_8  and  N_9 
REMARK    5  A    between atoms: C_18  and  C_19 
REMARK    6  A    between atoms: C_19  and  N_20 
REMARK    7  A    between atoms: C_24  and  O_25 
REMARK    8  A    between atoms: C_24  and  C_26 
ROOT
HETATM    1  N   UNL     1      40.438 -15.677   3.483  1.00  0.00    -0.061 N 
HETATM    2  H   UNL     1      40.211 -16.660   3.672  1.00  0.00     0.280 HD
HETATM    3  C   UNL     1      39.821 -14.920   4.639  1.00  0.00     0.276 C 
HETATM    4  C   UNL     1      40.155 -13.457   4.712  1.00  0.00     0.002 A 
HETATM    5  C   UNL     1      39.799 -12.597   3.673  1.00  0.00     0.076 A 
HETATM    6  O   UNL     1      39.086 -13.048   2.598  1.00  0.00    -0.349 OA
HETATM    7  C   UNL     1      39.861 -13.896   1.743  1.00  0.00     0.203 C 
HETATM    8  C   UNL     1      39.755 -15.368   2.157  1.00  0.00     0.262 C 
HETATM    9  C   UNL     1      40.775 -12.910   5.852  1.00  0.00     0.020 A 
HETATM   10  C   UNL     1      41.051 -11.531   5.948  1.00  0.00    -0.032 A 
HETATM   11  C   UNL     1      40.706 -10.702   4.872  1.00  0.00     0.011 A 
HETATM   12  C   UNL     1      40.062 -11.231   3.751  1.00  0.00     0.038 A 
ENDROOT
BRANCH  10  13
HETATM   13  C   UNL     1      41.699 -10.970   7.193  1.00  0.00     0.273 C 
BRANCH  13  14
HETATM   14  N   UNL     1      40.798 -10.127   8.082  1.00  0.00    -0.067 N 
HETATM   15  H   UNL     1      40.055  -9.754   7.475  1.00  0.00     0.280 HD
HETATM   16  C   UNL     1      40.120 -10.920   9.176  1.00  0.00     0.238 C 
HETATM   17  C   UNL     1      39.215 -10.004   9.980  1.00  0.00     0.071 C 
HETATM   18  C   UNL     1      40.007  -8.865  10.653  1.00  0.00     0.089 C 
HETATM   19  C   UNL     1      40.685  -8.076   9.514  1.00  0.00     0.071 C 
HETATM   20  C   UNL     1      41.569  -8.942   8.628  1.00  0.00     0.238 C 
BRANCH  18  21
HETATM   21  O   UNL     1      39.039  -7.986  11.226  1.00  0.00    -0.385 OA
HETATM   22  H   UNL     1      38.974  -8.136  12.188  1.00  0.00     0.211 HD
ENDBRANCH  18  21
BRANCH  18  23
HETATM   23  C   UNL     1      40.919  -9.366  11.766  1.00  0.00    -0.006 A 
HETATM   24  C   UNL     1      40.534 -10.329  12.696  1.00  0.00     0.126 A 
HETATM   25  N   UNL     1      41.289 -10.736  13.739  1.00  0.00    -0.272 NA
HETATM   26  C   UNL     1      42.537 -10.234  13.837  1.00  0.00     0.116 A 
HETATM   27  C   UNL     1      43.053  -9.323  12.937  1.00  0.00     0.020 A 
HETATM   28  C   UNL     1      42.237  -8.892  11.893  1.00  0.00     0.013 A 
ENDBRANCH  18  23
ENDBRANCH  13  14
ENDBRANCH  10  13
BRANCH   1  29
HETATM   29  C   UNL     1      41.950 -15.640   3.388  1.00  0.00     0.273 C 
BRANCH  29  30
HETATM   30  C   UNL     1      42.628 -16.987   3.351  1.00  0.00    -0.033 A 
HETATM   31  C   UNL     1      43.025 -17.642   4.525  1.00  0.00     0.010 A 
HETATM   32  C   UNL     1      43.675 -18.879   4.456  1.00  0.00     0.018 A 
HETATM   33  C   UNL     1      43.922 -19.491   3.221  1.00  0.00     0.039 A 
HETATM   34  C   UNL     1      43.494 -18.857   2.049  1.00  0.00     0.018 A 
HETATM   35  C   UNL     1      42.851 -17.619   2.115  1.00  0.00     0.010 A 
BRANCH  33  36
HETATM   36  C   UNL     1      44.638 -20.796   3.209  1.00  0.00     0.292 C 
HETATM   37  O   UNL     1      44.657 -21.532   2.237  1.00  0.00    -0.259 OA
BRANCH  36  38
HETATM   38  O   UNL     1      45.206 -21.041   4.415  1.00  0.00    -0.323 OA
HETATM   39  C   UNL     1      44.933 -22.348   4.928  1.00  0.00     0.213 C 
ENDBRANCH  36  38
ENDBRANCH  33  36
ENDBRANCH  29  30
ENDBRANCH   1  29
TORSDOF 8
ENDMDL
MODEL 9
REMARK VINA RESULT:      -7.6      2.846      6.157
REMARK  8 active torsions:
REMARK  status: ('A' for Active; 'I' for Inactive)
REMARK    1  A    between atoms: O_2  and  C_3 
REMARK    2  A    between atoms: C_3  and  C_4 
REMARK    3  A    between atoms: C_7  and  C_8 
REMARK    4  A    between atoms: C_8  and  N_9 
REMARK    5  A    between atoms: C_18  and  C_19 
REMARK    6  A    between atoms: C_19  and  N_20 
REMARK    7  A    between atoms: C_24  and  O_25 
REMARK    8  A    between atoms: C_24  and  C_26 
ROOT
HETATM    1  N   UNL     1      42.767 -17.727   6.201  1.00  0.00    -0.061 N 
HETATM    2  H   UNL     1      42.150 -17.674   7.020  1.00  0.00     0.280 HD
HETATM    3  C   UNL     1      41.857 -18.152   5.070  1.00  0.00     0.276 C 
HETATM    4  C   UNL     1      42.471 -18.135   3.699  1.00  0.00     0.002 A 
HETATM    5  C   UNL     1      43.572 -18.940   3.407  1.00  0.00     0.076 A 
HETATM    6  O   UNL     1      44.078 -19.806   4.336  1.00  0.00    -0.349 OA
HETATM    7  C   UNL     1      44.749 -19.131   5.405  1.00  0.00     0.203 C 
HETATM    8  C   UNL     1      43.791 -18.797   6.556  1.00  0.00     0.262 C 
HETATM    9  C   UNL     1      41.914 -17.360   2.664  1.00  0.00     0.020 A 
HETATM   10  C   UNL     1      42.456 -17.374   1.362  1.00  0.00    -0.032 A 
HETATM   11  C   UNL     1      43.581 -18.171   1.113  1.00  0.00     0.011 A 
HETATM   12  C   UNL     1      44.120 -18.969   2.127  1.00  0.00     0.038 A 
ENDROOT
BRANCH  10  13
HETATM   13  C   UNL     1      41.824 -16.546   0.266  1.00  0.00     0.273 C 
BRANCH  13  14
HETATM   14  N   UNL     1      41.333 -15.168   0.682  1.00  0.00    -0.067 N 
HETATM   15  H   UNL     1      41.786 -14.955   1.581  1.00  0.00     0.280 HD
HETATM   16  C   UNL     1      41.726 -14.073  -0.284  1.00  0.00     0.238 C 
HETATM   17  C   UNL     1      41.228 -12.736   0.236  1.00  0.00     0.071 C 
HETATM   18  C   UNL     1      39.693 -12.711   0.368  1.00  0.00     0.089 C 
HETATM   19  C   UNL     1      39.323 -13.836   1.357  1.00  0.00     0.071 C 
HETATM   20  C   UNL     1      39.839 -15.203   0.929  1.00  0.00     0.238 C 
BRANCH  18  21
HETATM   21  O   UNL     1      39.364 -11.485   1.020  1.00  0.00    -0.385 OA
HETATM   22  H   UNL     1      38.822 -11.658   1.814  1.00  0.00     0.211 HD
ENDBRANCH  18  21
BRANCH  18  23
HETATM   23  C   UNL     1      38.989 -12.739  -0.984  1.00  0.00    -0.006 A 
HETATM   24  C   UNL     1      38.230 -13.818  -1.430  1.00  0.00     0.126 A 
HETATM   25  N   UNL     1      37.660 -13.906  -2.651  1.00  0.00    -0.272 NA
HETATM   26  C   UNL     1      37.764 -12.834  -3.463  1.00  0.00     0.116 A 
HETATM   27  C   UNL     1      38.434 -11.682  -3.105  1.00  0.00     0.020 A 
HETATM   28  C   UNL     1      39.046 -11.636  -1.854  1.00  0.00     0.013 A 
ENDBRANCH  18  23
ENDBRANCH  13  14
ENDBRANCH  10  13
BRANCH   1  29
HETATM   29  C   UNL     1      43.377 -16.344   6.089  1.00  0.00     0.273 C 
BRANCH  29  30
HETATM   30  C   UNL     1      42.413 -15.239   5.737  1.00  0.00    -0.033 A 
HETATM   31  C   UNL     1      41.099 -15.227   6.227  1.00  0.00     0.010 A 
HETATM   32  C   UNL     1      40.220 -14.202   5.862  1.00  0.00     0.018 A 
HETATM   33  C   UNL     1      40.640 -13.164   5.022  1.00  0.00     0.039 A 
HETATM   34  C   UNL     1      41.961 -13.152   4.560  1.00  0.00     0.018 A 
HETATM   35  C   UNL     1      42.839 -14.179   4.918  1.00  0.00     0.010 A 
BRANCH  33  36
HETATM   36  C   UNL     1      39.654 -12.112   4.649  1.00  0.00     0.292 C 
HETATM   37  O   UNL     1      38.529 -12.064   5.115  1.00  0.00    -0.259 OA
BRANCH  36  38
HETATM   38  O   UNL     1      40.176 -11.277   3.717  1.00  0.00    -0.323 OA
HETATM   39  C   UNL     1      40.115  -9.895   4.081  1.00  0.00     0.213 C 
ENDBRANCH  36  38
ENDBRANCH  33  36
ENDBRANCH  29  30
ENDBRANCH   1  29
TORSDOF 8
ENDMDL
MODEL 10
REMARK VINA RESULT:      -7.4      2.563      7.065
REMARK  8 active torsions:
REMARK  status: ('A' for Active; 'I' for Inactive)
REMARK    1  A    between atoms: O_2  and  C_3 
REMARK    2  A    between atoms: C_3  and  C_4 
REMARK    3  A    between atoms: C_7  and  C_8 
REMARK    4  A    between atoms: C_8  and  N_9 
REMARK    5  A    between atoms: C_18  and  C_19 
REMARK    6  A    between atoms: C_19  and  N_20 
REMARK    7  A    between atoms: C_24  and  O_25 
REMARK    8  A    between atoms: C_24  and  C_26 
ROOT
HETATM    1  N   UNL     1      40.629 -15.308  -0.282  1.00  0.00    -0.061 N 
HETATM    2  H   UNL     1      40.433 -16.312  -0.366  1.00  0.00     0.280 HD
HETATM    3  C   UNL     1      39.294 -14.694   0.079  1.00  0.00     0.276 C 
HETATM    4  C   UNL     1      39.325 -13.236   0.442  1.00  0.00     0.002 A 
HETATM    5  C   UNL     1      39.760 -12.286  -0.481  1.00  0.00     0.076 A 
HETATM    6  O   UNL     1      40.108 -12.647  -1.753  1.00  0.00    -0.349 OA
HETATM    7  C   UNL     1      41.338 -13.377  -1.798  1.00  0.00     0.203 C 
HETATM    8  C   UNL     1      41.107 -14.887  -1.665  1.00  0.00     0.262 C 
HETATM    9  C   UNL     1      38.858 -12.790   1.693  1.00  0.00     0.020 A 
HETATM   10  C   UNL     1      38.840 -11.420   2.025  1.00  0.00    -0.032 A 
HETATM   11  C   UNL     1      39.313 -10.496   1.084  1.00  0.00     0.011 A 
HETATM   12  C   UNL     1      39.748 -10.928  -0.172  1.00  0.00     0.038 A 
ENDROOT
BRANCH  10  13
HETATM   13  C   UNL     1      38.314 -10.970   3.369  1.00  0.00     0.273 C 
BRANCH  13  14
HETATM   14  N   UNL     1      39.302 -11.047   4.522  1.00  0.00    -0.067 N 
HETATM   15  H   UNL     1      39.259 -10.141   5.006  1.00  0.00     0.280 HD
HETATM   16  C   UNL     1      38.957 -12.111   5.540  1.00  0.00     0.238 C 
HETATM   17  C   UNL     1      39.973 -12.083   6.667  1.00  0.00     0.071 C 
HETATM   18  C   UNL     1      41.399 -12.373   6.157  1.00  0.00     0.089 C 
HETATM   19  C   UNL     1      41.722 -11.274   5.123  1.00  0.00     0.071 C 
HETATM   20  C   UNL     1      40.711 -11.204   3.988  1.00  0.00     0.238 C 
BRANCH  18  21
HETATM   21  O   UNL     1      42.275 -12.150   7.262  1.00  0.00    -0.385 OA
HETATM   22  H   UNL     1      42.098 -12.799   7.970  1.00  0.00     0.211 HD
ENDBRANCH  18  21
BRANCH  18  23
HETATM   23  C   UNL     1      41.572 -13.814   5.691  1.00  0.00    -0.006 A 
HETATM   24  C   UNL     1      40.600 -14.796   5.865  1.00  0.00     0.126 A 
HETATM   25  N   UNL     1      40.753 -16.097   5.534  1.00  0.00    -0.272 NA
HETATM   26  C   UNL     1      41.897 -16.450   4.915  1.00  0.00     0.116 A 
HETATM   27  C   UNL     1      42.905 -15.552   4.629  1.00  0.00     0.020 A 
HETATM   28  C   UNL     1      42.736 -14.224   5.018  1.00  0.00     0.013 A 
ENDBRANCH  18  23
ENDBRANCH  13  14
ENDBRANCH  10  13
BRANCH   1  29
HETATM   29  C   UNL     1      41.716 -15.215   0.770  1.00  0.00     0.273 C 
BRANCH  29  30
HETATM   30  C   UNL     1      42.310 -16.531   1.205  1.00  0.00    -0.033 A 
HETATM   31  C   UNL     1      43.693 -16.696   1.364  1.00  0.00     0.010 A 
HETATM   32  C   UNL     1      44.217 -17.937   1.743  1.00  0.00     0.018 A 
HETATM   33  C   UNL     1      43.371 -19.025   1.989  1.00  0.00     0.039 A 
HETATM   34  C   UNL     1      41.987 -18.855   1.867  1.00  0.00     0.018 A 
HETATM   35  C   UNL     1      41.463 -17.618   1.481  1.00  0.00     0.010 A 
BRANCH  33  36
HETATM   36  C   UNL     1      43.986 -20.328   2.368  1.00  0.00     0.292 C 
HETATM   37  O   UNL     1      43.798 -21.356   1.741  1.00  0.00    -0.259 OA
BRANCH  36  38
HETATM   38  O   UNL     1      44.723 -20.196   3.498  1.00  0.00    -0.323 OA
HETATM   39  C   UNL     1      44.721 -21.363   4.328  1.00  0.00     0.213 C 
ENDBRANCH  36  38
ENDBRANCH  33  36
ENDBRANCH  29  30
ENDBRANCH   1  29
TORSDOF 8
ENDMDL
