MODEL 1
REMARK VINA RESULT:      -9.6      0.000      0.000
REMARK  6 active torsions:
REMARK  status: ('A' for Active; 'I' for Inactive)
REMARK    1  A    between atoms: C_4  and  N_5 
REMARK       I    between atoms: N_5  and  C_6 
REMARK    2  A    between atoms: C_6  and  C_7 
REMARK    3  A    between atoms: C_9  and  N_10 
REMARK       I    between atoms: N_10  and  C_11 
REMARK    4  A    between atoms: C_11  and  C_12 
REMARK    5  A    between atoms: C_12  and  O_13 
REMARK    6  A    between atoms: O_13  and  C_14 
ROOT
HETATM    1  C   UNL     1      43.164 -16.395   5.015  1.00  0.00     0.034 A 
HETATM    2  C   UNL     1      43.639 -15.763   6.171  1.00  0.00     0.046 A 
HETATM    3  C   UNL     1      43.694 -14.372   6.270  1.00  0.00     0.035 A 
HETATM    4  C   UNL     1      43.371 -13.607   5.146  1.00  0.00     0.029 A 
HETATM    5  C   UNL     1      42.951 -14.231   3.964  1.00  0.00     0.003 A 
HETATM    6  C   UNL     1      42.838 -15.624   3.899  1.00  0.00     0.017 A 
ENDROOT
BRANCH   3   7
HETATM    7  N   UNL     1      44.076 -13.724   7.463  1.00  0.00    -0.325 N 
HETATM    8  C   UNL     1      45.320 -13.159   7.709  1.00  0.00     0.246 C 
HETATM    9  O   UNL     1      46.296 -13.214   6.962  1.00  0.00    -0.271 OA
HETATM   10  H   UNL     1      43.449 -13.778   8.261  1.00  0.00     0.169 HD
BRANCH   8  11
HETATM   11  C   UNL     1      45.405 -12.373   9.013  1.00  0.00     0.278 C 
BRANCH  11  12
HETATM   12  O   UNL     1      44.575 -12.894  10.043  1.00  0.00    -0.342 OA
BRANCH  12  13
HETATM   13  C   UNL     1      44.058 -11.954  10.901  1.00  0.00     0.069 A 
HETATM   14  C   UNL     1      44.133 -10.634  10.450  1.00  0.00     0.037 A 
HETATM   15  C   UNL     1      43.629  -9.590  11.230  1.00  0.00     0.003 A 
HETATM   16  C   UNL     1      43.051  -9.859  12.468  1.00  0.00     0.000 A 
HETATM   17  C   UNL     1      42.982 -11.171  12.930  1.00  0.00     0.003 A 
HETATM   18  C   UNL     1      43.487 -12.216  12.152  1.00  0.00     0.037 A 
ENDBRANCH  12  13
ENDBRANCH  11  12
ENDBRANCH   8  11
ENDBRANCH   3   7
BRANCH   1  19
HETATM   19  C   UNL     1      43.033 -17.886   4.973  1.00  0.00     0.257 C 
HETATM   20  N   UNL     1      44.238 -18.542   4.821  1.00  0.00    -0.307 N 
HETATM   21  H   UNL     1      45.084 -17.997   4.894  1.00  0.00     0.170 HD
HETATM   22  O   UNL     1      41.916 -18.375   5.090  1.00  0.00    -0.267 OA
BRANCH  20  23
HETATM   23  C   UNL     1      44.426 -19.893   4.515  1.00  0.00     0.130 A 
HETATM   24  C   UNL     1      44.268 -20.250   3.174  1.00  0.00     0.057 A 
HETATM   25  C   UNL     1      44.362 -21.592   2.798  1.00  0.00    -0.057 A 
HETATM   26  C   UNL     1      44.191 -22.000   1.366  1.00  0.00     0.048 C 
HETATM   27  C   UNL     1      44.660 -22.531   3.782  1.00  0.00     0.026 A 
HETATM   28  C   UNL     1      44.811 -22.090   5.087  1.00  0.00     0.119 A 
HETATM   29  N   UNL     1      44.690 -20.800   5.467  1.00  0.00    -0.243 NA
ENDBRANCH  20  23
ENDBRANCH   1  19
TORSDOF 6
ENDMDL
MODEL 2
REMARK VINA RESULT:      -8.6      3.607      6.539
REMARK  6 active torsions:
REMARK  status: ('A' for Active; 'I' for Inactive)
REMARK    1  A    between atoms: C_4  and  N_5 
REMARK       I    between atoms: N_5  and  C_6 
REMARK    2  A    between atoms: C_6  and  C_7 
REMARK    3  A    between atoms: C_9  and  N_10 
REMARK       I    between atoms: N_10  and  C_11 
REMARK    4  A    between atoms: C_11  and  C_12 
REMARK    5  A    between atoms: C_12  and  O_13 
REMARK    6  A    between atoms: O_13  and  C_14 
ROOT
HETATM    1  C   UNL     1      43.708 -16.778   6.117  1.00  0.00     0.034 A 
HETATM    2  C   UNL     1      42.766 -16.098   5.336  1.00  0.00     0.046 A 
HETATM    3  C   UNL     1      42.725 -14.704   5.291  1.00  0.00     0.035 A 
HETATM    4  C   UNL     1      43.575 -13.982   6.134  1.00  0.00     0.029 A 
HETATM    5  C   UNL     1      44.483 -14.653   6.965  1.00  0.00     0.003 A 
HETATM    6  C   UNL     1      44.557 -16.049   6.951  1.00  0.00     0.017 A 
ENDROOT
BRANCH   3   7
HETATM    7  N   UNL     1      41.847 -14.010   4.433  1.00  0.00    -0.325 N 
HETATM    8  C   UNL     1      42.208 -13.390   3.244  1.00  0.00     0.246 C 
HETATM    9  O   UNL     1      43.354 -13.281   2.807  1.00  0.00    -0.271 OA
HETATM   10  H   UNL     1      40.902 -13.828   4.757  1.00  0.00     0.169 HD
BRANCH   8  11
HETATM   11  C   UNL     1      41.032 -12.863   2.430  1.00  0.00     0.278 C 
BRANCH  11  12
HETATM   12  O   UNL     1      40.862 -13.528   1.185  1.00  0.00    -0.342 OA
BRANCH  12  13
HETATM   13  C   UNL     1      40.889 -14.900   1.254  1.00  0.00     0.069 A 
HETATM   14  C   UNL     1      41.924 -15.509   0.540  1.00  0.00     0.037 A 
HETATM   15  C   UNL     1      42.063 -16.900   0.544  1.00  0.00     0.003 A 
HETATM   16  C   UNL     1      41.165 -17.690   1.257  1.00  0.00     0.000 A 
HETATM   17  C   UNL     1      40.124 -17.090   1.962  1.00  0.00     0.003 A 
HETATM   18  C   UNL     1      39.983 -15.700   1.958  1.00  0.00     0.037 A 
ENDBRANCH  12  13
ENDBRANCH  11  12
ENDBRANCH   8  11
ENDBRANCH   3   7
BRANCH   1  19
HETATM   19  C   UNL     1      43.785 -18.273   6.073  1.00  0.00     0.257 C 
HETATM   20  N   UNL     1      44.545 -18.754   5.026  1.00  0.00    -0.307 N 
HETATM   21  H   UNL     1      45.081 -18.091   4.487  1.00  0.00     0.170 HD
HETATM   22  O   UNL     1      43.206 -18.911   6.942  1.00  0.00    -0.267 OA
BRANCH  20  23
HETATM   23  C   UNL     1      44.615 -20.078   4.579  1.00  0.00     0.130 A 
HETATM   24  C   UNL     1      44.336 -20.288   3.227  1.00  0.00     0.057 A 
HETATM   25  C   UNL     1      44.308 -21.589   2.718  1.00  0.00    -0.057 A 
HETATM   26  C   UNL     1      44.006 -21.839   1.272  1.00  0.00     0.048 C 
HETATM   27  C   UNL     1      44.609 -22.638   3.582  1.00  0.00     0.026 A 
HETATM   28  C   UNL     1      44.885 -22.340   4.907  1.00  0.00     0.119 A 
HETATM   29  N   UNL     1      44.883 -21.090   5.417  1.00  0.00    -0.243 NA
ENDBRANCH  20  23
ENDBRANCH   1  19
TORSDOF 6
ENDMDL
MODEL 3
REMARK VINA RESULT:      -8.6      2.097     10.320
REMARK  6 active torsions:
REMARK  status: ('A' for Active; 'I' for Inactive)
REMARK    1  A    between atoms: C_4  and  N_5 
REMARK       I    between atoms: N_5  and  C_6 
REMARK    2  A    between atoms: C_6  and  C_7 
REMARK    3  A    between atoms: C_9  and  N_10 
REMARK       I    between atoms: N_10  and  C_11 
REMARK    4  A    between atoms: C_11  and  C_12 
REMARK    5  A    between atoms: C_12  and  O_13 
REMARK    6  A    between atoms: O_13  and  C_14 
ROOT
HETATM    1  C   UNL     1      44.995 -11.978   8.953  1.00  0.00     0.034 A 
HETATM    2  C   UNL     1      44.272 -12.965   8.272  1.00  0.00     0.046 A 
HETATM    3  C   UNL     1      44.866 -13.753   7.287  1.00  0.00     0.035 A 
HETATM    4  C   UNL     1      46.180 -13.469   6.903  1.00  0.00     0.029 A 
HETATM    5  C   UNL     1      46.895 -12.443   7.537  1.00  0.00     0.003 A 
HETATM    6  C   UNL     1      46.308 -11.704   8.568  1.00  0.00     0.017 A 
ENDROOT
BRANCH   3   7
HETATM    7  N   UNL     1      44.178 -14.816   6.665  1.00  0.00    -0.325 N 
HETATM    8  C   UNL     1      43.639 -14.786   5.386  1.00  0.00     0.246 C 
HETATM    9  O   UNL     1      43.608 -13.807   4.640  1.00  0.00    -0.271 OA
HETATM   10  H   UNL     1      43.935 -15.626   7.228  1.00  0.00     0.169 HD
BRANCH   8  11
HETATM   11  C   UNL     1      43.101 -16.127   4.900  1.00  0.00     0.278 C 
BRANCH  11  12
HETATM   12  O   UNL     1      43.923 -17.230   5.259  1.00  0.00    -0.342 OA
BRANCH  12  13
HETATM   13  C   UNL     1      44.008 -18.222   4.312  1.00  0.00     0.069 A 
HETATM   14  C   UNL     1      44.599 -19.409   4.748  1.00  0.00     0.037 A 
HETATM   15  C   UNL     1      44.731 -20.495   3.879  1.00  0.00     0.003 A 
HETATM   16  C   UNL     1      44.278 -20.397   2.566  1.00  0.00     0.000 A 
HETATM   17  C   UNL     1      43.697 -19.213   2.120  1.00  0.00     0.003 A 
HETATM   18  C   UNL     1      43.565 -18.126   2.988  1.00  0.00     0.037 A 
ENDBRANCH  12  13
ENDBRANCH  11  12
ENDBRANCH   8  11
ENDBRANCH   3   7
BRANCH   1  19
HETATM   19  C   UNL     1      44.354 -11.210  10.068  1.00  0.00     0.257 C 
HETATM   20  N   UNL     1      43.232 -11.825  10.586  1.00  0.00    -0.307 N 
HETATM   21  H   UNL     1      43.028 -12.766  10.286  1.00  0.00     0.170 HD
HETATM   22  O   UNL     1      44.868 -10.156  10.420  1.00  0.00    -0.267 OA
BRANCH  20  23
HETATM   23  C   UNL     1      42.292 -11.262  11.455  1.00  0.00     0.130 A 
HETATM   24  C   UNL     1      42.763 -10.882  12.713  1.00  0.00     0.057 A 
HETATM   25  C   UNL     1      41.872 -10.384  13.667  1.00  0.00    -0.057 A 
HETATM   26  C   UNL     1      42.353  -9.975  15.025  1.00  0.00     0.048 C 
HETATM   27  C   UNL     1      40.535 -10.242  13.305  1.00  0.00     0.026 A 
HETATM   28  C   UNL     1      40.153 -10.634  12.032  1.00  0.00     0.119 A 
HETATM   29  N   UNL     1      41.000 -11.146  11.113  1.00  0.00    -0.243 NA
ENDBRANCH  20  23
ENDBRANCH   1  19
TORSDOF 6
ENDMDL
MODEL 4
REMARK VINA RESULT:      -8.4      4.814      8.888
REMARK  6 active torsions:
REMARK  status: ('A' for Active; 'I' for Inactive)
REMARK    1  A    between atoms: C_4  and  N_5 
REMARK       I    between atoms: N_5  and  C_6 
REMARK    2  A    between atoms: C_6  and  C_7 
REMARK    3  A    between atoms: C_9  and  N_10 
REMARK       I    between atoms: N_10  and  C_11 
REMARK    4  A    between atoms: C_11  and  C_12 
REMARK    5  A    between atoms: C_12  and  O_13 
REMARK    6  A    between atoms: O_13  and  C_14 
ROOT
HETATM    1  C   UNL     1      40.312 -15.160   2.987  1.00  0.00     0.034 A 
HETATM    2  C   UNL     1      41.068 -16.260   3.411  1.00  0.00     0.046 A 
HETATM    3  C   UNL     1      41.248 -16.542   4.765  1.00  0.00     0.035 A 
HETATM    4  C   UNL     1      40.752 -15.638   5.709  1.00  0.00     0.029 A 
HETATM    5  C   UNL     1      40.043 -14.502   5.295  1.00  0.00     0.003 A 
HETATM    6  C   UNL     1      39.815 -14.266   3.935  1.00  0.00     0.017 A 
ENDROOT
BRANCH   3   7
HETATM    7  N   UNL     1      41.922 -17.701   5.203  1.00  0.00    -0.325 N 
HETATM    8  C   UNL     1      43.189 -17.728   5.769  1.00  0.00     0.246 C 
HETATM    9  O   UNL     1      43.943 -16.764   5.894  1.00  0.00    -0.271 OA
HETATM   10  H   UNL     1      41.519 -18.605   4.977  1.00  0.00     0.169 HD
BRANCH   8  11
HETATM   11  C   UNL     1      43.606 -19.092   6.309  1.00  0.00     0.278 C 
BRANCH  11  12
HETATM   12  O   UNL     1      44.825 -19.572   5.757  1.00  0.00    -0.342 OA
BRANCH  12  13
HETATM   13  C   UNL     1      44.680 -20.463   4.721  1.00  0.00     0.069 A 
HETATM   14  C   UNL     1      44.416 -19.887   3.477  1.00  0.00     0.037 A 
HETATM   15  C   UNL     1      44.262 -20.691   2.344  1.00  0.00     0.003 A 
HETATM   16  C   UNL     1      44.365 -22.076   2.451  1.00  0.00     0.000 A 
HETATM   17  C   UNL     1      44.617 -22.658   3.691  1.00  0.00     0.003 A 
HETATM   18  C   UNL     1      44.771 -21.855   4.824  1.00  0.00     0.037 A 
ENDBRANCH  12  13
ENDBRANCH  11  12
ENDBRANCH   8  11
ENDBRANCH   3   7
BRANCH   1  19
HETATM   19  C   UNL     1      40.062 -14.936   1.527  1.00  0.00     0.257 C 
HETATM   20  N   UNL     1      41.160 -15.201   0.733  1.00  0.00    -0.307 N 
HETATM   21  H   UNL     1      41.959 -15.642   1.164  1.00  0.00     0.170 HD
HETATM   22  O   UNL     1      38.948 -14.570   1.177  1.00  0.00    -0.267 OA
BRANCH  20  23
HETATM   23  C   UNL     1      41.321 -14.870  -0.616  1.00  0.00     0.130 A 
HETATM   24  C   UNL     1      41.903 -13.629  -0.882  1.00  0.00     0.057 A 
HETATM   25  C   UNL     1      42.027 -13.190  -2.202  1.00  0.00    -0.057 A 
HETATM   26  C   UNL     1      42.643 -11.859  -2.512  1.00  0.00     0.048 C 
HETATM   27  C   UNL     1      41.601 -14.039  -3.219  1.00  0.00     0.026 A 
HETATM   28  C   UNL     1      41.044 -15.258  -2.868  1.00  0.00     0.119 A 
HETATM   29  N   UNL     1      40.890 -15.679  -1.594  1.00  0.00    -0.243 NA
ENDBRANCH  20  23
ENDBRANCH   1  19
TORSDOF 6
ENDMDL
MODEL 5
REMARK VINA RESULT:      -8.3      3.983      7.358
REMARK  6 active torsions:
REMARK  status: ('A' for Active; 'I' for Inactive)
REMARK    1  A    between atoms: C_4  and  N_5 
REMARK       I    between atoms: N_5  and  C_6 
REMARK    2  A    between atoms: C_6  and  C_7 
REMARK    3  A    between atoms: C_9  and  N_10 
REMARK       I    between atoms: N_10  and  C_11 
REMARK    4  A    between atoms: C_11  and  C_12 
REMARK    5  A    between atoms: C_12  and  O_13 
REMARK    6  A    between atoms: O_13  and  C_14 
ROOT
HETATM    1  C   UNL     1      43.350 -16.467   5.108  1.00  0.00     0.034 A 
HETATM    2  C   UNL     1      43.016 -15.690   3.992  1.00  0.00     0.046 A 
HETATM    3  C   UNL     1      43.232 -14.312   3.973  1.00  0.00     0.035 A 
HETATM    4  C   UNL     1      43.688 -13.689   5.138  1.00  0.00     0.029 A 
HETATM    5  C   UNL     1      43.970 -14.449   6.281  1.00  0.00     0.003 A 
HETATM    6  C   UNL     1      43.811 -15.838   6.265  1.00  0.00     0.017 A 
ENDROOT
BRANCH   3   7
HETATM    7  N   UNL     1      42.993 -13.534   2.820  1.00  0.00    -0.325 N 
HETATM    8  C   UNL     1      41.789 -12.925   2.497  1.00  0.00     0.246 C 
HETATM    9  O   UNL     1      40.734 -13.039   3.120  1.00  0.00    -0.271 OA
HETATM   10  H   UNL     1      43.706 -13.517   2.097  1.00  0.00     0.169 HD
BRANCH   8  11
HETATM   11  C   UNL     1      41.858 -12.004   1.283  1.00  0.00     0.278 C 
BRANCH  11  12
HETATM   12  O   UNL     1      42.563 -12.568   0.185  1.00  0.00    -0.342 OA
BRANCH  12  13
HETATM   13  C   UNL     1      42.590 -11.790  -0.947  1.00  0.00     0.069 A 
HETATM   14  C   UNL     1      42.986 -10.466  -0.747  1.00  0.00     0.037 A 
HETATM   15  C   UNL     1      43.065  -9.580  -1.825  1.00  0.00     0.003 A 
HETATM   16  C   UNL     1      42.741 -10.012  -3.109  1.00  0.00     0.000 A 
HETATM   17  C   UNL     1      42.334 -11.328  -3.315  1.00  0.00     0.003 A 
HETATM   18  C   UNL     1      42.255 -12.215  -2.237  1.00  0.00     0.037 A 
ENDBRANCH  12  13
ENDBRANCH  11  12
ENDBRANCH   8  11
ENDBRANCH   3   7
BRANCH   1  19
HETATM   19  C   UNL     1      43.191 -17.955   5.063  1.00  0.00     0.257 C 
HETATM   20  N   UNL     1      44.368 -18.628   4.808  1.00  0.00    -0.307 N 
HETATM   21  H   UNL     1      45.227 -18.098   4.816  1.00  0.00     0.170 HD
HETATM   22  O   UNL     1      42.080 -18.428   5.265  1.00  0.00    -0.267 OA
BRANCH  20  23
HETATM   23  C   UNL     1      44.509 -19.979   4.475  1.00  0.00     0.130 A 
HETATM   24  C   UNL     1      44.317 -20.307   3.131  1.00  0.00     0.057 A 
HETATM   25  C   UNL     1      44.362 -21.644   2.730  1.00  0.00    -0.057 A 
HETATM   26  C   UNL     1      44.155 -22.021   1.295  1.00  0.00     0.048 C 
HETATM   27  C   UNL     1      44.646 -22.609   3.692  1.00  0.00     0.026 A 
HETATM   28  C   UNL     1      44.834 -22.197   5.002  1.00  0.00     0.119 A 
HETATM   29  N   UNL     1      44.760 -20.910   5.407  1.00  0.00    -0.243 NA
ENDBRANCH  20  23
ENDBRANCH   1  19
TORSDOF 6
ENDMDL
MODEL 6
REMARK VINA RESULT:      -8.3      2.882      5.215
REMARK  6 active torsions:
REMARK  status: ('A' for Active; 'I' for Inactive)
REMARK    1  A    between atoms: C_4  and  N_5 
REMARK       I    between atoms: N_5  and  C_6 
REMARK    2  A    between atoms: C_6  and  C_7 
REMARK    3  A    between atoms: C_9  and  N_10 
REMARK       I    between atoms: N_10  and  C_11 
REMARK    4  A    between atoms: C_11  and  C_12 
REMARK    5  A    between atoms: C_12  and  O_13 
REMARK    6  A    between atoms: O_13  and  C_14 
ROOT
HETATM    1  C   UNL     1      45.122 -12.727   8.264  1.00  0.00     0.034 A 
HETATM    2  C   UNL     1      44.022 -12.675   9.129  1.00  0.00     0.046 A 
HETATM    3  C   UNL     1      43.984 -11.791  10.207  1.00  0.00     0.035 A 
HETATM    4  C   UNL     1      45.119 -11.024  10.485  1.00  0.00     0.029 A 
HETATM    5  C   UNL     1      46.250 -11.111   9.660  1.00  0.00     0.003 A 
HETATM    6  C   UNL     1      46.249 -11.954   8.545  1.00  0.00     0.017 A 
ENDROOT
BRANCH   3   7
HETATM    7  N   UNL     1      42.842 -11.659  11.024  1.00  0.00    -0.325 N 
HETATM    8  C   UNL     1      41.718 -10.903  10.720  1.00  0.00     0.246 C 
HETATM    9  O   UNL     1      41.585 -10.173   9.738  1.00  0.00    -0.271 OA
HETATM   10  H   UNL     1      42.881 -12.032  11.968  1.00  0.00     0.169 HD
BRANCH   8  11
HETATM   11  C   UNL     1      40.562 -11.075  11.700  1.00  0.00     0.278 C 
BRANCH  11  12
HETATM   12  O   UNL     1      40.983 -11.383  13.022  1.00  0.00    -0.342 OA
BRANCH  12  13
HETATM   13  C   UNL     1      41.256 -10.292  13.811  1.00  0.00     0.069 A 
HETATM   14  C   UNL     1      40.446  -9.177  13.583  1.00  0.00     0.037 A 
HETATM   15  C   UNL     1      40.619  -8.011  14.332  1.00  0.00     0.003 A 
HETATM   16  C   UNL     1      41.608  -7.950  15.311  1.00  0.00     0.000 A 
HETATM   17  C   UNL     1      42.426  -9.054  15.538  1.00  0.00     0.003 A 
HETATM   18  C   UNL     1      42.255 -10.221  14.789  1.00  0.00     0.037 A 
ENDBRANCH  12  13
ENDBRANCH  11  12
ENDBRANCH   8  11
ENDBRANCH   3   7
BRANCH   1  19
HETATM   19  C   UNL     1      45.094 -13.622   7.063  1.00  0.00     0.257 C 
HETATM   20  N   UNL     1      43.986 -14.444   7.015  1.00  0.00    -0.307 N 
HETATM   21  H   UNL     1      43.248 -14.281   7.683  1.00  0.00     0.170 HD
HETATM   22  O   UNL     1      46.009 -13.539   6.254  1.00  0.00    -0.267 OA
BRANCH  20  23
HETATM   23  C   UNL     1      43.788 -15.538   6.167  1.00  0.00     0.130 A 
HETATM   24  C   UNL     1      44.112 -16.792   6.690  1.00  0.00     0.057 A 
HETATM   25  C   UNL     1      44.018 -17.927   5.881  1.00  0.00    -0.057 A 
HETATM   26  C   UNL     1      44.365 -19.282   6.419  1.00  0.00     0.048 C 
HETATM   27  C   UNL     1      43.553 -17.768   4.578  1.00  0.00     0.026 A 
HETATM   28  C   UNL     1      43.244 -16.489   4.142  1.00  0.00     0.119 A 
HETATM   29  N   UNL     1      43.362 -15.381   4.905  1.00  0.00    -0.243 NA
ENDBRANCH  20  23
ENDBRANCH   1  19
TORSDOF 6
ENDMDL
MODEL 7
REMARK VINA RESULT:      -8.3      4.675      8.911
REMARK  6 active torsions:
REMARK  status: ('A' for Active; 'I' for Inactive)
REMARK    1  A    between atoms: C_4  and  N_5 
REMARK       I    between atoms: N_5  and  C_6 
REMARK    2  A    between atoms: C_6  and  C_7 
REMARK    3  A    between atoms: C_9  and  N_10 
REMARK       I    between atoms: N_10  and  C_11 
REMARK    4  A    between atoms: C_11  and  C_12 
REMARK    5  A    between atoms: C_12  and  O_13 
REMARK    6  A    between atoms: O_13  and  C_14 
ROOT
HETATM    1  C   UNL     1      40.417 -14.797   3.280  1.00  0.00     0.034 A 
HETATM    2  C   UNL     1      41.244 -15.901   3.523  1.00  0.00     0.046 A 
HETATM    3  C   UNL     1      41.441 -16.394   4.813  1.00  0.00     0.035 A 
HETATM    4  C   UNL     1      40.885 -15.696   5.889  1.00  0.00     0.029 A 
HETATM    5  C   UNL     1      40.103 -14.555   5.663  1.00  0.00     0.003 A 
HETATM    6  C   UNL     1      39.860 -14.110   4.359  1.00  0.00     0.017 A 
ENDROOT
BRANCH   3   7
HETATM    7  N   UNL     1      42.190 -17.563   5.059  1.00  0.00    -0.325 N 
HETATM    8  C   UNL     1      43.423 -17.609   5.696  1.00  0.00     0.246 C 
HETATM    9  O   UNL     1      44.081 -16.636   6.063  1.00  0.00    -0.271 OA
HETATM   10  H   UNL     1      41.882 -18.430   4.630  1.00  0.00     0.169 HD
BRANCH   8  11
HETATM   11  C   UNL     1      43.928 -19.019   5.983  1.00  0.00     0.278 C 
BRANCH  11  12
HETATM   12  O   UNL     1      44.998 -19.420   5.136  1.00  0.00    -0.342 OA
BRANCH  12  13
HETATM   13  C   UNL     1      44.623 -20.159   4.041  1.00  0.00     0.069 A 
HETATM   14  C   UNL     1      44.849 -21.533   4.147  1.00  0.00     0.037 A 
HETATM   15  C   UNL     1      44.498 -22.391   3.102  1.00  0.00     0.003 A 
HETATM   16  C   UNL     1      43.924 -21.879   1.941  1.00  0.00     0.000 A 
HETATM   17  C   UNL     1      43.705 -20.509   1.823  1.00  0.00     0.003 A 
HETATM   18  C   UNL     1      44.057 -19.650   2.867  1.00  0.00     0.037 A 
ENDBRANCH  12  13
ENDBRANCH  11  12
ENDBRANCH   8  11
ENDBRANCH   3   7
BRANCH   1  19
HETATM   19  C   UNL     1      40.154 -14.348   1.876  1.00  0.00     0.257 C 
HETATM   20  N   UNL     1      41.001 -14.919   0.948  1.00  0.00    -0.307 N 
HETATM   21  H   UNL     1      41.604 -15.667   1.256  1.00  0.00     0.170 HD
HETATM   22  O   UNL     1      39.239 -13.559   1.679  1.00  0.00    -0.267 OA
BRANCH  20  23
HETATM   23  C   UNL     1      41.166 -14.535  -0.387  1.00  0.00     0.130 A 
HETATM   24  C   UNL     1      40.466 -15.283  -1.336  1.00  0.00     0.057 A 
HETATM   25  C   UNL     1      40.639 -15.014  -2.696  1.00  0.00    -0.057 A 
HETATM   26  C   UNL     1      39.903 -15.807  -3.733  1.00  0.00     0.048 C 
HETATM   27  C   UNL     1      41.478 -13.963  -3.056  1.00  0.00     0.026 A 
HETATM   28  C   UNL     1      42.126 -13.265  -2.050  1.00  0.00     0.119 A 
HETATM   29  N   UNL     1      41.992 -13.537  -0.734  1.00  0.00    -0.243 NA
ENDBRANCH  20  23
ENDBRANCH   1  19
TORSDOF 6
ENDMDL
MODEL 8
REMARK VINA RESULT:      -8.2      4.885      8.715
REMARK  6 active torsions:
REMARK  status: ('A' for Active; 'I' for Inactive)
REMARK    1  A    between atoms: C_4  and  N_5 
REMARK       I    between atoms: N_5  and  C_6 
REMARK    2  A    between atoms: C_6  and  C_7 
REMARK    3  A    between atoms: C_9  and  N_10 
REMARK       I    between atoms: N_10  and  C_11 
REMARK    4  A    between atoms: C_11  and  C_12 
REMARK    5  A    between atoms: C_12  and  O_13 
REMARK    6  A    between atoms: O_13  and  C_14 
ROOT
HETATM    1  C   UNL     1      41.361 -16.066   4.485  1.00  0.00     0.034 A 
HETATM    2  C   UNL     1      41.245 -15.744   3.127  1.00  0.00     0.046 A 
HETATM    3  C   UNL     1      40.567 -14.601   2.704  1.00  0.00     0.035 A 
HETATM    4  C   UNL     1      39.899 -13.828   3.658  1.00  0.00     0.029 A 
HETATM    5  C   UNL     1      39.958 -14.173   5.015  1.00  0.00     0.003 A 
HETATM    6  C   UNL     1      40.696 -15.286   5.431  1.00  0.00     0.017 A 
ENDROOT
BRANCH   3   7
HETATM    7  N   UNL     1      40.529 -14.213   1.348  1.00  0.00    -0.325 N 
HETATM    8  C   UNL     1      41.446 -13.378   0.725  1.00  0.00     0.246 C 
HETATM    9  O   UNL     1      42.374 -12.787   1.277  1.00  0.00    -0.271 OA
HETATM   10  H   UNL     1      39.704 -14.449   0.805  1.00  0.00     0.169 HD
BRANCH   8  11
HETATM   11  C   UNL     1      41.265 -13.264  -0.785  1.00  0.00     0.278 C 
BRANCH  11  12
HETATM   12  O   UNL     1      41.376 -14.508  -1.463  1.00  0.00    -0.342 OA
BRANCH  12  13
HETATM   13  C   UNL     1      40.303 -14.832  -2.258  1.00  0.00     0.069 A 
HETATM   14  C   UNL     1      39.143 -14.093  -2.017  1.00  0.00     0.037 A 
HETATM   15  C   UNL     1      37.988 -14.323  -2.771  1.00  0.00     0.003 A 
HETATM   16  C   UNL     1      37.986 -15.297  -3.765  1.00  0.00     0.000 A 
HETATM   17  C   UNL     1      39.136 -16.046  -4.004  1.00  0.00     0.003 A 
HETATM   18  C   UNL     1      40.291 -15.818  -3.250  1.00  0.00     0.037 A 
ENDBRANCH  12  13
ENDBRANCH  11  12
ENDBRANCH   8  11
ENDBRANCH   3   7
BRANCH   1  19
HETATM   19  C   UNL     1      42.172 -17.251   4.911  1.00  0.00     0.257 C 
HETATM   20  N   UNL     1      42.978 -17.756   3.910  1.00  0.00    -0.307 N 
HETATM   21  H   UNL     1      43.061 -17.223   3.057  1.00  0.00     0.170 HD
HETATM   22  O   UNL     1      42.068 -17.643   6.066  1.00  0.00    -0.267 OA
BRANCH  20  23
HETATM   23  C   UNL     1      43.663 -18.975   3.917  1.00  0.00     0.130 A 
HETATM   24  C   UNL     1      43.570 -19.742   2.754  1.00  0.00     0.057 A 
HETATM   25  C   UNL     1      44.161 -21.008   2.710  1.00  0.00    -0.057 A 
HETATM   26  C   UNL     1      44.071 -21.851   1.474  1.00  0.00     0.048 C 
HETATM   27  C   UNL     1      44.868 -21.443   3.827  1.00  0.00     0.026 A 
HETATM   28  C   UNL     1      44.918 -20.614   4.937  1.00  0.00     0.119 A 
HETATM   29  N   UNL     1      44.324 -19.403   5.003  1.00  0.00    -0.243 NA
ENDBRANCH  20  23
ENDBRANCH   1  19
TORSDOF 6
ENDMDL
MODEL 9
REMARK VINA RESULT:      -8.0      3.008      9.907
REMARK  6 active torsions:
REMARK  status: ('A' for Active; 'I' for Inactive)
REMARK    1  A    between atoms: C_4  and  N_5 
REMARK       I    between atoms: N_5  and  C_6 
REMARK    2  A    between atoms: C_6  and  C_7 
REMARK    3  A    between atoms: C_9  and  N_10 
REMARK       I    between atoms: N_10  and  C_11 
REMARK    4  A    between atoms: C_11  and  C_12 
REMARK    5  A    between atoms: C_12  and  O_13 
REMARK    6  A    between atoms: O_13  and  C_14 
ROOT
HETATM    1  C   UNL     1      40.987 -11.286   6.275  1.00  0.00     0.034 A 
HETATM    2  C   UNL     1      41.342 -12.547   5.780  1.00  0.00     0.046 A 
HETATM    3  C   UNL     1      40.597 -13.173   4.781  1.00  0.00     0.035 A 
HETATM    4  C   UNL     1      39.411 -12.571   4.352  1.00  0.00     0.029 A 
HETATM    5  C   UNL     1      39.014 -11.336   4.884  1.00  0.00     0.003 A 
HETATM    6  C   UNL     1      39.805 -10.688   5.838  1.00  0.00     0.017 A 
ENDROOT
BRANCH   3   7
HETATM    7  N   UNL     1      41.001 -14.396   4.204  1.00  0.00    -0.325 N 
HETATM    8  C   UNL     1      40.899 -15.642   4.807  1.00  0.00     0.246 C 
HETATM    9  O   UNL     1      40.524 -15.856   5.960  1.00  0.00    -0.271 OA
HETATM   10  H   UNL     1      41.526 -14.367   3.335  1.00  0.00     0.169 HD
BRANCH   8  11
HETATM   11  C   UNL     1      41.250 -16.812   3.893  1.00  0.00     0.278 C 
BRANCH  11  12
HETATM   12  O   UNL     1      42.597 -16.791   3.439  1.00  0.00    -0.342 OA
BRANCH  12  13
HETATM   13  C   UNL     1      43.199 -18.023   3.359  1.00  0.00     0.069 A 
HETATM   14  C   UNL     1      43.022 -18.693   2.147  1.00  0.00     0.037 A 
HETATM   15  C   UNL     1      43.598 -19.949   1.941  1.00  0.00     0.003 A 
HETATM   16  C   UNL     1      44.351 -20.546   2.949  1.00  0.00     0.000 A 
HETATM   17  C   UNL     1      44.523 -19.889   4.165  1.00  0.00     0.003 A 
HETATM   18  C   UNL     1      43.947 -18.633   4.373  1.00  0.00     0.037 A 
ENDBRANCH  12  13
ENDBRANCH  11  12
ENDBRANCH   8  11
ENDBRANCH   3   7
BRANCH   1  19
HETATM   19  C   UNL     1      41.858 -10.601   7.283  1.00  0.00     0.257 C 
HETATM   20  N   UNL     1      42.524 -11.473   8.119  1.00  0.00    -0.307 N 
HETATM   21  H   UNL     1      42.486 -12.458   7.902  1.00  0.00     0.170 HD
HETATM   22  O   UNL     1      41.915  -9.378   7.266  1.00  0.00    -0.267 OA
BRANCH  20  23
HETATM   23  C   UNL     1      43.213 -11.151   9.293  1.00  0.00     0.130 A 
HETATM   24  C   UNL     1      42.451 -11.098  10.462  1.00  0.00     0.057 A 
HETATM   25  C   UNL     1      43.049 -10.707  11.662  1.00  0.00    -0.057 A 
HETATM   26  C   UNL     1      42.251 -10.638  12.928  1.00  0.00     0.048 C 
HETATM   27  C   UNL     1      44.412 -10.424  11.656  1.00  0.00     0.026 A 
HETATM   28  C   UNL     1      45.096 -10.511  10.453  1.00  0.00     0.119 A 
HETATM   29  N   UNL     1      44.522 -10.857   9.281  1.00  0.00    -0.243 NA
ENDBRANCH  20  23
ENDBRANCH   1  19
TORSDOF 6
ENDMDL
MODEL 10
REMARK VINA RESULT:      -7.9      3.213     10.086
REMARK  6 active torsions:
REMARK  status: ('A' for Active; 'I' for Inactive)
REMARK    1  A    between atoms: C_4  and  N_5 
REMARK       I    between atoms: N_5  and  C_6 
REMARK    2  A    between atoms: C_6  and  C_7 
REMARK    3  A    between atoms: C_9  and  N_10 
REMARK       I    between atoms: N_10  and  C_11 
REMARK    4  A    between atoms: C_11  and  C_12 
REMARK    5  A    between atoms: C_12  and  O_13 
REMARK    6  A    between atoms: O_13  and  C_14 
ROOT
HETATM    1  C   UNL     1      39.822 -11.963   6.310  1.00  0.00     0.034 A 
HETATM    2  C   UNL     1      39.988 -13.328   6.044  1.00  0.00     0.046 A 
HETATM    3  C   UNL     1      39.853 -13.841   4.754  1.00  0.00     0.035 A 
HETATM    4  C   UNL     1      39.434 -12.983   3.733  1.00  0.00     0.029 A 
HETATM    5  C   UNL     1      39.207 -11.626   3.998  1.00  0.00     0.003 A 
HETATM    6  C   UNL     1      39.410 -11.112   5.284  1.00  0.00     0.017 A 
ENDROOT
BRANCH   3   7
HETATM    7  N   UNL     1      40.115 -15.195   4.458  1.00  0.00    -0.325 N 
HETATM    8  C   UNL     1      41.310 -15.691   3.955  1.00  0.00     0.246 C 
HETATM    9  O   UNL     1      42.284 -15.018   3.616  1.00  0.00    -0.271 OA
HETATM   10  H   UNL     1      39.341 -15.851   4.485  1.00  0.00     0.169 HD
BRANCH   8  11
HETATM   11  C   UNL     1      41.380 -17.213   3.890  1.00  0.00     0.278 C 
BRANCH  11  12
HETATM   12  O   UNL     1      42.018 -17.700   2.717  1.00  0.00    -0.342 OA
BRANCH  12  13
HETATM   13  C   UNL     1      42.919 -18.715   2.927  1.00  0.00     0.069 A 
HETATM   14  C   UNL     1      43.574 -18.681   4.160  1.00  0.00     0.037 A 
HETATM   15  C   UNL     1      44.505 -19.668   4.496  1.00  0.00     0.003 A 
HETATM   16  C   UNL     1      44.791 -20.692   3.596  1.00  0.00     0.000 A 
HETATM   17  C   UNL     1      44.150 -20.727   2.360  1.00  0.00     0.003 A 
HETATM   18  C   UNL     1      43.220 -19.740   2.023  1.00  0.00     0.037 A 
ENDBRANCH  12  13
ENDBRANCH  11  12
ENDBRANCH   8  11
ENDBRANCH   3   7
BRANCH   1  19
HETATM   19  C   UNL     1      40.062 -11.430   7.689  1.00  0.00     0.257 C 
HETATM   20  N   UNL     1      41.224 -10.694   7.799  1.00  0.00    -0.307 N 
HETATM   21  H   UNL     1      41.720 -10.463   6.951  1.00  0.00     0.170 HD
HETATM   22  O   UNL     1      39.234 -11.668   8.557  1.00  0.00    -0.267 OA
BRANCH  20  23
HETATM   23  C   UNL     1      41.841 -10.270   8.981  1.00  0.00     0.130 A 
HETATM   24  C   UNL     1      43.066 -10.866   9.286  1.00  0.00     0.057 A 
HETATM   25  C   UNL     1      43.709 -10.555  10.487  1.00  0.00    -0.057 A 
HETATM   26  C   UNL     1      45.022 -11.185  10.838  1.00  0.00     0.048 C 
HETATM   27  C   UNL     1      43.116  -9.615  11.325  1.00  0.00     0.026 A 
HETATM   28  C   UNL     1      41.903  -9.065  10.942  1.00  0.00     0.119 A 
HETATM   29  N   UNL     1      41.257  -9.381   9.799  1.00  0.00    -0.243 NA
ENDBRANCH  20  23
ENDBRANCH   1  19
TORSDOF 6
ENDMDL
