MODEL 1
REMARK VINA RESULT:      -8.5      0.000      0.000
REMARK  5 active torsions:
REMARK  status: ('A' for Active; 'I' for Inactive)
REMARK    1  A    between atoms: N_2  and  C_4 
REMARK    2  A    between atoms: C_4  and  C_5 
REMARK    3  A    between atoms: C_5  and  N_6 
REMARK    4  A    between atoms: C_11  and  C_12 
REMARK    5  A    between atoms: C_15  and  O_16 
ROOT
HETATM    1  N   UNL     1      42.501 -15.762   1.761  1.00  0.00    -0.332 N 
HETATM    2  C   UNL     1      42.793 -16.897   1.024  1.00  0.00     0.279 C 
HETATM    3  O   UNL     1      42.683 -17.002  -0.182  1.00  0.00    -0.265 OA
HETATM    4  C   UNL     1      43.315 -17.897   1.971  1.00  0.00     0.156 A 
HETATM    5  C   UNL     1      43.439 -17.275   3.145  1.00  0.00     0.060 A 
HETATM    6  C   UNL     1      43.100 -15.833   3.094  1.00  0.00     0.161 C 
HETATM    7  O   UNL     1      43.614 -19.196   1.670  1.00  0.00    -0.303 OA
HETATM    8  C   UNL     1      44.021 -19.979   2.730  1.00  0.00     0.090 A 
HETATM    9  C   UNL     1      44.179 -19.475   4.031  1.00  0.00     0.051 A 
HETATM   10  C   UNL     1      43.952 -18.032   4.280  1.00  0.00     0.196 A 
HETATM   11  O   UNL     1      44.204 -17.497   5.348  1.00  0.00    -0.287 OA
HETATM   12  C   UNL     1      44.275 -21.324   2.462  1.00  0.00     0.041 A 
HETATM   13  C   UNL     1      44.664 -22.169   3.503  1.00  0.00     0.045 A 
HETATM   14  C   UNL     1      44.793 -21.662   4.796  1.00  0.00     0.117 A 
HETATM   15  F   UNL     1      45.154 -22.486   5.788  1.00  0.00    -0.206 F 
HETATM   16  C   UNL     1      44.559 -20.321   5.074  1.00  0.00     0.060 A 
ENDROOT
BRANCH   6  17
HETATM   17  C   UNL     1      42.242 -15.244   4.183  1.00  0.00    -0.030 A 
HETATM   18  C   UNL     1      42.598 -13.994   4.727  1.00  0.00     0.012 A 
HETATM   19  C   UNL     1      41.803 -13.375   5.693  1.00  0.00     0.037 A 
HETATM   20  C   UNL     1      40.646 -14.008   6.122  1.00  0.00     0.065 A 
HETATM   21  C   UNL     1      40.279 -15.247   5.609  1.00  0.00     0.037 A 
HETATM   22  C   UNL     1      41.075 -15.869   4.645  1.00  0.00     0.012 A 
BRANCH  20  23
HETATM   23  O   UNL     1      39.831 -13.439   7.054  1.00  0.00    -0.361 OA
HETATM   24  H   UNL     1      39.330 -12.716   6.641  1.00  0.00     0.217 HD
ENDBRANCH  20  23
ENDBRANCH   6  17
BRANCH   1  25
HETATM   25  C   UNL     1      41.718 -14.642   1.242  1.00  0.00     0.155 C 
BRANCH  25  26
HETATM   26  C   UNL     1      40.221 -14.932   1.096  1.00  0.00     0.254 C 
BRANCH  26  27
HETATM   27  N   UNL     1      39.733 -14.722  -0.325  1.00  0.00    -0.077 N 
HETATM   28  C   UNL     1      40.825 -14.200  -1.214  1.00  0.00     0.269 C 
HETATM   29  H   UNL     1      39.436 -15.643  -0.688  1.00  0.00     0.279 HD
HETATM   30  C   UNL     1      38.498 -13.864  -0.417  1.00  0.00     0.269 C 
ENDBRANCH  26  27
ENDBRANCH  25  26
ENDBRANCH   1  25
TORSDOF 5
ENDMDL
MODEL 2
REMARK VINA RESULT:      -8.2      2.288      4.898
REMARK  5 active torsions:
REMARK  status: ('A' for Active; 'I' for Inactive)
REMARK    1  A    between atoms: N_2  and  C_4 
REMARK    2  A    between atoms: C_4  and  C_5 
REMARK    3  A    between atoms: C_5  and  N_6 
REMARK    4  A    between atoms: C_11  and  C_12 
REMARK    5  A    between atoms: C_15  and  O_16 
ROOT
HETATM    1  N   UNL     1      41.186 -14.706   4.095  1.00  0.00    -0.332 N 
HETATM    2  C   UNL     1      42.026 -15.409   4.940  1.00  0.00     0.279 C 
HETATM    3  O   UNL     1      42.349 -15.064   6.060  1.00  0.00    -0.265 OA
HETATM    4  C   UNL     1      42.379 -16.660   4.246  1.00  0.00     0.156 A 
HETATM    5  C   UNL     1      41.639 -16.696   3.136  1.00  0.00     0.060 A 
HETATM    6  C   UNL     1      40.696 -15.558   3.011  1.00  0.00     0.161 C 
HETATM    7  O   UNL     1      43.282 -17.585   4.687  1.00  0.00    -0.303 OA
HETATM    8  C   UNL     1      43.513 -18.649   3.841  1.00  0.00     0.090 A 
HETATM    9  C   UNL     1      42.830 -18.816   2.626  1.00  0.00     0.051 A 
HETATM   10  C   UNL     1      41.776 -17.844   2.249  1.00  0.00     0.196 A 
HETATM   11  O   UNL     1      41.047 -17.999   1.282  1.00  0.00    -0.287 OA
HETATM   12  C   UNL     1      44.475 -19.577   4.239  1.00  0.00     0.041 A 
HETATM   13  C   UNL     1      44.769 -20.660   3.407  1.00  0.00     0.045 A 
HETATM   14  C   UNL     1      44.101 -20.801   2.191  1.00  0.00     0.117 A 
HETATM   15  F   UNL     1      44.401 -21.836   1.397  1.00  0.00    -0.206 F 
HETATM   16  C   UNL     1      43.129 -19.892   1.790  1.00  0.00     0.060 A 
ENDROOT
BRANCH   6  17
HETATM   17  C   UNL     1      40.572 -14.854   1.685  1.00  0.00    -0.030 A 
HETATM   18  C   UNL     1      41.746 -14.543   0.970  1.00  0.00     0.012 A 
HETATM   19  C   UNL     1      41.684 -13.949  -0.292  1.00  0.00     0.037 A 
HETATM   20  C   UNL     1      40.444 -13.659  -0.843  1.00  0.00     0.065 A 
HETATM   21  C   UNL     1      39.272 -13.947  -0.151  1.00  0.00     0.037 A 
HETATM   22  C   UNL     1      39.333 -14.539   1.113  1.00  0.00     0.012 A 
BRANCH  20  23
HETATM   23  O   UNL     1      40.332 -13.091  -2.075  1.00  0.00    -0.361 OA
HETATM   24  H   UNL     1      39.875 -12.237  -1.992  1.00  0.00     0.217 HD
ENDBRANCH  20  23
ENDBRANCH   6  17
BRANCH   1  25
HETATM   25  C   UNL     1      40.828 -13.303   4.297  1.00  0.00     0.155 C 
BRANCH  25  26
HETATM   26  C   UNL     1      39.786 -13.069   5.394  1.00  0.00     0.254 C 
BRANCH  26  27
HETATM   27  N   UNL     1      40.414 -12.575   6.684  1.00  0.00    -0.077 N 
HETATM   28  C   UNL     1      39.396 -11.940   7.587  1.00  0.00     0.269 C 
HETATM   29  H   UNL     1      40.805 -13.398   7.171  1.00  0.00     0.279 HD
HETATM   30  C   UNL     1      41.596 -11.667   6.471  1.00  0.00     0.269 C 
ENDBRANCH  26  27
ENDBRANCH  25  26
ENDBRANCH   1  25
TORSDOF 5
ENDMDL
MODEL 3
REMARK VINA RESULT:      -8.0      2.535      4.950
REMARK  5 active torsions:
REMARK  status: ('A' for Active; 'I' for Inactive)
REMARK    1  A    between atoms: N_2  and  C_4 
REMARK    2  A    between atoms: C_4  and  C_5 
REMARK    3  A    between atoms: C_5  and  N_6 
REMARK    4  A    between atoms: C_11  and  C_12 
REMARK    5  A    between atoms: C_15  and  O_16 
ROOT
HETATM    1  N   UNL     1      41.885 -15.368   5.454  1.00  0.00    -0.332 N 
HETATM    2  C   UNL     1      42.657 -16.339   6.068  1.00  0.00     0.279 C 
HETATM    3  O   UNL     1      43.030 -16.313   7.224  1.00  0.00    -0.265 OA
HETATM    4  C   UNL     1      42.867 -17.407   5.076  1.00  0.00     0.156 A 
HETATM    5  C   UNL     1      42.113 -17.095   4.021  1.00  0.00     0.060 A 
HETATM    6  C   UNL     1      41.294 -15.874   4.214  1.00  0.00     0.161 C 
HETATM    7  O   UNL     1      43.674 -18.497   5.243  1.00  0.00    -0.303 OA
HETATM    8  C   UNL     1      43.780 -19.336   4.154  1.00  0.00     0.090 A 
HETATM    9  C   UNL     1      43.067 -19.130   2.962  1.00  0.00     0.051 A 
HETATM   10  C   UNL     1      42.116 -17.996   2.876  1.00  0.00     0.196 A 
HETATM   11  O   UNL     1      41.362 -17.835   1.929  1.00  0.00    -0.287 OA
HETATM   12  C   UNL     1      44.644 -20.425   4.275  1.00  0.00     0.041 A 
HETATM   13  C   UNL     1      44.811 -21.292   3.194  1.00  0.00     0.045 A 
HETATM   14  C   UNL     1      44.116 -21.062   2.007  1.00  0.00     0.117 A 
HETATM   15  F   UNL     1      44.295 -21.893   0.973  1.00  0.00    -0.206 F 
HETATM   16  C   UNL     1      43.240 -19.991   1.878  1.00  0.00     0.060 A 
ENDROOT
BRANCH   6  17
HETATM   17  C   UNL     1      41.226 -14.856   3.106  1.00  0.00    -0.030 A 
HETATM   18  C   UNL     1      39.962 -14.410   2.671  1.00  0.00     0.012 A 
HETATM   19  C   UNL     1      39.845 -13.421   1.693  1.00  0.00     0.037 A 
HETATM   20  C   UNL     1      40.995 -12.875   1.142  1.00  0.00     0.065 A 
HETATM   21  C   UNL     1      42.254 -13.307   1.548  1.00  0.00     0.037 A 
HETATM   22  C   UNL     1      42.373 -14.298   2.524  1.00  0.00     0.012 A 
BRANCH  20  23
HETATM   23  O   UNL     1      40.933 -11.900   0.193  1.00  0.00    -0.361 OA
HETATM   24  H   UNL     1      40.278 -12.150  -0.479  1.00  0.00     0.217 HD
ENDBRANCH  20  23
ENDBRANCH   6  17
BRANCH   1  25
HETATM   25  C   UNL     1      41.679 -14.030   6.005  1.00  0.00     0.155 C 
BRANCH  25  26
HETATM   26  C   UNL     1      42.938 -13.158   6.031  1.00  0.00     0.254 C 
BRANCH  26  27
HETATM   27  N   UNL     1      43.656 -13.227   7.366  1.00  0.00    -0.077 N 
HETATM   28  C   UNL     1      43.531 -11.940   8.128  1.00  0.00     0.269 C 
HETATM   29  H   UNL     1      43.204 -13.973   7.920  1.00  0.00     0.279 HD
HETATM   30  C   UNL     1      45.095 -13.659   7.255  1.00  0.00     0.269 C 
ENDBRANCH  26  27
ENDBRANCH  25  26
ENDBRANCH   1  25
TORSDOF 5
ENDMDL
MODEL 4
REMARK VINA RESULT:      -7.9      3.307      7.492
REMARK  5 active torsions:
REMARK  status: ('A' for Active; 'I' for Inactive)
REMARK    1  A    between atoms: N_2  and  C_4 
REMARK    2  A    between atoms: C_4  and  C_5 
REMARK    3  A    between atoms: C_5  and  N_6 
REMARK    4  A    between atoms: C_11  and  C_12 
REMARK    5  A    between atoms: C_15  and  O_16 
ROOT
HETATM    1  N   UNL     1      42.040 -17.285   4.652  1.00  0.00    -0.332 N 
HETATM    2  C   UNL     1      41.035 -16.341   4.532  1.00  0.00     0.279 C 
HETATM    3  O   UNL     1      40.372 -15.899   5.449  1.00  0.00    -0.265 OA
HETATM    4  C   UNL     1      40.986 -15.949   3.113  1.00  0.00     0.156 A 
HETATM    5  C   UNL     1      42.023 -16.545   2.522  1.00  0.00     0.060 A 
HETATM    6  C   UNL     1      42.884 -17.309   3.456  1.00  0.00     0.161 C 
HETATM    7  O   UNL     1      40.055 -15.123   2.549  1.00  0.00    -0.303 OA
HETATM    8  C   UNL     1      40.156 -14.948   1.185  1.00  0.00     0.090 A 
HETATM    9  C   UNL     1      41.179 -15.528   0.418  1.00  0.00     0.051 A 
HETATM   10  C   UNL     1      42.231 -16.322   1.096  1.00  0.00     0.196 A 
HETATM   11  O   UNL     1      43.223 -16.738   0.519  1.00  0.00    -0.287 OA
HETATM   12  C   UNL     1      39.182 -14.158   0.574  1.00  0.00     0.041 A 
HETATM   13  C   UNL     1      39.220 -13.969  -0.809  1.00  0.00     0.045 A 
HETATM   14  C   UNL     1      40.227 -14.572  -1.564  1.00  0.00     0.117 A 
HETATM   15  F   UNL     1      40.244 -14.394  -2.890  1.00  0.00    -0.206 F 
HETATM   16  C   UNL     1      41.212 -15.348  -0.966  1.00  0.00     0.060 A 
ENDROOT
BRANCH   6  17
HETATM   17  C   UNL     1      43.350 -18.686   3.062  1.00  0.00    -0.030 A 
HETATM   18  C   UNL     1      44.488 -19.224   3.695  1.00  0.00     0.012 A 
HETATM   19  C   UNL     1      44.924 -20.520   3.413  1.00  0.00     0.037 A 
HETATM   20  C   UNL     1      44.223 -21.283   2.491  1.00  0.00     0.065 A 
HETATM   21  C   UNL     1      43.103 -20.770   1.845  1.00  0.00     0.037 A 
HETATM   22  C   UNL     1      42.668 -19.473   2.124  1.00  0.00     0.012 A 
BRANCH  20  23
HETATM   23  O   UNL     1      44.602 -22.557   2.191  1.00  0.00    -0.361 OA
HETATM   24  H   UNL     1      44.451 -23.125   2.964  1.00  0.00     0.217 HD
ENDBRANCH  20  23
ENDBRANCH   6  17
BRANCH   1  25
HETATM   25  C   UNL     1      42.229 -18.117   5.839  1.00  0.00     0.155 C 
BRANCH  25  26
HETATM   26  C   UNL     1      43.008 -17.437   6.968  1.00  0.00     0.254 C 
BRANCH  26  27
HETATM   27  N   UNL     1      44.156 -18.292   7.469  1.00  0.00    -0.077 N 
HETATM   28  C   UNL     1      45.434 -17.982   6.743  1.00  0.00     0.269 C 
HETATM   29  H   UNL     1      44.293 -18.069   8.468  1.00  0.00     0.279 HD
HETATM   30  C   UNL     1      43.862 -19.769   7.449  1.00  0.00     0.269 C 
ENDBRANCH  26  27
ENDBRANCH  25  26
ENDBRANCH   1  25
TORSDOF 5
ENDMDL
MODEL 5
REMARK VINA RESULT:      -7.2      3.375      6.627
REMARK  5 active torsions:
REMARK  status: ('A' for Active; 'I' for Inactive)
REMARK    1  A    between atoms: N_2  and  C_4 
REMARK    2  A    between atoms: C_4  and  C_5 
REMARK    3  A    between atoms: C_5  and  N_6 
REMARK    4  A    between atoms: C_11  and  C_12 
REMARK    5  A    between atoms: C_15  and  O_16 
ROOT
HETATM    1  N   UNL     1      43.321 -17.733   2.916  1.00  0.00    -0.332 N 
HETATM    2  C   UNL     1      43.091 -17.670   1.552  1.00  0.00     0.279 C 
HETATM    3  O   UNL     1      43.608 -18.387   0.718  1.00  0.00    -0.265 OA
HETATM    4  C   UNL     1      42.070 -16.631   1.339  1.00  0.00     0.156 A 
HETATM    5  C   UNL     1      41.657 -16.255   2.551  1.00  0.00     0.060 A 
HETATM    6  C   UNL     1      42.278 -17.022   3.657  1.00  0.00     0.161 C 
HETATM    7  O   UNL     1      41.643 -16.174   0.124  1.00  0.00    -0.303 OA
HETATM    8  C   UNL     1      40.729 -15.142   0.159  1.00  0.00     0.090 A 
HETATM    9  C   UNL     1      40.216 -14.620   1.357  1.00  0.00     0.051 A 
HETATM   10  C   UNL     1      40.625 -15.230   2.645  1.00  0.00     0.196 A 
HETATM   11  O   UNL     1      40.117 -14.925   3.712  1.00  0.00    -0.287 OA
HETATM   12  C   UNL     1      40.322 -14.616  -1.067  1.00  0.00     0.041 A 
HETATM   13  C   UNL     1      39.419 -13.551  -1.091  1.00  0.00     0.045 A 
HETATM   14  C   UNL     1      38.935 -13.025   0.107  1.00  0.00     0.117 A 
HETATM   15  F   UNL     1      38.080 -11.997   0.071  1.00  0.00    -0.206 F 
HETATM   16  C   UNL     1      39.320 -13.551   1.335  1.00  0.00     0.060 A 
ENDROOT
BRANCH   6  17
HETATM   17  C   UNL     1      42.782 -16.283   4.868  1.00  0.00    -0.030 A 
HETATM   18  C   UNL     1      42.626 -16.874   6.138  1.00  0.00     0.012 A 
HETATM   19  C   UNL     1      43.133 -16.261   7.285  1.00  0.00     0.037 A 
HETATM   20  C   UNL     1      43.795 -15.048   7.167  1.00  0.00     0.065 A 
HETATM   21  C   UNL     1      43.951 -14.439   5.926  1.00  0.00     0.037 A 
HETATM   22  C   UNL     1      43.443 -15.050   4.778  1.00  0.00     0.012 A 
BRANCH  20  23
HETATM   23  O   UNL     1      44.317 -14.416   8.255  1.00  0.00    -0.361 OA
HETATM   24  H   UNL     1      44.704 -15.078   8.853  1.00  0.00     0.217 HD
ENDBRANCH  20  23
ENDBRANCH   6  17
BRANCH   1  25
HETATM   25  C   UNL     1      44.448 -18.445   3.513  1.00  0.00     0.155 C 
BRANCH  25  26
HETATM   26  C   UNL     1      44.059 -19.708   4.287  1.00  0.00     0.254 C 
BRANCH  26  27
HETATM   27  N   UNL     1      44.860 -20.919   3.848  1.00  0.00    -0.077 N 
HETATM   28  C   UNL     1      44.383 -21.448   2.527  1.00  0.00     0.269 C 
HETATM   29  H   UNL     1      45.841 -20.616   3.737  1.00  0.00     0.279 HD
HETATM   30  C   UNL     1      44.917 -22.011   4.884  1.00  0.00     0.269 C 
ENDBRANCH  26  27
ENDBRANCH  25  26
ENDBRANCH   1  25
TORSDOF 5
ENDMDL
MODEL 6
REMARK VINA RESULT:      -7.2      3.434      6.768
REMARK  5 active torsions:
REMARK  status: ('A' for Active; 'I' for Inactive)
REMARK    1  A    between atoms: N_2  and  C_4 
REMARK    2  A    between atoms: C_4  and  C_5 
REMARK    3  A    between atoms: C_5  and  N_6 
REMARK    4  A    between atoms: C_11  and  C_12 
REMARK    5  A    between atoms: C_15  and  O_16 
ROOT
HETATM    1  N   UNL     1      41.290 -16.894   2.909  1.00  0.00    -0.332 N 
HETATM    2  C   UNL     1      41.537 -17.389   1.640  1.00  0.00     0.279 C 
HETATM    3  O   UNL     1      41.948 -18.504   1.387  1.00  0.00    -0.265 OA
HETATM    4  C   UNL     1      41.145 -16.335   0.688  1.00  0.00     0.156 A 
HETATM    5  C   UNL     1      40.569 -15.372   1.410  1.00  0.00     0.060 A 
HETATM    6  C   UNL     1      40.452 -15.696   2.852  1.00  0.00     0.161 C 
HETATM    7  O   UNL     1      41.336 -16.375  -0.664  1.00  0.00    -0.303 OA
HETATM    8  C   UNL     1      40.957 -15.245  -1.357  1.00  0.00     0.090 A 
HETATM    9  C   UNL     1      40.358 -14.137  -0.736  1.00  0.00     0.051 A 
HETATM   10  C   UNL     1      40.067 -14.192   0.716  1.00  0.00     0.196 A 
HETATM   11  O   UNL     1      39.425 -13.331   1.296  1.00  0.00    -0.287 OA
HETATM   12  C   UNL     1      41.197 -15.235  -2.731  1.00  0.00     0.041 A 
HETATM   13  C   UNL     1      40.858 -14.105  -3.479  1.00  0.00     0.045 A 
HETATM   14  C   UNL     1      40.286 -13.001  -2.846  1.00  0.00     0.117 A 
HETATM   15  F   UNL     1      39.978 -11.919  -3.571  1.00  0.00    -0.206 F 
HETATM   16  C   UNL     1      40.028 -13.004  -1.481  1.00  0.00     0.060 A 
ENDROOT
BRANCH   6  17
HETATM   17  C   UNL     1      40.813 -14.646   3.869  1.00  0.00    -0.030 A 
HETATM   18  C   UNL     1      39.924 -14.398   4.933  1.00  0.00     0.012 A 
HETATM   19  C   UNL     1      40.240 -13.481   5.938  1.00  0.00     0.037 A 
HETATM   20  C   UNL     1      41.449 -12.805   5.880  1.00  0.00     0.065 A 
HETATM   21  C   UNL     1      42.339 -13.025   4.833  1.00  0.00     0.037 A 
HETATM   22  C   UNL     1      42.023 -13.939   3.826  1.00  0.00     0.012 A 
BRANCH  20  23
HETATM   23  O   UNL     1      41.808 -11.910   6.842  1.00  0.00    -0.361 OA
HETATM   24  H   UNL     1      41.015 -11.630   7.329  1.00  0.00     0.217 HD
ENDBRANCH  20  23
ENDBRANCH   6  17
BRANCH   1  25
HETATM   25  C   UNL     1      41.788 -17.522   4.131  1.00  0.00     0.155 C 
BRANCH  25  26
HETATM   26  C   UNL     1      43.308 -17.451   4.302  1.00  0.00     0.254 C 
BRANCH  26  27
HETATM   27  N   UNL     1      43.885 -18.745   4.844  1.00  0.00    -0.077 N 
HETATM   28  C   UNL     1      44.985 -18.489   5.833  1.00  0.00     0.269 C 
HETATM   29  H   UNL     1      43.122 -19.241   5.335  1.00  0.00     0.279 HD
HETATM   30  C   UNL     1      44.329 -19.704   3.771  1.00  0.00     0.269 C 
ENDBRANCH  26  27
ENDBRANCH  25  26
ENDBRANCH   1  25
TORSDOF 5
ENDMDL
MODEL 7
REMARK VINA RESULT:      -7.1      2.576      5.122
REMARK  5 active torsions:
REMARK  status: ('A' for Active; 'I' for Inactive)
REMARK    1  A    between atoms: N_2  and  C_4 
REMARK    2  A    between atoms: C_4  and  C_5 
REMARK    3  A    between atoms: C_5  and  N_6 
REMARK    4  A    between atoms: C_11  and  C_12 
REMARK    5  A    between atoms: C_15  and  O_16 
ROOT
HETATM    1  N   UNL     1      41.270 -13.280   4.500  1.00  0.00    -0.332 N 
HETATM    2  C   UNL     1      42.213 -13.612   5.457  1.00  0.00     0.279 C 
HETATM    3  O   UNL     1      42.615 -12.875   6.336  1.00  0.00    -0.265 OA
HETATM    4  C   UNL     1      42.567 -15.024   5.234  1.00  0.00     0.156 A 
HETATM    5  C   UNL     1      41.737 -15.476   4.292  1.00  0.00     0.060 A 
HETATM    6  C   UNL     1      40.732 -14.478   3.854  1.00  0.00     0.161 C 
HETATM    7  O   UNL     1      43.550 -15.709   5.891  1.00  0.00    -0.303 OA
HETATM    8  C   UNL     1      43.759 -17.006   5.471  1.00  0.00     0.090 A 
HETATM    9  C   UNL     1      42.984 -17.618   4.473  1.00  0.00     0.051 A 
HETATM   10  C   UNL     1      41.854 -16.867   3.874  1.00  0.00     0.196 A 
HETATM   11  O   UNL     1      41.054 -17.377   3.107  1.00  0.00    -0.287 OA
HETATM   12  C   UNL     1      44.797 -17.710   6.083  1.00  0.00     0.041 A 
HETATM   13  C   UNL     1      45.072 -19.018   5.678  1.00  0.00     0.045 A 
HETATM   14  C   UNL     1      44.310 -19.605   4.668  1.00  0.00     0.117 A 
HETATM   15  F   UNL     1      44.591 -20.854   4.280  1.00  0.00    -0.206 F 
HETATM   16  C   UNL     1      43.263 -18.921   4.062  1.00  0.00     0.060 A 
ENDROOT
BRANCH   6  17
HETATM   17  C   UNL     1      40.460 -14.311   2.383  1.00  0.00    -0.030 A 
HETATM   18  C   UNL     1      39.123 -14.320   1.935  1.00  0.00     0.012 A 
HETATM   19  C   UNL     1      38.813 -14.106   0.591  1.00  0.00     0.037 A 
HETATM   20  C   UNL     1      39.840 -13.885  -0.314  1.00  0.00     0.065 A 
HETATM   21  C   UNL     1      41.168 -13.882   0.102  1.00  0.00     0.037 A 
HETATM   22  C   UNL     1      41.480 -14.099   1.446  1.00  0.00     0.012 A 
BRANCH  20  23
HETATM   23  O   UNL     1      39.587 -13.659  -1.633  1.00  0.00    -0.361 OA
HETATM   24  H   UNL     1      39.160 -14.444  -2.015  1.00  0.00     0.217 HD
ENDBRANCH  20  23
ENDBRANCH   6  17
BRANCH   1  25
HETATM   25  C   UNL     1      40.862 -11.906   4.211  1.00  0.00     0.155 C 
BRANCH  25  26
HETATM   26  C   UNL     1      39.514 -11.507   4.820  1.00  0.00     0.254 C 
BRANCH  26  27
HETATM   27  N   UNL     1      39.677 -10.637   6.052  1.00  0.00    -0.077 N 
HETATM   28  C   UNL     1      40.927  -9.809   5.983  1.00  0.00     0.269 C 
HETATM   29  H   UNL     1      38.868  -9.995   6.084  1.00  0.00     0.279 HD
HETATM   30  C   UNL     1      39.601 -11.404   7.346  1.00  0.00     0.269 C 
ENDBRANCH  26  27
ENDBRANCH  25  26
ENDBRANCH   1  25
TORSDOF 5
ENDMDL
MODEL 8
REMARK VINA RESULT:      -7.1      3.706      6.865
REMARK  5 active torsions:
REMARK  status: ('A' for Active; 'I' for Inactive)
REMARK    1  A    between atoms: N_2  and  C_4 
REMARK    2  A    between atoms: C_4  and  C_5 
REMARK    3  A    between atoms: C_5  and  N_6 
REMARK    4  A    between atoms: C_11  and  C_12 
REMARK    5  A    between atoms: C_15  and  O_16 
ROOT
HETATM    1  N   UNL     1      42.634 -17.075   2.678  1.00  0.00    -0.332 N 
HETATM    2  C   UNL     1      42.412 -16.339   1.528  1.00  0.00     0.279 C 
HETATM    3  O   UNL     1      42.850 -16.605   0.426  1.00  0.00    -0.265 OA
HETATM    4  C   UNL     1      41.505 -15.238   1.895  1.00  0.00     0.156 A 
HETATM    5  C   UNL     1      41.135 -15.460   3.157  1.00  0.00     0.060 A 
HETATM    6  C   UNL     1      41.672 -16.721   3.723  1.00  0.00     0.161 C 
HETATM    7  O   UNL     1      41.128 -14.213   1.074  1.00  0.00    -0.303 OA
HETATM    8  C   UNL     1      40.328 -13.248   1.648  1.00  0.00     0.090 A 
HETATM    9  C   UNL     1      39.873 -13.328   2.974  1.00  0.00     0.051 A 
HETATM   10  C   UNL     1      40.216 -14.519   3.786  1.00  0.00     0.196 A 
HETATM   11  O   UNL     1      39.744 -14.725   4.893  1.00  0.00    -0.287 OA
HETATM   12  C   UNL     1      39.977 -12.159   0.850  1.00  0.00     0.041 A 
HETATM   13  C   UNL     1      39.190 -11.138   1.389  1.00  0.00     0.045 A 
HETATM   14  C   UNL     1      38.766 -11.217   2.715  1.00  0.00     0.117 A 
HETATM   15  F   UNL     1      38.023 -10.227   3.224  1.00  0.00    -0.206 F 
HETATM   16  C   UNL     1      39.094 -12.304   3.516  1.00  0.00     0.060 A 
ENDROOT
BRANCH   6  17
HETATM   17  C   UNL     1      42.252 -16.710   5.113  1.00  0.00    -0.030 A 
HETATM   18  C   UNL     1      43.152 -15.685   5.464  1.00  0.00     0.012 A 
HETATM   19  C   UNL     1      43.669 -15.592   6.758  1.00  0.00     0.037 A 
HETATM   20  C   UNL     1      43.289 -16.529   7.706  1.00  0.00     0.065 A 
HETATM   21  C   UNL     1      42.410 -17.557   7.381  1.00  0.00     0.037 A 
HETATM   22  C   UNL     1      41.895 -17.653   6.086  1.00  0.00     0.012 A 
BRANCH  20  23
HETATM   23  O   UNL     1      43.756 -16.474   8.985  1.00  0.00    -0.361 OA
HETATM   24  H   UNL     1      44.291 -17.266   9.163  1.00  0.00     0.217 HD
ENDBRANCH  20  23
ENDBRANCH   6  17
BRANCH   1  25
HETATM   25  C   UNL     1      43.682 -18.087   2.800  1.00  0.00     0.155 C 
BRANCH  25  26
HETATM   26  C   UNL     1      43.270 -19.482   2.320  1.00  0.00     0.254 C 
BRANCH  26  27
HETATM   27  N   UNL     1      44.380 -20.500   2.496  1.00  0.00    -0.077 N 
HETATM   28  C   UNL     1      44.022 -21.822   1.881  1.00  0.00     0.269 C 
HETATM   29  H   UNL     1      45.214 -20.134   2.008  1.00  0.00     0.279 HD
HETATM   30  C   UNL     1      44.824 -20.667   3.926  1.00  0.00     0.269 C 
ENDBRANCH  26  27
ENDBRANCH  25  26
ENDBRANCH   1  25
TORSDOF 5
ENDMDL
MODEL 9
REMARK VINA RESULT:      -6.9      3.597      7.827
REMARK  5 active torsions:
REMARK  status: ('A' for Active; 'I' for Inactive)
REMARK    1  A    between atoms: N_2  and  C_4 
REMARK    2  A    between atoms: C_4  and  C_5 
REMARK    3  A    between atoms: C_5  and  N_6 
REMARK    4  A    between atoms: C_11  and  C_12 
REMARK    5  A    between atoms: C_15  and  O_16 
ROOT
HETATM    1  N   UNL     1      42.373 -14.625   4.169  1.00  0.00    -0.332 N 
HETATM    2  C   UNL     1      41.381 -13.668   4.299  1.00  0.00     0.279 C 
HETATM    3  O   UNL     1      41.170 -13.003   5.294  1.00  0.00    -0.265 OA
HETATM    4  C   UNL     1      40.700 -13.581   2.995  1.00  0.00     0.156 A 
HETATM    5  C   UNL     1      41.396 -14.351   2.156  1.00  0.00     0.060 A 
HETATM    6  C   UNL     1      42.608 -14.951   2.762  1.00  0.00     0.161 C 
HETATM    7  O   UNL     1      39.585 -12.838   2.730  1.00  0.00    -0.303 OA
HETATM    8  C   UNL     1      39.072 -12.961   1.456  1.00  0.00     0.090 A 
HETATM    9  C   UNL     1      39.677 -13.751   0.465  1.00  0.00     0.051 A 
HETATM   10  C   UNL     1      40.950 -14.445   0.771  1.00  0.00     0.196 A 
HETATM   11  O   UNL     1      41.604 -15.033  -0.076  1.00  0.00    -0.287 OA
HETATM   12  C   UNL     1      37.899 -12.259   1.175  1.00  0.00     0.041 A 
HETATM   13  C   UNL     1      37.320 -12.369  -0.090  1.00  0.00     0.045 A 
HETATM   14  C   UNL     1      37.917 -13.177  -1.058  1.00  0.00     0.117 A 
HETATM   15  F   UNL     1      37.344 -13.284  -2.263  1.00  0.00    -0.206 F 
HETATM   16  C   UNL     1      39.094 -13.868  -0.797  1.00  0.00     0.060 A 
ENDROOT
BRANCH   6  17
HETATM   17  C   UNL     1      42.907 -16.406   2.512  1.00  0.00    -0.030 A 
HETATM   18  C   UNL     1      41.914 -17.362   2.802  1.00  0.00     0.012 A 
HETATM   19  C   UNL     1      42.116 -18.716   2.529  1.00  0.00     0.037 A 
HETATM   20  C   UNL     1      43.318 -19.120   1.966  1.00  0.00     0.065 A 
HETATM   21  C   UNL     1      44.318 -18.196   1.681  1.00  0.00     0.037 A 
HETATM   22  C   UNL     1      44.118 -16.842   1.956  1.00  0.00     0.012 A 
BRANCH  20  23
HETATM   23  O   UNL     1      43.558 -20.428   1.671  1.00  0.00    -0.361 OA
HETATM   24  H   UNL     1      42.760 -20.818   1.276  1.00  0.00     0.217 HD
ENDBRANCH  20  23
ENDBRANCH   6  17
BRANCH   1  25
HETATM   25  C   UNL     1      43.095 -15.197   5.304  1.00  0.00     0.155 C 
BRANCH  25  26
HETATM   26  C   UNL     1      42.232 -16.056   6.233  1.00  0.00     0.254 C 
BRANCH  26  27
HETATM   27  N   UNL     1      42.938 -17.331   6.655  1.00  0.00    -0.077 N 
HETATM   28  C   UNL     1      43.289 -17.312   8.114  1.00  0.00     0.269 C 
HETATM   29  H   UNL     1      42.284 -18.114   6.493  1.00  0.00     0.279 HD
HETATM   30  C   UNL     1      44.140 -17.663   5.809  1.00  0.00     0.269 C 
ENDBRANCH  26  27
ENDBRANCH  25  26
ENDBRANCH   1  25
TORSDOF 5
ENDMDL
MODEL 10
REMARK VINA RESULT:      -6.6      3.315      6.947
REMARK  5 active torsions:
REMARK  status: ('A' for Active; 'I' for Inactive)
REMARK    1  A    between atoms: N_2  and  C_4 
REMARK    2  A    between atoms: C_4  and  C_5 
REMARK    3  A    between atoms: C_5  and  N_6 
REMARK    4  A    between atoms: C_11  and  C_12 
REMARK    5  A    between atoms: C_15  and  O_16 
ROOT
HETATM    1  N   UNL     1      41.817 -13.882   3.998  1.00  0.00    -0.332 N 
HETATM    2  C   UNL     1      41.038 -13.038   3.226  1.00  0.00     0.279 C 
HETATM    3  O   UNL     1      40.568 -11.980   3.595  1.00  0.00    -0.265 OA
HETATM    4  C   UNL     1      40.957 -13.641   1.884  1.00  0.00     0.156 A 
HETATM    5  C   UNL     1      41.784 -14.688   1.892  1.00  0.00     0.060 A 
HETATM    6  C   UNL     1      42.532 -14.849   3.162  1.00  0.00     0.161 C 
HETATM    7  O   UNL     1      40.186 -13.183   0.853  1.00  0.00    -0.303 OA
HETATM    8  C   UNL     1      40.208 -13.945  -0.296  1.00  0.00     0.090 A 
HETATM    9  C   UNL     1      41.009 -15.089  -0.435  1.00  0.00     0.051 A 
HETATM   10  C   UNL     1      41.915 -15.477   0.673  1.00  0.00     0.196 A 
HETATM   11  O   UNL     1      42.739 -16.372   0.573  1.00  0.00    -0.287 OA
HETATM   12  C   UNL     1      39.383 -13.534  -1.344  1.00  0.00     0.041 A 
HETATM   13  C   UNL     1      39.345 -14.284  -2.521  1.00  0.00     0.045 A 
HETATM   14  C   UNL     1      40.127 -15.433  -2.637  1.00  0.00     0.117 A 
HETATM   15  F   UNL     1      40.071 -16.150  -3.765  1.00  0.00    -0.206 F 
HETATM   16  C   UNL     1      40.965 -15.844  -1.607  1.00  0.00     0.060 A 
ENDROOT
BRANCH   6  17
HETATM   17  C   UNL     1      42.649 -16.220   3.774  1.00  0.00    -0.030 A 
HETATM   18  C   UNL     1      43.899 -16.869   3.749  1.00  0.00     0.012 A 
HETATM   19  C   UNL     1      44.077 -18.112   4.358  1.00  0.00     0.037 A 
HETATM   20  C   UNL     1      43.001 -18.714   4.993  1.00  0.00     0.065 A 
HETATM   21  C   UNL     1      41.754 -18.098   5.021  1.00  0.00     0.037 A 
HETATM   22  C   UNL     1      41.574 -16.856   4.410  1.00  0.00     0.012 A 
BRANCH  20  23
HETATM   23  O   UNL     1      43.128 -19.921   5.612  1.00  0.00    -0.361 OA
HETATM   24  H   UNL     1      43.749 -19.836   6.354  1.00  0.00     0.217 HD
ENDBRANCH  20  23
ENDBRANCH   6  17
BRANCH   1  25
HETATM   25  C   UNL     1      41.919 -13.782   5.452  1.00  0.00     0.155 C 
BRANCH  25  26
HETATM   26  C   UNL     1      43.292 -13.334   5.960  1.00  0.00     0.254 C 
BRANCH  26  27
HETATM   27  N   UNL     1      43.675 -14.019   7.258  1.00  0.00    -0.077 N 
HETATM   28  C   UNL     1      44.775 -13.284   7.968  1.00  0.00     0.269 C 
HETATM   29  H   UNL     1      42.840 -14.013   7.868  1.00  0.00     0.279 HD
HETATM   30  C   UNL     1      44.011 -15.478   7.095  1.00  0.00     0.269 C 
ENDBRANCH  26  27
ENDBRANCH  25  26
ENDBRANCH   1  25
TORSDOF 5
ENDMDL
