MODEL 1
REMARK VINA RESULT:      -9.0      0.000      0.000
REMARK  8 active torsions:
REMARK  status: ('A' for Active; 'I' for Inactive)
REMARK    1  A    between atoms: O_2  and  C_3 
REMARK    2  A    between atoms: C_6  and  N_7 
REMARK    3  A    between atoms: N_7  and  C_8 
REMARK    4  A    between atoms: C_12  and  C_13 
REMARK       I    between atoms: C_13  and  N_14 
REMARK    5  A    between atoms: N_14  and  C_15 
REMARK    6  A    between atoms: C_15  and  C_16 
REMARK    7  A    between atoms: C_16  and  N_17 
REMARK    8  A    between atoms: N_21  and  C_22 
ROOT
HETATM    1  C   UNL     1      44.410 -13.785   7.535  1.00  0.00     0.129 A 
HETATM    2  N   UNL     1      44.423 -15.115   7.731  1.00  0.00    -0.231 NA
HETATM    3  C   UNL     1      43.819 -15.939   6.864  1.00  0.00     0.070 A 
HETATM    4  C   UNL     1      43.192 -15.486   5.688  1.00  0.00     0.009 A 
HETATM    5  C   UNL     1      43.265 -14.094   5.456  1.00  0.00     0.048 A 
HETATM    6  C   UNL     1      43.827 -13.239   6.406  1.00  0.00     0.068 A 
HETATM    7  C   UNL     1      43.819 -17.297   7.148  1.00  0.00     0.032 A 
HETATM    8  C   UNL     1      43.194 -18.227   6.315  1.00  0.00     0.002 A 
HETATM    9  C   UNL     1      42.540 -17.792   5.172  1.00  0.00     0.001 A 
HETATM   10  C   UNL     1      42.532 -16.434   4.861  1.00  0.00     0.015 A 
ENDROOT
BRANCH   5  11
HETATM   11  C   UNL     1      42.828 -13.448   4.193  1.00  0.00     0.252 C 
HETATM   12  N   UNL     1      41.570 -12.886   4.193  1.00  0.00    -0.355 N 
HETATM   13  H   UNL     1      41.063 -12.898   5.076  1.00  0.00     0.162 HD
HETATM   14  O   UNL     1      43.490 -13.555   3.165  1.00  0.00    -0.268 OA
BRANCH  12  15
HETATM   15  C   UNL     1      41.031 -12.003   3.160  1.00  0.00     0.150 C 
BRANCH  15  16
HETATM   16  C   UNL     1      39.751 -12.421   2.401  1.00  0.00     0.254 C 
BRANCH  16  17
HETATM   17  N   UNL     1      39.875 -13.744   1.690  1.00  0.00    -0.067 N 
HETATM   18  H   UNL     1      38.992 -13.811   1.146  1.00  0.00     0.280 HD
HETATM   19  C   UNL     1      41.042 -13.864   0.726  1.00  0.00     0.254 C 
HETATM   20  C   UNL     1      40.979 -15.210  -0.025  1.00  0.00     0.150 C 
HETATM   21  N   UNL     1      40.897 -16.343   0.912  1.00  0.00    -0.378 N 
HETATM   22  C   UNL     1      39.782 -16.260   1.879  1.00  0.00     0.150 C 
HETATM   23  C   UNL     1      39.832 -14.925   2.656  1.00  0.00     0.254 C 
BRANCH  21  24
HETATM   24  C   UNL     1      42.021 -17.089   1.252  1.00  0.00     0.031 A 
HETATM   25  C   UNL     1      41.921 -18.479   1.432  1.00  0.00     0.053 A 
HETATM   26  C   UNL     1      43.036 -19.263   1.747  1.00  0.00     0.036 A 
HETATM   27 CL   UNL     1      42.853 -20.962   1.949  1.00  0.00    -0.084 Cl
HETATM   28  C   UNL     1      44.288 -18.683   1.887  1.00  0.00     0.024 A 
HETATM   29  C   UNL     1      44.423 -17.312   1.702  1.00  0.00     0.004 A 
HETATM   30  C   UNL     1      43.303 -16.531   1.383  1.00  0.00     0.029 A 
ENDBRANCH  21  24
ENDBRANCH  16  17
ENDBRANCH  15  16
ENDBRANCH  12  15
ENDBRANCH   5  11
BRANCH   1  31
HETATM   31  N   UNL     1      45.009 -12.904   8.461  1.00  0.00    -0.341 N 
HETATM   32  H   UNL     1      45.745 -12.373   8.008  1.00  0.00     0.167 HD
BRANCH  31  33
HETATM   33  C   UNL     1      44.374 -12.160   9.479  1.00  0.00     0.033 A 
HETATM   34  C   UNL     1      43.494 -11.110   9.203  1.00  0.00     0.032 A 
HETATM   35  C   UNL     1      42.801 -10.461  10.230  1.00  0.00     0.039 A 
HETATM   36  C   UNL     1      42.954 -10.863  11.557  1.00  0.00     0.068 A 
HETATM   37  C   UNL     1      43.817 -11.917  11.847  1.00  0.00     0.039 A 
HETATM   38  C   UNL     1      44.508 -12.567  10.816  1.00  0.00     0.032 A 
BRANCH  36  39
HETATM   39  O   UNL     1      42.208 -10.157  12.458  1.00  0.00    -0.356 OA
HETATM   40  C   UNL     1      42.397 -10.465  13.832  1.00  0.00     0.210 C 
ENDBRANCH  36  39
ENDBRANCH  31  33
ENDBRANCH   1  31
TORSDOF 8
ENDMDL
MODEL 2
REMARK VINA RESULT:      -9.0      2.685      6.840
REMARK  8 active torsions:
REMARK  status: ('A' for Active; 'I' for Inactive)
REMARK    1  A    between atoms: O_2  and  C_3 
REMARK    2  A    between atoms: C_6  and  N_7 
REMARK    3  A    between atoms: N_7  and  C_8 
REMARK    4  A    between atoms: C_12  and  C_13 
REMARK       I    between atoms: C_13  and  N_14 
REMARK    5  A    between atoms: N_14  and  C_15 
REMARK    6  A    between atoms: C_15  and  C_16 
REMARK    7  A    between atoms: C_16  and  N_17 
REMARK    8  A    between atoms: N_21  and  C_22 
ROOT
HETATM    1  C   UNL     1      40.742  -9.813   9.202  1.00  0.00     0.129 A 
HETATM    2  N   UNL     1      40.669  -9.195  10.394  1.00  0.00    -0.231 NA
HETATM    3  C   UNL     1      41.659  -9.318  11.289  1.00  0.00     0.070 A 
HETATM    4  C   UNL     1      42.839 -10.039  11.029  1.00  0.00     0.009 A 
HETATM    5  C   UNL     1      42.935 -10.608   9.739  1.00  0.00     0.048 A 
HETATM    6  C   UNL     1      41.864 -10.539   8.846  1.00  0.00     0.068 A 
HETATM    7  C   UNL     1      41.503  -8.704  12.523  1.00  0.00     0.032 A 
HETATM    8  C   UNL     1      42.470  -8.797  13.524  1.00  0.00     0.002 A 
HETATM    9  C   UNL     1      43.622  -9.534  13.297  1.00  0.00     0.001 A 
HETATM   10  C   UNL     1      43.807 -10.156  12.063  1.00  0.00     0.015 A 
ENDROOT
BRANCH   5  11
HETATM   11  C   UNL     1      44.167 -11.245   9.212  1.00  0.00     0.252 C 
HETATM   12  N   UNL     1      44.071 -12.574   8.863  1.00  0.00    -0.355 N 
HETATM   13  H   UNL     1      43.149 -13.001   8.931  1.00  0.00     0.162 HD
HETATM   14  O   UNL     1      45.246 -10.659   9.239  1.00  0.00    -0.268 OA
BRANCH  12  15
HETATM   15  C   UNL     1      45.070 -13.333   8.112  1.00  0.00     0.150 C 
BRANCH  15  16
HETATM   16  C   UNL     1      44.816 -13.647   6.619  1.00  0.00     0.254 C 
BRANCH  16  17
HETATM   17  N   UNL     1      43.927 -14.843   6.396  1.00  0.00    -0.067 N 
HETATM   18  H   UNL     1      43.117 -14.663   7.022  1.00  0.00     0.280 HD
HETATM   19  C   UNL     1      43.409 -15.020   4.979  1.00  0.00     0.254 C 
HETATM   20  C   UNL     1      42.414 -16.198   4.917  1.00  0.00     0.150 C 
HETATM   21  N   UNL     1      43.009 -17.430   5.462  1.00  0.00    -0.378 N 
HETATM   22  C   UNL     1      43.541 -17.299   6.836  1.00  0.00     0.150 C 
HETATM   23  C   UNL     1      44.551 -16.133   6.921  1.00  0.00     0.254 C 
BRANCH  21  24
HETATM   24  C   UNL     1      43.543 -18.410   4.631  1.00  0.00     0.031 A 
HETATM   25  C   UNL     1      44.085 -19.585   5.179  1.00  0.00     0.053 A 
HETATM   26  C   UNL     1      44.603 -20.603   4.371  1.00  0.00     0.036 A 
HETATM   27 CL   UNL     1      45.248 -22.022   5.099  1.00  0.00    -0.084 Cl
HETATM   28  C   UNL     1      44.592 -20.481   2.989  1.00  0.00     0.024 A 
HETATM   29  C   UNL     1      44.050 -19.337   2.416  1.00  0.00     0.004 A 
HETATM   30  C   UNL     1      43.528 -18.321   3.229  1.00  0.00     0.029 A 
ENDBRANCH  21  24
ENDBRANCH  16  17
ENDBRANCH  15  16
ENDBRANCH  12  15
ENDBRANCH   5  11
BRANCH   1  31
HETATM   31  N   UNL     1      39.689  -9.722   8.267  1.00  0.00    -0.341 N 
HETATM   32  H   UNL     1      39.422  -8.751   8.139  1.00  0.00     0.167 HD
BRANCH  31  33
HETATM   33  C   UNL     1      39.518 -10.476   7.085  1.00  0.00     0.033 A 
HETATM   34  C   UNL     1      39.578  -9.900   5.813  1.00  0.00     0.032 A 
HETATM   35  C   UNL     1      39.509 -10.689   4.661  1.00  0.00     0.039 A 
HETATM   36  C   UNL     1      39.400 -12.076   4.753  1.00  0.00     0.068 A 
HETATM   37  C   UNL     1      39.352 -12.667   6.014  1.00  0.00     0.039 A 
HETATM   38  C   UNL     1      39.425 -11.874   7.167  1.00  0.00     0.032 A 
BRANCH  36  39
HETATM   39  O   UNL     1      39.358 -12.728   3.553  1.00  0.00    -0.356 OA
HETATM   40  C   UNL     1      39.762 -14.091   3.546  1.00  0.00     0.210 C 
ENDBRANCH  36  39
ENDBRANCH  31  33
ENDBRANCH   1  31
TORSDOF 8
ENDMDL
MODEL 3
REMARK VINA RESULT:      -8.5      2.598      6.874
REMARK  8 active torsions:
REMARK  status: ('A' for Active; 'I' for Inactive)
REMARK    1  A    between atoms: O_2  and  C_3 
REMARK    2  A    between atoms: C_6  and  N_7 
REMARK    3  A    between atoms: N_7  and  C_8 
REMARK    4  A    between atoms: C_12  and  C_13 
REMARK       I    between atoms: C_13  and  N_14 
REMARK    5  A    between atoms: N_14  and  C_15 
REMARK    6  A    between atoms: C_15  and  C_16 
REMARK    7  A    between atoms: C_16  and  N_17 
REMARK    8  A    between atoms: N_21  and  C_22 
ROOT
HETATM    1  C   UNL     1      40.792  -9.695   9.199  1.00  0.00     0.129 A 
HETATM    2  N   UNL     1      40.673  -9.114  10.406  1.00  0.00    -0.231 NA
HETATM    3  C   UNL     1      41.632  -9.258  11.331  1.00  0.00     0.070 A 
HETATM    4  C   UNL     1      42.826  -9.962  11.091  1.00  0.00     0.009 A 
HETATM    5  C   UNL     1      42.972 -10.491   9.788  1.00  0.00     0.048 A 
HETATM    6  C   UNL     1      41.932 -10.402   8.860  1.00  0.00     0.068 A 
HETATM    7  C   UNL     1      41.427  -8.682  12.577  1.00  0.00     0.032 A 
HETATM    8  C   UNL     1      42.360  -8.799  13.608  1.00  0.00     0.002 A 
HETATM    9  C   UNL     1      43.525  -9.521  13.399  1.00  0.00     0.001 A 
HETATM   10  C   UNL     1      43.758 -10.104  12.154  1.00  0.00     0.015 A 
ENDROOT
BRANCH   5  11
HETATM   11  C   UNL     1      44.227 -11.103   9.286  1.00  0.00     0.252 C 
HETATM   12  N   UNL     1      44.138 -12.399   8.828  1.00  0.00    -0.355 N 
HETATM   13  H   UNL     1      43.209 -12.816   8.808  1.00  0.00     0.162 HD
HETATM   14  O   UNL     1      45.307 -10.536   9.423  1.00  0.00    -0.268 OA
BRANCH  12  15
HETATM   15  C   UNL     1      45.172 -13.112   8.080  1.00  0.00     0.150 C 
BRANCH  15  16
HETATM   16  C   UNL     1      44.799 -14.403   7.316  1.00  0.00     0.254 C 
BRANCH  16  17
HETATM   17  N   UNL     1      43.536 -14.282   6.504  1.00  0.00    -0.067 N 
HETATM   18  H   UNL     1      42.949 -13.631   7.063  1.00  0.00     0.280 HD
HETATM   19  C   UNL     1      43.705 -13.699   5.112  1.00  0.00     0.254 C 
HETATM   20  C   UNL     1      42.328 -13.509   4.441  1.00  0.00     0.150 C 
HETATM   21  N   UNL     1      41.556 -14.763   4.442  1.00  0.00    -0.378 N 
HETATM   22  C   UNL     1      41.379 -15.374   5.776  1.00  0.00     0.150 C 
HETATM   23  C   UNL     1      42.747 -15.587   6.465  1.00  0.00     0.254 C 
BRANCH  21  24
HETATM   24  C   UNL     1      41.498 -15.583   3.319  1.00  0.00     0.031 A 
HETATM   25  C   UNL     1      42.671 -16.161   2.803  1.00  0.00     0.053 A 
HETATM   26  C   UNL     1      42.646 -17.013   1.694  1.00  0.00     0.036 A 
HETATM   27 CL   UNL     1      44.113 -17.696   1.111  1.00  0.00    -0.084 Cl
HETATM   28  C   UNL     1      41.446 -17.318   1.068  1.00  0.00     0.024 A 
HETATM   29  C   UNL     1      40.267 -16.774   1.562  1.00  0.00     0.004 A 
HETATM   30  C   UNL     1      40.297 -15.924   2.677  1.00  0.00     0.029 A 
ENDBRANCH  21  24
ENDBRANCH  16  17
ENDBRANCH  15  16
ENDBRANCH  12  15
ENDBRANCH   5  11
BRANCH   1  31
HETATM   31  N   UNL     1      39.772  -9.583   8.230  1.00  0.00    -0.341 N 
HETATM   32  H   UNL     1      39.526  -8.607   8.097  1.00  0.00     0.167 HD
BRANCH  31  33
HETATM   33  C   UNL     1      39.628 -10.329   7.040  1.00  0.00     0.033 A 
HETATM   34  C   UNL     1      39.395 -11.707   7.042  1.00  0.00     0.032 A 
HETATM   35  C   UNL     1      39.152 -12.399   5.851  1.00  0.00     0.039 A 
HETATM   36  C   UNL     1      39.115 -11.724   4.631  1.00  0.00     0.068 A 
HETATM   37  C   UNL     1      39.331 -10.349   4.613  1.00  0.00     0.039 A 
HETATM   38  C   UNL     1      39.571  -9.657   5.809  1.00  0.00     0.032 A 
BRANCH  36  39
HETATM   39  O   UNL     1      38.853 -12.516   3.548  1.00  0.00    -0.356 OA
HETATM   40  C   UNL     1      38.902 -11.895   2.270  1.00  0.00     0.210 C 
ENDBRANCH  36  39
ENDBRANCH  31  33
ENDBRANCH   1  31
TORSDOF 8
ENDMDL
MODEL 4
REMARK VINA RESULT:      -8.5      2.819      4.848
REMARK  8 active torsions:
REMARK  status: ('A' for Active; 'I' for Inactive)
REMARK    1  A    between atoms: O_2  and  C_3 
REMARK    2  A    between atoms: C_6  and  N_7 
REMARK    3  A    between atoms: N_7  and  C_8 
REMARK    4  A    between atoms: C_12  and  C_13 
REMARK       I    between atoms: C_13  and  N_14 
REMARK    5  A    between atoms: N_14  and  C_15 
REMARK    6  A    between atoms: C_15  and  C_16 
REMARK    7  A    between atoms: C_16  and  N_17 
REMARK    8  A    between atoms: N_21  and  C_22 
ROOT
HETATM    1  C   UNL     1      42.084 -10.779   7.926  1.00  0.00     0.129 A 
HETATM    2  N   UNL     1      42.055  -9.485   7.562  1.00  0.00    -0.231 NA
HETATM    3  C   UNL     1      41.414  -9.102   6.449  1.00  0.00     0.070 A 
HETATM    4  C   UNL     1      40.698  -9.998   5.633  1.00  0.00     0.009 A 
HETATM    5  C   UNL     1      40.667 -11.339   6.080  1.00  0.00     0.048 A 
HETATM    6  C   UNL     1      41.404 -11.737   7.197  1.00  0.00     0.068 A 
HETATM    7  C   UNL     1      41.466  -7.762   6.095  1.00  0.00     0.032 A 
HETATM    8  C   UNL     1      40.848  -7.277   4.942  1.00  0.00     0.002 A 
HETATM    9  C   UNL     1      40.170  -8.152   4.108  1.00  0.00     0.001 A 
HETATM   10  C   UNL     1      40.097  -9.503   4.444  1.00  0.00     0.015 A 
ENDROOT
BRANCH   5  11
HETATM   11  C   UNL     1      39.820 -12.390   5.463  1.00  0.00     0.252 C 
HETATM   12  N   UNL     1      40.443 -13.239   4.575  1.00  0.00    -0.355 N 
HETATM   13  H   UNL     1      41.448 -13.122   4.458  1.00  0.00     0.162 HD
HETATM   14  O   UNL     1      38.602 -12.394   5.618  1.00  0.00    -0.268 OA
BRANCH  12  15
HETATM   15  C   UNL     1      39.878 -14.475   4.037  1.00  0.00     0.150 C 
BRANCH  15  16
HETATM   16  C   UNL     1      40.545 -15.141   2.811  1.00  0.00     0.254 C 
BRANCH  16  17
HETATM   17  N   UNL     1      41.880 -15.768   3.116  1.00  0.00    -0.067 N 
HETATM   18  H   UNL     1      42.477 -14.956   3.370  1.00  0.00     0.280 HD
HETATM   19  C   UNL     1      41.894 -16.753   4.272  1.00  0.00     0.254 C 
HETATM   20  C   UNL     1      43.336 -17.220   4.560  1.00  0.00     0.150 C 
HETATM   21  N   UNL     1      43.976 -17.758   3.348  1.00  0.00    -0.378 N 
HETATM   22  C   UNL     1      43.972 -16.837   2.191  1.00  0.00     0.150 C 
HETATM   23  C   UNL     1      42.535 -16.365   1.874  1.00  0.00     0.254 C 
BRANCH  21  24
HETATM   24  C   UNL     1      44.049 -19.127   3.110  1.00  0.00     0.031 A 
HETATM   25  C   UNL     1      44.568 -19.990   4.091  1.00  0.00     0.053 A 
HETATM   26  C   UNL     1      44.630 -21.373   3.895  1.00  0.00     0.036 A 
HETATM   27 CL   UNL     1      45.269 -22.380   5.135  1.00  0.00    -0.084 Cl
HETATM   28  C   UNL     1      44.172 -21.940   2.715  1.00  0.00     0.024 A 
HETATM   29  C   UNL     1      43.641 -21.115   1.730  1.00  0.00     0.004 A 
HETATM   30  C   UNL     1      43.577 -19.729   1.932  1.00  0.00     0.029 A 
ENDBRANCH  21  24
ENDBRANCH  16  17
ENDBRANCH  15  16
ENDBRANCH  12  15
ENDBRANCH   5  11
BRANCH   1  31
HETATM   31  N   UNL     1      42.788 -11.199   9.075  1.00  0.00    -0.341 N 
HETATM   32  H   UNL     1      43.784 -11.056   8.943  1.00  0.00     0.167 HD
BRANCH  31  33
HETATM   33  C   UNL     1      42.408 -11.040  10.425  1.00  0.00     0.033 A 
HETATM   34  C   UNL     1      43.330 -10.749  11.435  1.00  0.00     0.032 A 
HETATM   35  C   UNL     1      42.909 -10.493  12.744  1.00  0.00     0.039 A 
HETATM   36  C   UNL     1      41.552 -10.502  13.070  1.00  0.00     0.068 A 
HETATM   37  C   UNL     1      40.620 -10.776  12.072  1.00  0.00     0.039 A 
HETATM   38  C   UNL     1      41.045 -11.029  10.760  1.00  0.00     0.032 A 
BRANCH  36  39
HETATM   39  O   UNL     1      41.277 -10.221  14.378  1.00  0.00    -0.356 OA
HETATM   40  C   UNL     1      42.334  -9.672  15.155  1.00  0.00     0.210 C 
ENDBRANCH  36  39
ENDBRANCH  31  33
ENDBRANCH   1  31
TORSDOF 8
ENDMDL
MODEL 5
REMARK VINA RESULT:      -8.4      3.506      5.697
REMARK  8 active torsions:
REMARK  status: ('A' for Active; 'I' for Inactive)
REMARK    1  A    between atoms: O_2  and  C_3 
REMARK    2  A    between atoms: C_6  and  N_7 
REMARK    3  A    between atoms: N_7  and  C_8 
REMARK    4  A    between atoms: C_12  and  C_13 
REMARK       I    between atoms: C_13  and  N_14 
REMARK    5  A    between atoms: N_14  and  C_15 
REMARK    6  A    between atoms: C_15  and  C_16 
REMARK    7  A    between atoms: C_16  and  N_17 
REMARK    8  A    between atoms: N_21  and  C_22 
ROOT
HETATM    1  C   UNL     1      39.617 -10.325   9.301  1.00  0.00     0.129 A 
HETATM    2  N   UNL     1      40.163  -9.183   8.848  1.00  0.00    -0.231 NA
HETATM    3  C   UNL     1      40.633  -9.101   7.595  1.00  0.00     0.070 A 
HETATM    4  C   UNL     1      40.539 -10.159   6.673  1.00  0.00     0.009 A 
HETATM    5  C   UNL     1      39.882 -11.320   7.141  1.00  0.00     0.048 A 
HETATM    6  C   UNL     1      39.469 -11.420   8.471  1.00  0.00     0.068 A 
HETATM    7  C   UNL     1      41.236  -7.915   7.202  1.00  0.00     0.032 A 
HETATM    8  C   UNL     1      41.774  -7.747   5.926  1.00  0.00     0.002 A 
HETATM    9  C   UNL     1      41.722  -8.792   5.017  1.00  0.00     0.001 A 
HETATM   10  C   UNL     1      41.115  -9.992   5.385  1.00  0.00     0.015 A 
ENDROOT
BRANCH   5  11
HETATM   11  C   UNL     1      39.522 -12.467   6.270  1.00  0.00     0.252 C 
HETATM   12  N   UNL     1      40.478 -13.447   6.119  1.00  0.00    -0.355 N 
HETATM   13  H   UNL     1      41.331 -13.344   6.666  1.00  0.00     0.162 HD
HETATM   14  O   UNL     1      38.494 -12.456   5.600  1.00  0.00    -0.268 OA
BRANCH  12  15
HETATM   15  C   UNL     1      40.264 -14.761   5.514  1.00  0.00     0.150 C 
BRANCH  15  16
HETATM   16  C   UNL     1      40.785 -16.022   6.242  1.00  0.00     0.254 C 
BRANCH  16  17
HETATM   17  N   UNL     1      42.136 -16.483   5.759  1.00  0.00    -0.067 N 
HETATM   18  H   UNL     1      42.670 -15.598   5.652  1.00  0.00     0.280 HD
HETATM   19  C   UNL     1      42.897 -17.391   6.709  1.00  0.00     0.254 C 
HETATM   20  C   UNL     1      44.307 -17.683   6.155  1.00  0.00     0.150 C 
HETATM   21  N   UNL     1      44.244 -18.220   4.786  1.00  0.00    -0.378 N 
HETATM   22  C   UNL     1      43.498 -17.374   3.828  1.00  0.00     0.150 C 
HETATM   23  C   UNL     1      42.075 -17.079   4.355  1.00  0.00     0.254 C 
BRANCH  21  24
HETATM   24  C   UNL     1      44.342 -19.585   4.533  1.00  0.00     0.031 A 
HETATM   25  C   UNL     1      44.233 -20.072   3.219  1.00  0.00     0.053 A 
HETATM   26  C   UNL     1      44.355 -21.434   2.927  1.00  0.00     0.036 A 
HETATM   27 CL   UNL     1      44.219 -21.971   1.299  1.00  0.00    -0.084 Cl
HETATM   28  C   UNL     1      44.595 -22.353   3.939  1.00  0.00     0.024 A 
HETATM   29  C   UNL     1      44.721 -21.901   5.247  1.00  0.00     0.004 A 
HETATM   30  C   UNL     1      44.602 -20.534   5.535  1.00  0.00     0.029 A 
ENDBRANCH  21  24
ENDBRANCH  16  17
ENDBRANCH  15  16
ENDBRANCH  12  15
ENDBRANCH   5  11
BRANCH   1  31
HETATM   31  N   UNL     1      39.154 -10.436  10.630  1.00  0.00    -0.341 N 
HETATM   32  H   UNL     1      38.814 -11.377  10.802  1.00  0.00     0.167 HD
BRANCH  31  33
HETATM   33  C   UNL     1      39.716  -9.860  11.790  1.00  0.00     0.033 A 
HETATM   34  C   UNL     1      39.183  -8.718  12.395  1.00  0.00     0.032 A 
HETATM   35  C   UNL     1      39.699  -8.234  13.601  1.00  0.00     0.039 A 
HETATM   36  C   UNL     1      40.749  -8.892  14.242  1.00  0.00     0.068 A 
HETATM   37  C   UNL     1      41.282 -10.039  13.659  1.00  0.00     0.039 A 
HETATM   38  C   UNL     1      40.760 -10.524  12.452  1.00  0.00     0.032 A 
BRANCH  36  39
HETATM   39  O   UNL     1      41.147  -8.323  15.418  1.00  0.00    -0.356 OA
HETATM   40  C   UNL     1      42.005  -9.094  16.249  1.00  0.00     0.210 C 
ENDBRANCH  36  39
ENDBRANCH  31  33
ENDBRANCH   1  31
TORSDOF 8
ENDMDL
MODEL 6
REMARK VINA RESULT:      -8.4      4.165     10.342
REMARK  8 active torsions:
REMARK  status: ('A' for Active; 'I' for Inactive)
REMARK    1  A    between atoms: O_2  and  C_3 
REMARK    2  A    between atoms: C_6  and  N_7 
REMARK    3  A    between atoms: N_7  and  C_8 
REMARK    4  A    between atoms: C_12  and  C_13 
REMARK       I    between atoms: C_13  and  N_14 
REMARK    5  A    between atoms: N_14  and  C_15 
REMARK    6  A    between atoms: C_15  and  C_16 
REMARK    7  A    between atoms: C_16  and  N_17 
REMARK    8  A    between atoms: N_21  and  C_22 
ROOT
HETATM    1  C   UNL     1      42.021 -15.126   0.487  1.00  0.00     0.129 A 
HETATM    2  N   UNL     1      42.280 -16.444   0.432  1.00  0.00    -0.231 NA
HETATM    3  C   UNL     1      42.696 -17.105   1.521  1.00  0.00     0.070 A 
HETATM    4  C   UNL     1      42.835 -16.493   2.780  1.00  0.00     0.009 A 
HETATM    5  C   UNL     1      42.473 -15.127   2.838  1.00  0.00     0.048 A 
HETATM    6  C   UNL     1      42.118 -14.433   1.680  1.00  0.00     0.068 A 
HETATM    7  C   UNL     1      43.001 -18.452   1.388  1.00  0.00     0.032 A 
HETATM    8  C   UNL     1      43.464 -19.214   2.462  1.00  0.00     0.002 A 
HETATM    9  C   UNL     1      43.641 -18.617   3.700  1.00  0.00     0.001 A 
HETATM   10  C   UNL     1      43.335 -17.267   3.861  1.00  0.00     0.015 A 
ENDROOT
BRANCH   5  11
HETATM   11  C   UNL     1      42.376 -14.357   4.102  1.00  0.00     0.252 C 
HETATM   12  N   UNL     1      41.110 -14.177   4.616  1.00  0.00    -0.355 N 
HETATM   13  H   UNL     1      40.347 -14.640   4.127  1.00  0.00     0.162 HD
HETATM   14  O   UNL     1      43.353 -13.780   4.570  1.00  0.00    -0.268 OA
BRANCH  12  15
HETATM   15  C   UNL     1      40.796 -13.667   5.950  1.00  0.00     0.150 C 
BRANCH  15  16
HETATM   16  C   UNL     1      39.565 -12.751   6.138  1.00  0.00     0.254 C 
BRANCH  16  17
HETATM   17  N   UNL     1      39.864 -11.484   6.895  1.00  0.00    -0.067 N 
HETATM   18  H   UNL     1      39.336 -10.757   6.372  1.00  0.00     0.280 HD
HETATM   19  C   UNL     1      39.406 -11.460   8.343  1.00  0.00     0.254 C 
HETATM   20  C   UNL     1      39.655 -10.069   8.961  1.00  0.00     0.150 C 
HETATM   21  N   UNL     1      41.061  -9.658   8.804  1.00  0.00    -0.378 N 
HETATM   22  C   UNL     1      41.555  -9.680   7.411  1.00  0.00     0.150 C 
HETATM   23  C   UNL     1      41.328 -11.070   6.773  1.00  0.00     0.254 C 
BRANCH  21  24
HETATM   24  C   UNL     1      41.980  -9.797   9.840  1.00  0.00     0.031 A 
HETATM   25  C   UNL     1      41.882  -8.990  10.987  1.00  0.00     0.053 A 
HETATM   26  C   UNL     1      42.772  -9.122  12.058  1.00  0.00     0.036 A 
HETATM   27 CL   UNL     1      42.598  -8.111  13.439  1.00  0.00    -0.084 Cl
HETATM   28  C   UNL     1      43.785 -10.069  12.019  1.00  0.00     0.024 A 
HETATM   29  C   UNL     1      43.900 -10.891  10.905  1.00  0.00     0.004 A 
HETATM   30  C   UNL     1      43.004 -10.758   9.835  1.00  0.00     0.029 A 
ENDBRANCH  21  24
ENDBRANCH  16  17
ENDBRANCH  15  16
ENDBRANCH  12  15
ENDBRANCH   5  11
BRANCH   1  31
HETATM   31  N   UNL     1      41.618 -14.411  -0.661  1.00  0.00    -0.341 N 
HETATM   32  H   UNL     1      42.433 -14.055  -1.151  1.00  0.00     0.167 HD
BRANCH  31  33
HETATM   33  C   UNL     1      40.568 -14.728  -1.550  1.00  0.00     0.033 A 
HETATM   34  C   UNL     1      39.327 -14.087  -1.503  1.00  0.00     0.032 A 
HETATM   35  C   UNL     1      38.343 -14.348  -2.462  1.00  0.00     0.039 A 
HETATM   36  C   UNL     1      38.586 -15.243  -3.505  1.00  0.00     0.068 A 
HETATM   37  C   UNL     1      39.823 -15.880  -3.573  1.00  0.00     0.039 A 
HETATM   38  C   UNL     1      40.808 -15.613  -2.612  1.00  0.00     0.032 A 
BRANCH  36  39
HETATM   39  O   UNL     1      37.548 -15.395  -4.380  1.00  0.00    -0.356 OA
HETATM   40  C   UNL     1      36.573 -14.361  -4.409  1.00  0.00     0.210 C 
ENDBRANCH  36  39
ENDBRANCH  31  33
ENDBRANCH   1  31
TORSDOF 8
ENDMDL
MODEL 7
REMARK VINA RESULT:      -8.3      3.693      9.893
REMARK  8 active torsions:
REMARK  status: ('A' for Active; 'I' for Inactive)
REMARK    1  A    between atoms: O_2  and  C_3 
REMARK    2  A    between atoms: C_6  and  N_7 
REMARK    3  A    between atoms: N_7  and  C_8 
REMARK    4  A    between atoms: C_12  and  C_13 
REMARK       I    between atoms: C_13  and  N_14 
REMARK    5  A    between atoms: N_14  and  C_15 
REMARK    6  A    between atoms: C_15  and  C_16 
REMARK    7  A    between atoms: C_16  and  N_17 
REMARK    8  A    between atoms: N_21  and  C_22 
ROOT
HETATM    1  C   UNL     1      41.176 -16.736   2.661  1.00  0.00     0.129 A 
HETATM    2  N   UNL     1      41.695 -17.856   2.128  1.00  0.00    -0.231 NA
HETATM    3  C   UNL     1      42.670 -18.524   2.760  1.00  0.00     0.070 A 
HETATM    4  C   UNL     1      43.169 -18.140   4.019  1.00  0.00     0.009 A 
HETATM    5  C   UNL     1      42.549 -17.012   4.602  1.00  0.00     0.048 A 
HETATM    6  C   UNL     1      41.590 -16.280   3.899  1.00  0.00     0.068 A 
HETATM    7  C   UNL     1      43.206 -19.641   2.134  1.00  0.00     0.032 A 
HETATM    8  C   UNL     1      44.239 -20.384   2.706  1.00  0.00     0.002 A 
HETATM    9  C   UNL     1      44.766 -19.998   3.929  1.00  0.00     0.001 A 
HETATM   10  C   UNL     1      44.241 -18.883   4.581  1.00  0.00     0.015 A 
ENDROOT
BRANCH   5  11
HETATM   11  C   UNL     1      42.803 -16.562   5.993  1.00  0.00     0.252 C 
HETATM   12  N   UNL     1      43.762 -15.587   6.159  1.00  0.00    -0.355 N 
HETATM   13  H   UNL     1      44.176 -15.203   5.311  1.00  0.00     0.162 HD
HETATM   14  O   UNL     1      42.300 -17.145   6.949  1.00  0.00    -0.268 OA
BRANCH  12  15
HETATM   15  C   UNL     1      44.009 -14.833   7.387  1.00  0.00     0.150 C 
BRANCH  15  16
HETATM   16  C   UNL     1      45.072 -13.711   7.385  1.00  0.00     0.254 C 
BRANCH  16  17
HETATM   17  N   UNL     1      44.590 -12.421   7.996  1.00  0.00    -0.067 N 
HETATM   18  H   UNL     1      45.118 -11.693   7.475  1.00  0.00     0.280 HD
HETATM   19  C   UNL     1      43.106 -12.137   7.845  1.00  0.00     0.254 C 
HETATM   20  C   UNL     1      42.770 -10.736   8.396  1.00  0.00     0.150 C 
HETATM   21  N   UNL     1      43.239 -10.580   9.783  1.00  0.00    -0.378 N 
HETATM   22  C   UNL     1      44.678 -10.861   9.980  1.00  0.00     0.150 C 
HETATM   23  C   UNL     1      45.037 -12.267   9.447  1.00  0.00     0.254 C 
BRANCH  21  24
HETATM   24  C   UNL     1      42.377 -10.730  10.865  1.00  0.00     0.031 A 
HETATM   25  C   UNL     1      42.811 -10.420  12.166  1.00  0.00     0.053 A 
HETATM   26  C   UNL     1      41.961 -10.532  13.271  1.00  0.00     0.036 A 
HETATM   27 CL   UNL     1      42.547 -10.133  14.839  1.00  0.00    -0.084 Cl
HETATM   28  C   UNL     1      40.649 -10.952  13.112  1.00  0.00     0.024 A 
HETATM   29  C   UNL     1      40.185 -11.253  11.837  1.00  0.00     0.004 A 
HETATM   30  C   UNL     1      41.039 -11.135  10.731  1.00  0.00     0.029 A 
ENDBRANCH  21  24
ENDBRANCH  16  17
ENDBRANCH  15  16
ENDBRANCH  12  15
ENDBRANCH   5  11
BRANCH   1  31
HETATM   31  N   UNL     1      40.175 -16.003   1.987  1.00  0.00    -0.341 N 
HETATM   32  H   UNL     1      39.452 -15.721   2.641  1.00  0.00     0.167 HD
BRANCH  31  33
HETATM   33  C   UNL     1      40.348 -15.056   0.954  1.00  0.00     0.033 A 
HETATM   34  C   UNL     1      41.555 -14.911   0.264  1.00  0.00     0.032 A 
HETATM   35  C   UNL     1      41.663 -14.037  -0.823  1.00  0.00     0.039 A 
HETATM   36  C   UNL     1      40.560 -13.304  -1.259  1.00  0.00     0.068 A 
HETATM   37  C   UNL     1      39.346 -13.447  -0.590  1.00  0.00     0.039 A 
HETATM   38  C   UNL     1      39.240 -14.326   0.497  1.00  0.00     0.032 A 
BRANCH  36  39
HETATM   39  O   UNL     1      40.798 -12.502  -2.339  1.00  0.00    -0.356 OA
HETATM   40  C   UNL     1      41.344 -13.123  -3.495  1.00  0.00     0.210 C 
ENDBRANCH  36  39
ENDBRANCH  31  33
ENDBRANCH   1  31
TORSDOF 8
ENDMDL
MODEL 8
REMARK VINA RESULT:      -8.3      3.233      5.134
REMARK  8 active torsions:
REMARK  status: ('A' for Active; 'I' for Inactive)
REMARK    1  A    between atoms: O_2  and  C_3 
REMARK    2  A    between atoms: C_6  and  N_7 
REMARK    3  A    between atoms: N_7  and  C_8 
REMARK    4  A    between atoms: C_12  and  C_13 
REMARK       I    between atoms: C_13  and  N_14 
REMARK    5  A    between atoms: N_14  and  C_15 
REMARK    6  A    between atoms: C_15  and  C_16 
REMARK    7  A    between atoms: C_16  and  N_17 
REMARK    8  A    between atoms: N_21  and  C_22 
ROOT
HETATM    1  C   UNL     1      39.074 -10.180   8.819  1.00  0.00     0.129 A 
HETATM    2  N   UNL     1      38.613  -9.122   8.129  1.00  0.00    -0.231 NA
HETATM    3  C   UNL     1      38.863  -9.001   6.818  1.00  0.00     0.070 A 
HETATM    4  C   UNL     1      39.560  -9.974   6.078  1.00  0.00     0.009 A 
HETATM    5  C   UNL     1      39.960 -11.120   6.803  1.00  0.00     0.048 A 
HETATM    6  C   UNL     1      39.763 -11.197   8.183  1.00  0.00     0.068 A 
HETATM    7  C   UNL     1      38.409  -7.859   6.171  1.00  0.00     0.032 A 
HETATM    8  C   UNL     1      38.643  -7.637   4.814  1.00  0.00     0.002 A 
HETATM    9  C   UNL     1      39.360  -8.569   4.079  1.00  0.00     0.001 A 
HETATM   10  C   UNL     1      39.821  -9.727   4.704  1.00  0.00     0.015 A 
ENDROOT
BRANCH   5  11
HETATM   11  C   UNL     1      40.540 -12.330   6.170  1.00  0.00     0.252 C 
HETATM   12  N   UNL     1      39.706 -13.420   6.049  1.00  0.00    -0.355 N 
HETATM   13  H   UNL     1      38.740 -13.293   6.342  1.00  0.00     0.162 HD
HETATM   14  O   UNL     1      41.740 -12.401   5.919  1.00  0.00    -0.268 OA
BRANCH  12  15
HETATM   15  C   UNL     1      39.980 -14.619   5.258  1.00  0.00     0.150 C 
BRANCH  15  16
HETATM   16  C   UNL     1      39.825 -14.562   3.721  1.00  0.00     0.254 C 
BRANCH  16  17
HETATM   17  N   UNL     1      40.979 -15.177   2.974  1.00  0.00    -0.067 N 
HETATM   18  H   UNL     1      41.085 -14.563   2.142  1.00  0.00     0.280 HD
HETATM   19  C   UNL     1      42.302 -15.206   3.719  1.00  0.00     0.254 C 
HETATM   20  C   UNL     1      43.422 -15.739   2.801  1.00  0.00     0.150 C 
HETATM   21  N   UNL     1      43.065 -17.047   2.226  1.00  0.00    -0.378 N 
HETATM   22  C   UNL     1      41.776 -17.069   1.503  1.00  0.00     0.150 C 
HETATM   23  C   UNL     1      40.634 -16.552   2.407  1.00  0.00     0.254 C 
BRANCH  21  24
HETATM   24  C   UNL     1      43.547 -18.236   2.766  1.00  0.00     0.031 A 
HETATM   25  C   UNL     1      43.600 -19.400   1.981  1.00  0.00     0.053 A 
HETATM   26  C   UNL     1      44.104 -20.604   2.483  1.00  0.00     0.036 A 
HETATM   27 CL   UNL     1      44.150 -21.996   1.473  1.00  0.00    -0.084 Cl
HETATM   28  C   UNL     1      44.577 -20.682   3.785  1.00  0.00     0.024 A 
HETATM   29  C   UNL     1      44.551 -19.544   4.583  1.00  0.00     0.004 A 
HETATM   30  C   UNL     1      44.048 -18.338   4.074  1.00  0.00     0.029 A 
ENDBRANCH  21  24
ENDBRANCH  16  17
ENDBRANCH  15  16
ENDBRANCH  12  15
ENDBRANCH   5  11
BRANCH   1  31
HETATM   31  N   UNL     1      38.851 -10.301  10.207  1.00  0.00    -0.341 N 
HETATM   32  H   UNL     1      38.149 -11.012  10.385  1.00  0.00     0.167 HD
BRANCH  31  33
HETATM   33  C   UNL     1      39.808 -10.235  11.243  1.00  0.00     0.033 A 
HETATM   34  C   UNL     1      40.278  -9.022  11.754  1.00  0.00     0.032 A 
HETATM   35  C   UNL     1      41.146  -8.989  12.850  1.00  0.00     0.039 A 
HETATM   36  C   UNL     1      41.548 -10.169  13.475  1.00  0.00     0.068 A 
HETATM   37  C   UNL     1      41.077 -11.386  12.987  1.00  0.00     0.039 A 
HETATM   38  C   UNL     1      40.204 -11.415  11.891  1.00  0.00     0.032 A 
BRANCH  36  39
HETATM   39  O   UNL     1      42.384  -9.995  14.542  1.00  0.00    -0.356 OA
HETATM   40  C   UNL     1      41.792  -9.561  15.760  1.00  0.00     0.210 C 
ENDBRANCH  36  39
ENDBRANCH  31  33
ENDBRANCH   1  31
TORSDOF 8
ENDMDL
MODEL 9
REMARK VINA RESULT:      -8.3      3.531      9.512
REMARK  8 active torsions:
REMARK  status: ('A' for Active; 'I' for Inactive)
REMARK    1  A    between atoms: O_2  and  C_3 
REMARK    2  A    between atoms: C_6  and  N_7 
REMARK    3  A    between atoms: N_7  and  C_8 
REMARK    4  A    between atoms: C_12  and  C_13 
REMARK       I    between atoms: C_13  and  N_14 
REMARK    5  A    between atoms: N_14  and  C_15 
REMARK    6  A    between atoms: C_15  and  C_16 
REMARK    7  A    between atoms: C_16  and  N_17 
REMARK    8  A    between atoms: N_21  and  C_22 
ROOT
HETATM    1  C   UNL     1      41.792 -16.611   1.378  1.00  0.00     0.129 A 
HETATM    2  N   UNL     1      41.590 -16.221   0.107  1.00  0.00    -0.231 NA
HETATM    3  C   UNL     1      41.574 -14.920  -0.213  1.00  0.00     0.070 A 
HETATM    4  C   UNL     1      41.816 -13.898   0.723  1.00  0.00     0.009 A 
HETATM    5  C   UNL     1      42.114 -14.332   2.035  1.00  0.00     0.048 A 
HETATM    6  C   UNL     1      42.049 -15.685   2.373  1.00  0.00     0.068 A 
HETATM    7  C   UNL     1      41.304 -14.577  -1.531  1.00  0.00     0.032 A 
HETATM    8  C   UNL     1      41.244 -13.248  -1.951  1.00  0.00     0.002 A 
HETATM    9  C   UNL     1      41.444 -12.229  -1.033  1.00  0.00     0.001 A 
HETATM   10  C   UNL     1      41.723 -12.547   0.296  1.00  0.00     0.015 A 
ENDROOT
BRANCH   5  11
HETATM   11  C   UNL     1      42.574 -13.424   3.115  1.00  0.00     0.252 C 
HETATM   12  N   UNL     1      41.628 -12.581   3.655  1.00  0.00    -0.355 N 
HETATM   13  H   UNL     1      40.673 -12.689   3.319  1.00  0.00     0.162 HD
HETATM   14  O   UNL     1      43.766 -13.324   3.394  1.00  0.00    -0.268 OA
BRANCH  12  15
HETATM   15  C   UNL     1      41.790 -11.783   4.870  1.00  0.00     0.150 C 
BRANCH  15  16
HETATM   16  C   UNL     1      41.114 -10.396   4.960  1.00  0.00     0.254 C 
BRANCH  16  17
HETATM   17  N   UNL     1      40.661 -10.034   6.350  1.00  0.00    -0.067 N 
HETATM   18  H   UNL     1      39.707  -9.648   6.202  1.00  0.00     0.280 HD
HETATM   19  C   UNL     1      40.563 -11.189   7.331  1.00  0.00     0.254 C 
HETATM   20  C   UNL     1      39.969 -10.705   8.670  1.00  0.00     0.150 C 
HETATM   21  N   UNL     1      40.727  -9.564   9.210  1.00  0.00    -0.378 N 
HETATM   22  C   UNL     1      40.860  -8.420   8.283  1.00  0.00     0.150 C 
HETATM   23  C   UNL     1      41.467  -8.878   6.936  1.00  0.00     0.254 C 
BRANCH  21  24
HETATM   24  C   UNL     1      41.688  -9.733  10.203  1.00  0.00     0.031 A 
HETATM   25  C   UNL     1      42.527 -10.860  10.192  1.00  0.00     0.053 A 
HETATM   26  C   UNL     1      43.521 -11.046  11.158  1.00  0.00     0.036 A 
HETATM   27 CL   UNL     1      44.524 -12.443  11.090  1.00  0.00    -0.084 Cl
HETATM   28  C   UNL     1      43.712 -10.109  12.163  1.00  0.00     0.024 A 
HETATM   29  C   UNL     1      42.906  -8.977  12.194  1.00  0.00     0.004 A 
HETATM   30  C   UNL     1      41.913  -8.792  11.221  1.00  0.00     0.029 A 
ENDBRANCH  21  24
ENDBRANCH  16  17
ENDBRANCH  15  16
ENDBRANCH  12  15
ENDBRANCH   5  11
BRANCH   1  31
HETATM   31  N   UNL     1      41.774 -17.977   1.735  1.00  0.00    -0.341 N 
HETATM   32  H   UNL     1      41.391 -18.528   0.974  1.00  0.00     0.167 HD
BRANCH  31  33
HETATM   33  C   UNL     1      42.750 -18.691   2.464  1.00  0.00     0.033 A 
HETATM   34  C   UNL     1      42.974 -18.476   3.827  1.00  0.00     0.032 A 
HETATM   35  C   UNL     1      43.874 -19.272   4.543  1.00  0.00     0.039 A 
HETATM   36  C   UNL     1      44.555 -20.316   3.917  1.00  0.00     0.068 A 
HETATM   37  C   UNL     1      44.333 -20.551   2.563  1.00  0.00     0.039 A 
HETATM   38  C   UNL     1      43.427 -19.754   1.848  1.00  0.00     0.032 A 
BRANCH  36  39
HETATM   39  O   UNL     1      45.391 -21.023   4.734  1.00  0.00    -0.356 OA
HETATM   40  C   UNL     1      45.012 -22.357   5.044  1.00  0.00     0.210 C 
ENDBRANCH  36  39
ENDBRANCH  31  33
ENDBRANCH   1  31
TORSDOF 8
ENDMDL
MODEL 10
REMARK VINA RESULT:      -8.2      4.119      8.215
REMARK  8 active torsions:
REMARK  status: ('A' for Active; 'I' for Inactive)
REMARK    1  A    between atoms: O_2  and  C_3 
REMARK    2  A    between atoms: C_6  and  N_7 
REMARK    3  A    between atoms: N_7  and  C_8 
REMARK    4  A    between atoms: C_12  and  C_13 
REMARK       I    between atoms: C_13  and  N_14 
REMARK    5  A    between atoms: N_14  and  C_15 
REMARK    6  A    between atoms: C_15  and  C_16 
REMARK    7  A    between atoms: C_16  and  N_17 
REMARK    8  A    between atoms: N_21  and  C_22 
ROOT
HETATM    1  C   UNL     1      41.597 -17.283   1.364  1.00  0.00     0.129 A 
HETATM    2  N   UNL     1      42.287 -18.436   1.318  1.00  0.00    -0.231 NA
HETATM    3  C   UNL     1      42.986 -18.858   2.381  1.00  0.00     0.070 A 
HETATM    4  C   UNL     1      43.002 -18.168   3.608  1.00  0.00     0.009 A 
HETATM    5  C   UNL     1      42.201 -17.005   3.664  1.00  0.00     0.048 A 
HETATM    6  C   UNL     1      41.541 -16.535   2.526  1.00  0.00     0.068 A 
HETATM    7  C   UNL     1      43.724 -20.026   2.255  1.00  0.00     0.032 A 
HETATM    8  C   UNL     1      44.499 -20.528   3.301  1.00  0.00     0.002 A 
HETATM    9  C   UNL     1      44.555 -19.840   4.503  1.00  0.00     0.001 A 
HETATM   10  C   UNL     1      43.818 -18.667   4.658  1.00  0.00     0.015 A 
ENDROOT
BRANCH   5  11
HETATM   11  C   UNL     1      41.941 -16.247   4.913  1.00  0.00     0.252 C 
HETATM   12  N   UNL     1      41.512 -14.946   4.764  1.00  0.00    -0.355 N 
HETATM   13  H   UNL     1      41.343 -14.625   3.813  1.00  0.00     0.162 HD
HETATM   14  O   UNL     1      42.248 -16.707   6.009  1.00  0.00    -0.268 OA
BRANCH  12  15
HETATM   15  C   UNL     1      40.975 -14.098   5.828  1.00  0.00     0.150 C 
BRANCH  15  16
HETATM   16  C   UNL     1      41.327 -12.594   5.846  1.00  0.00     0.254 C 
BRANCH  16  17
HETATM   17  N   UNL     1      40.652 -11.801   4.758  1.00  0.00    -0.067 N 
HETATM   18  H   UNL     1      40.605 -10.840   5.151  1.00  0.00     0.280 HD
HETATM   19  C   UNL     1      41.392 -11.742   3.433  1.00  0.00     0.254 C 
HETATM   20  C   UNL     1      40.661 -10.799   2.454  1.00  0.00     0.150 C 
HETATM   21  N   UNL     1      39.248 -11.181   2.298  1.00  0.00    -0.378 N 
HETATM   22  C   UNL     1      38.491 -11.266   3.566  1.00  0.00     0.150 C 
HETATM   23  C   UNL     1      39.196 -12.216   4.560  1.00  0.00     0.254 C 
BRANCH  21  24
HETATM   24  C   UNL     1      38.812 -11.931   1.210  1.00  0.00     0.031 A 
HETATM   25  C   UNL     1      38.888 -11.404  -0.091  1.00  0.00     0.053 A 
HETATM   26  C   UNL     1      38.485 -12.141  -1.209  1.00  0.00     0.036 A 
HETATM   27 CL   UNL     1      38.608 -11.445  -2.777  1.00  0.00    -0.084 Cl
HETATM   28  C   UNL     1      37.997 -13.431  -1.064  1.00  0.00     0.024 A 
HETATM   29  C   UNL     1      37.922 -13.987   0.208  1.00  0.00     0.004 A 
HETATM   30  C   UNL     1      38.331 -13.246   1.326  1.00  0.00     0.029 A 
ENDBRANCH  21  24
ENDBRANCH  16  17
ENDBRANCH  15  16
ENDBRANCH  12  15
ENDBRANCH   5  11
BRANCH   1  31
HETATM   31  N   UNL     1      40.888 -16.810   0.239  1.00  0.00    -0.341 N 
HETATM   32  H   UNL     1      39.890 -16.853   0.416  1.00  0.00     0.167 HD
BRANCH  31  33
HETATM   33  C   UNL     1      41.229 -15.729  -0.602  1.00  0.00     0.033 A 
HETATM   34  C   UNL     1      41.025 -15.761  -1.985  1.00  0.00     0.032 A 
HETATM   35  C   UNL     1      41.275 -14.635  -2.776  1.00  0.00     0.039 A 
HETATM   36  C   UNL     1      41.714 -13.443  -2.200  1.00  0.00     0.068 A 
HETATM   37  C   UNL     1      41.909 -13.391  -0.822  1.00  0.00     0.039 A 
HETATM   38  C   UNL     1      41.655 -14.520  -0.031  1.00  0.00     0.032 A 
BRANCH  36  39
HETATM   39  O   UNL     1      41.905 -12.418  -3.083  1.00  0.00    -0.356 OA
HETATM   40  C   UNL     1      42.433 -11.206  -2.559  1.00  0.00     0.210 C 
ENDBRANCH  36  39
ENDBRANCH  31  33
ENDBRANCH   1  31
TORSDOF 8
ENDMDL
