MODEL 1
REMARK VINA RESULT:      -9.5      0.000      0.000
REMARK  4 active torsions:
REMARK  status: ('A' for Active; 'I' for Inactive)
REMARK    1  A    between atoms: N_8  and  C_9 
REMARK    2  A    between atoms: C_19  and  C_20 
REMARK    3  A    between atoms: C_20  and  C_21 
REMARK    4  A    between atoms: C_24  and  C_25 
ROOT
HETATM    1  C   UNL     1      39.930 -16.939   2.114  1.00  0.00     0.069 C 
HETATM    2  C   UNL     1      40.603 -15.678   1.635  1.00  0.00     0.017 C 
HETATM    3  N   UNL     1      40.122 -15.184   0.429  1.00  0.00    -0.348 N 
HETATM    4  C   UNL     1      40.722 -14.144  -0.223  1.00  0.00     0.119 A 
HETATM    5  C   UNL     1      41.712 -13.447   0.353  1.00  0.00     0.124 A 
HETATM    6  C   UNL     1      42.074 -12.367  -0.577  1.00  0.00     0.280 A 
HETATM    7  O   UNL     1      42.934 -11.526  -0.378  1.00  0.00    -0.265 OA
HETATM    8  N   UNL     1      41.234 -12.541  -1.689  1.00  0.00    -0.236 N 
HETATM    9  N   UNL     1      40.409 -13.666  -1.482  1.00  0.00    -0.179 NA
HETATM   10  C   UNL     1      42.187 -13.797   1.690  1.00  0.00     0.199 C 
HETATM   11  O   UNL     1      42.995 -13.104   2.298  1.00  0.00    -0.287 OA
HETATM   12  C   UNL     1      41.620 -15.064   2.294  1.00  0.00     0.020 C 
HETATM   13  H   UNL     1      39.535 -15.794  -0.131  1.00  0.00     0.167 HD
HETATM   14  H   UNL     1      39.417 -13.432  -1.533  1.00  0.00     0.155 HD
ENDROOT
BRANCH  12  15
HETATM   15  C   UNL     1      42.273 -15.512   3.580  1.00  0.00     0.083 C 
BRANCH  15  16
HETATM   16  C   UNL     1      42.963 -16.852   3.431  1.00  0.00    -0.054 A 
HETATM   17  C   UNL     1      43.549 -17.215   2.212  1.00  0.00     0.008 A 
HETATM   18  C   UNL     1      44.121 -18.478   2.042  1.00  0.00     0.008 A 
HETATM   19  C   UNL     1      44.121 -19.411   3.089  1.00  0.00    -0.055 A 
HETATM   20  C   UNL     1      43.551 -19.038   4.314  1.00  0.00     0.008 A 
HETATM   21  C   UNL     1      42.979 -17.774   4.483  1.00  0.00     0.008 A 
BRANCH  19  22
HETATM   22  C   UNL     1      44.716 -20.790   2.868  1.00  0.00     0.010 C 
HETATM   23  C   UNL     1      44.821 -21.578   4.175  1.00  0.00     0.015 C 
HETATM   24  C   UNL     1      43.923 -21.574   1.818  1.00  0.00     0.015 C 
ENDBRANCH  19  22
ENDBRANCH  15  16
ENDBRANCH  12  15
BRANCH   8  25
HETATM   25  C   UNL     1      41.202 -11.838  -2.913  1.00  0.00     0.055 A 
HETATM   26  C   UNL     1      42.367 -11.635  -3.667  1.00  0.00     0.034 A 
HETATM   27  C   UNL     1      42.327 -10.935  -4.878  1.00  0.00     0.044 A 
HETATM   28  C   UNL     1      41.119 -10.438  -5.344  1.00  0.00     0.116 A 
HETATM   29  F   UNL     1      41.079  -9.771  -6.504  1.00  0.00    -0.206 F 
HETATM   30  C   UNL     1      39.949 -10.629  -4.623  1.00  0.00     0.044 A 
HETATM   31  C   UNL     1      39.990 -11.327  -3.412  1.00  0.00     0.034 A 
ENDBRANCH   8  25
TORSDOF 4
ENDMDL
MODEL 2
REMARK VINA RESULT:      -9.2      5.493      7.211
REMARK  4 active torsions:
REMARK  status: ('A' for Active; 'I' for Inactive)
REMARK    1  A    between atoms: N_8  and  C_9 
REMARK    2  A    between atoms: C_19  and  C_20 
REMARK    3  A    between atoms: C_20  and  C_21 
REMARK    4  A    between atoms: C_24  and  C_25 
ROOT
HETATM    1  C   UNL     1      40.160 -16.618   2.113  1.00  0.00     0.069 C 
HETATM    2  C   UNL     1      40.785 -15.670   3.105  1.00  0.00     0.017 C 
HETATM    3  N   UNL     1      39.878 -14.985   3.904  1.00  0.00    -0.348 N 
HETATM    4  C   UNL     1      40.263 -13.978   4.743  1.00  0.00     0.119 A 
HETATM    5  C   UNL     1      41.559 -13.711   4.952  1.00  0.00     0.124 A 
HETATM    6  C   UNL     1      41.621 -12.635   5.953  1.00  0.00     0.280 A 
HETATM    7  O   UNL     1      42.645 -12.143   6.393  1.00  0.00    -0.265 OA
HETATM    8  N   UNL     1      40.283 -12.331   6.249  1.00  0.00    -0.236 N 
HETATM    9  N   UNL     1      39.433 -13.149   5.475  1.00  0.00    -0.179 NA
HETATM   10  C   UNL     1      42.597 -14.483   4.269  1.00  0.00     0.199 C 
HETATM   11  O   UNL     1      43.786 -14.355   4.534  1.00  0.00    -0.287 OA
HETATM   12  C   UNL     1      42.121 -15.461   3.215  1.00  0.00     0.020 C 
HETATM   13  H   UNL     1      38.901 -15.001   3.631  1.00  0.00     0.167 HD
HETATM   14  H   UNL     1      38.801 -13.704   6.053  1.00  0.00     0.155 HD
ENDROOT
BRANCH  12  15
HETATM   15  C   UNL     1      43.213 -16.093   2.386  1.00  0.00     0.083 C 
BRANCH  15  16
HETATM   16  C   UNL     1      43.581 -17.474   2.887  1.00  0.00    -0.054 A 
HETATM   17  C   UNL     1      43.674 -17.728   4.261  1.00  0.00     0.008 A 
HETATM   18  C   UNL     1      44.086 -18.977   4.731  1.00  0.00     0.008 A 
HETATM   19  C   UNL     1      44.415 -20.005   3.837  1.00  0.00    -0.055 A 
HETATM   20  C   UNL     1      44.303 -19.756   2.462  1.00  0.00     0.008 A 
HETATM   21  C   UNL     1      43.891 -18.505   1.993  1.00  0.00     0.008 A 
BRANCH  19  22
HETATM   22  C   UNL     1      44.896 -21.342   4.371  1.00  0.00     0.010 C 
HETATM   23  C   UNL     1      44.377 -21.609   5.785  1.00  0.00     0.015 C 
HETATM   24  C   UNL     1      44.518 -22.486   3.425  1.00  0.00     0.015 C 
ENDBRANCH  19  22
ENDBRANCH  15  16
ENDBRANCH  12  15
BRANCH   8  25
HETATM   25  C   UNL     1      39.751 -11.324   7.084  1.00  0.00     0.055 A 
HETATM   26  C   UNL     1      39.388 -11.596   8.411  1.00  0.00     0.034 A 
HETATM   27  C   UNL     1      38.859 -10.593   9.231  1.00  0.00     0.044 A 
HETATM   28  C   UNL     1      38.694  -9.311   8.728  1.00  0.00     0.116 A 
HETATM   29  F   UNL     1      38.190  -8.349   9.513  1.00  0.00    -0.206 F 
HETATM   30  C   UNL     1      39.050  -9.011   7.421  1.00  0.00     0.044 A 
HETATM   31  C   UNL     1      39.577 -10.014   6.601  1.00  0.00     0.034 A 
ENDBRANCH   8  25
TORSDOF 4
ENDMDL
MODEL 3
REMARK VINA RESULT:      -9.2      2.760      3.365
REMARK  4 active torsions:
REMARK  status: ('A' for Active; 'I' for Inactive)
REMARK    1  A    between atoms: N_8  and  C_9 
REMARK    2  A    between atoms: C_19  and  C_20 
REMARK    3  A    between atoms: C_20  and  C_21 
REMARK    4  A    between atoms: C_24  and  C_25 
ROOT
HETATM    1  C   UNL     1      40.606 -16.512   6.224  1.00  0.00     0.069 C 
HETATM    2  C   UNL     1      40.972 -15.733   4.985  1.00  0.00     0.017 C 
HETATM    3  N   UNL     1      39.896 -15.145   4.331  1.00  0.00    -0.348 N 
HETATM    4  C   UNL     1      40.028 -14.539   3.114  1.00  0.00     0.119 A 
HETATM    5  C   UNL     1      41.237 -14.343   2.567  1.00  0.00     0.124 A 
HETATM    6  C   UNL     1      41.027 -13.607   1.312  1.00  0.00     0.280 A 
HETATM    7  O   UNL     1      41.909 -13.247   0.552  1.00  0.00    -0.265 OA
HETATM    8  N   UNL     1      39.636 -13.441   1.211  1.00  0.00    -0.236 N 
HETATM    9  N   UNL     1      39.009 -14.045   2.320  1.00  0.00    -0.179 NA
HETATM   10  C   UNL     1      42.446 -14.793   3.256  1.00  0.00     0.199 C 
HETATM   11  O   UNL     1      43.569 -14.515   2.851  1.00  0.00    -0.287 OA
HETATM   12  C   UNL     1      42.237 -15.619   4.508  1.00  0.00     0.020 C 
HETATM   13  H   UNL     1      38.963 -15.448   4.590  1.00  0.00     0.167 HD
HETATM   14  H   UNL     1      38.440 -13.384   2.850  1.00  0.00     0.155 HD
ENDROOT
BRANCH  12  15
HETATM   15  C   UNL     1      43.487 -16.240   5.083  1.00  0.00     0.083 C 
BRANCH  15  16
HETATM   16  C   UNL     1      43.741 -17.626   4.528  1.00  0.00    -0.054 A 
HETATM   17  C   UNL     1      44.418 -18.583   5.294  1.00  0.00     0.008 A 
HETATM   18  C   UNL     1      44.724 -19.838   4.761  1.00  0.00     0.008 A 
HETATM   19  C   UNL     1      44.358 -20.168   3.449  1.00  0.00    -0.055 A 
HETATM   20  C   UNL     1      43.663 -19.216   2.691  1.00  0.00     0.008 A 
HETATM   21  C   UNL     1      43.359 -17.960   3.223  1.00  0.00     0.008 A 
BRANCH  19  22
HETATM   22  C   UNL     1      44.734 -21.525   2.881  1.00  0.00     0.010 C 
HETATM   23  C   UNL     1      44.630 -22.630   3.934  1.00  0.00     0.015 C 
HETATM   24  C   UNL     1      43.891 -21.862   1.648  1.00  0.00     0.015 C 
ENDBRANCH  19  22
ENDBRANCH  15  16
ENDBRANCH  12  15
BRANCH   8  25
HETATM   25  C   UNL     1      38.869 -12.875   0.169  1.00  0.00     0.055 A 
HETATM   26  C   UNL     1      38.324 -11.588   0.283  1.00  0.00     0.034 A 
HETATM   27  C   UNL     1      37.563 -11.035  -0.753  1.00  0.00     0.044 A 
HETATM   28  C   UNL     1      37.346 -11.767  -1.911  1.00  0.00     0.116 A 
HETATM   29  F   UNL     1      36.619 -11.239  -2.904  1.00  0.00    -0.206 F 
HETATM   30  C   UNL     1      37.876 -13.041  -2.054  1.00  0.00     0.044 A 
HETATM   31  C   UNL     1      38.636 -13.594  -1.018  1.00  0.00     0.034 A 
ENDBRANCH   8  25
TORSDOF 4
ENDMDL
MODEL 4
REMARK VINA RESULT:      -9.2      1.777      2.144
REMARK  4 active torsions:
REMARK  status: ('A' for Active; 'I' for Inactive)
REMARK    1  A    between atoms: N_8  and  C_9 
REMARK    2  A    between atoms: C_19  and  C_20 
REMARK    3  A    between atoms: C_20  and  C_21 
REMARK    4  A    between atoms: C_24  and  C_25 
ROOT
HETATM    1  C   UNL     1      42.157 -14.111   4.185  1.00  0.00     0.069 C 
HETATM    2  C   UNL     1      42.001 -14.210   2.689  1.00  0.00     0.017 C 
HETATM    3  N   UNL     1      42.427 -13.091   1.985  1.00  0.00    -0.348 N 
HETATM    4  C   UNL     1      42.214 -12.950   0.643  1.00  0.00     0.119 A 
HETATM    5  C   UNL     1      41.724 -13.961  -0.088  1.00  0.00     0.124 A 
HETATM    6  C   UNL     1      41.692 -13.505  -1.486  1.00  0.00     0.280 A 
HETATM    7  O   UNL     1      41.311 -14.169  -2.433  1.00  0.00    -0.265 OA
HETATM    8  N   UNL     1      42.174 -12.186  -1.454  1.00  0.00    -0.236 N 
HETATM    9  N   UNL     1      42.475 -11.828  -0.123  1.00  0.00    -0.179 NA
HETATM   10  C   UNL     1      41.385 -15.237   0.540  1.00  0.00     0.199 C 
HETATM   11  O   UNL     1      41.060 -16.221  -0.114  1.00  0.00    -0.287 OA
HETATM   12  C   UNL     1      41.466 -15.283   2.052  1.00  0.00     0.020 C 
HETATM   13  H   UNL     1      42.599 -12.240   2.511  1.00  0.00     0.167 HD
HETATM   14  H   UNL     1      43.449 -11.544  -0.010  1.00  0.00     0.155 HD
ENDROOT
BRANCH  12  15
HETATM   15  C   UNL     1      40.919 -16.540   2.686  1.00  0.00     0.083 C 
BRANCH  15  16
HETATM   16  C   UNL     1      41.987 -17.598   2.863  1.00  0.00    -0.054 A 
HETATM   17  C   UNL     1      42.309 -18.464   1.810  1.00  0.00     0.008 A 
HETATM   18  C   UNL     1      43.237 -19.492   1.988  1.00  0.00     0.008 A 
HETATM   19  C   UNL     1      43.870 -19.680   3.226  1.00  0.00    -0.055 A 
HETATM   20  C   UNL     1      43.561 -18.801   4.273  1.00  0.00     0.008 A 
HETATM   21  C   UNL     1      42.631 -17.772   4.094  1.00  0.00     0.008 A 
BRANCH  19  22
HETATM   22  C   UNL     1      44.848 -20.827   3.405  1.00  0.00     0.010 C 
HETATM   23  C   UNL     1      44.905 -21.302   4.858  1.00  0.00     0.015 C 
HETATM   24  C   UNL     1      44.520 -21.988   2.462  1.00  0.00     0.015 C 
ENDBRANCH  19  22
ENDBRANCH  15  16
ENDBRANCH  12  15
BRANCH   8  25
HETATM   25  C   UNL     1      42.285 -11.241  -2.497  1.00  0.00     0.055 A 
HETATM   26  C   UNL     1      42.322 -11.641  -3.840  1.00  0.00     0.034 A 
HETATM   27  C   UNL     1      42.434 -10.699  -4.868  1.00  0.00     0.044 A 
HETATM   28  C   UNL     1      42.506  -9.349  -4.557  1.00  0.00     0.116 A 
HETATM   29  F   UNL     1      42.611  -8.445  -5.540  1.00  0.00    -0.206 F 
HETATM   30  C   UNL     1      42.466  -8.923  -3.237  1.00  0.00     0.044 A 
HETATM   31  C   UNL     1      42.355  -9.865  -2.210  1.00  0.00     0.034 A 
ENDBRANCH   8  25
TORSDOF 4
ENDMDL
MODEL 5
REMARK VINA RESULT:      -9.1      2.580      3.079
REMARK  4 active torsions:
REMARK  status: ('A' for Active; 'I' for Inactive)
REMARK    1  A    between atoms: N_8  and  C_9 
REMARK    2  A    between atoms: C_19  and  C_20 
REMARK    3  A    between atoms: C_20  and  C_21 
REMARK    4  A    between atoms: C_24  and  C_25 
ROOT
HETATM    1  C   UNL     1      40.596 -16.792   5.734  1.00  0.00     0.069 C 
HETATM    2  C   UNL     1      40.945 -15.981   4.512  1.00  0.00     0.017 C 
HETATM    3  N   UNL     1      39.851 -15.520   3.789  1.00  0.00    -0.348 N 
HETATM    4  C   UNL     1      39.987 -14.907   2.576  1.00  0.00     0.119 A 
HETATM    5  C   UNL     1      41.196 -14.577   2.100  1.00  0.00     0.124 A 
HETATM    6  C   UNL     1      40.980 -13.874   0.827  1.00  0.00     0.280 A 
HETATM    7  O   UNL     1      41.859 -13.419   0.117  1.00  0.00    -0.265 OA
HETATM    8  N   UNL     1      39.587 -13.866   0.642  1.00  0.00    -0.236 N 
HETATM    9  N   UNL     1      38.967 -14.534   1.719  1.00  0.00    -0.179 NA
HETATM   10  C   UNL     1      42.404 -14.886   2.863  1.00  0.00     0.199 C 
HETATM   11  O   UNL     1      43.511 -14.484   2.523  1.00  0.00    -0.287 OA
HETATM   12  C   UNL     1      42.216 -15.726   4.108  1.00  0.00     0.020 C 
HETATM   13  H   UNL     1      38.944 -15.926   3.995  1.00  0.00     0.167 HD
HETATM   14  H   UNL     1      38.297 -13.939   2.207  1.00  0.00     0.155 HD
ENDROOT
BRANCH  12  15
HETATM   15  C   UNL     1      43.491 -16.201   4.763  1.00  0.00     0.083 C 
BRANCH  15  16
HETATM   16  C   UNL     1      43.894 -17.581   4.289  1.00  0.00    -0.054 A 
HETATM   17  C   UNL     1      43.688 -17.962   2.957  1.00  0.00     0.008 A 
HETATM   18  C   UNL     1      43.985 -19.258   2.530  1.00  0.00     0.008 A 
HETATM   19  C   UNL     1      44.497 -20.208   3.426  1.00  0.00    -0.055 A 
HETATM   20  C   UNL     1      44.721 -19.820   4.754  1.00  0.00     0.008 A 
HETATM   21  C   UNL     1      44.422 -18.522   5.181  1.00  0.00     0.008 A 
BRANCH  19  22
HETATM   22  C   UNL     1      44.777 -21.620   2.947  1.00  0.00     0.010 C 
HETATM   23  C   UNL     1      44.604 -22.646   4.068  1.00  0.00     0.015 C 
HETATM   24  C   UNL     1      43.908 -21.979   1.738  1.00  0.00     0.015 C 
ENDBRANCH  19  22
ENDBRANCH  15  16
ENDBRANCH  12  15
BRANCH   8  25
HETATM   25  C   UNL     1      38.825 -13.394  -0.448  1.00  0.00     0.055 A 
HETATM   26  C   UNL     1      37.976 -12.286  -0.317  1.00  0.00     0.034 A 
HETATM   27  C   UNL     1      37.221 -11.826  -1.402  1.00  0.00     0.044 A 
HETATM   28  C   UNL     1      37.317 -12.470  -2.627  1.00  0.00     0.116 A 
HETATM   29  F   UNL     1      36.597 -12.029  -3.667  1.00  0.00    -0.206 F 
HETATM   30  C   UNL     1      38.153 -13.565  -2.788  1.00  0.00     0.044 A 
HETATM   31  C   UNL     1      38.905 -14.026  -1.703  1.00  0.00     0.034 A 
ENDBRANCH   8  25
TORSDOF 4
ENDMDL
MODEL 6
REMARK VINA RESULT:      -8.8      4.154      4.771
REMARK  4 active torsions:
REMARK  status: ('A' for Active; 'I' for Inactive)
REMARK    1  A    between atoms: N_8  and  C_9 
REMARK    2  A    between atoms: C_19  and  C_20 
REMARK    3  A    between atoms: C_20  and  C_21 
REMARK    4  A    between atoms: C_24  and  C_25 
ROOT
HETATM    1  C   UNL     1      40.945 -18.149   0.989  1.00  0.00     0.069 C 
HETATM    2  C   UNL     1      41.128 -16.761   1.547  1.00  0.00     0.017 C 
HETATM    3  N   UNL     1      39.952 -16.038   1.706  1.00  0.00    -0.348 N 
HETATM    4  C   UNL     1      39.951 -14.716   2.050  1.00  0.00     0.119 A 
HETATM    5  C   UNL     1      41.083 -14.094   2.407  1.00  0.00     0.124 A 
HETATM    6  C   UNL     1      40.720 -12.720   2.783  1.00  0.00     0.280 A 
HETATM    7  O   UNL     1      41.499 -11.868   3.171  1.00  0.00    -0.265 OA
HETATM    8  N   UNL     1      39.331 -12.640   2.586  1.00  0.00    -0.236 N 
HETATM    9  N   UNL     1      38.854 -13.876   2.102  1.00  0.00    -0.179 NA
HETATM   10  C   UNL     1      42.355 -14.815   2.418  1.00  0.00     0.199 C 
HETATM   11  O   UNL     1      43.384 -14.318   2.863  1.00  0.00    -0.287 OA
HETATM   12  C   UNL     1      42.335 -16.221   1.856  1.00  0.00     0.020 C 
HETATM   13  H   UNL     1      39.116 -16.391   1.251  1.00  0.00     0.167 HD
HETATM   14  H   UNL     1      38.134 -14.274   2.706  1.00  0.00     0.155 HD
ENDROOT
BRANCH  12  15
HETATM   15  C   UNL     1      43.690 -16.867   1.691  1.00  0.00     0.083 C 
BRANCH  15  16
HETATM   16  C   UNL     1      43.889 -18.024   2.646  1.00  0.00    -0.054 A 
HETATM   17  C   UNL     1      43.812 -17.822   4.030  1.00  0.00     0.008 A 
HETATM   18  C   UNL     1      44.069 -18.867   4.920  1.00  0.00     0.008 A 
HETATM   19  C   UNL     1      44.410 -20.143   4.449  1.00  0.00    -0.055 A 
HETATM   20  C   UNL     1      44.468 -20.348   3.063  1.00  0.00     0.008 A 
HETATM   21  C   UNL     1      44.212 -19.301   2.173  1.00  0.00     0.008 A 
BRANCH  19  22
HETATM   22  C   UNL     1      44.721 -21.253   5.436  1.00  0.00     0.010 C 
HETATM   23  C   UNL     1      43.762 -21.238   6.628  1.00  0.00     0.015 C 
HETATM   24  C   UNL     1      44.721 -22.622   4.750  1.00  0.00     0.015 C 
ENDBRANCH  19  22
ENDBRANCH  15  16
ENDBRANCH  12  15
BRANCH   8  25
HETATM   25  C   UNL     1      38.465 -11.532   2.713  1.00  0.00     0.055 A 
HETATM   26  C   UNL     1      38.463 -10.739   3.870  1.00  0.00     0.034 A 
HETATM   27  C   UNL     1      37.600  -9.645   3.990  1.00  0.00     0.044 A 
HETATM   28  C   UNL     1      36.736  -9.335   2.950  1.00  0.00     0.116 A 
HETATM   29  F   UNL     1      35.911  -8.286   3.062  1.00  0.00    -0.206 F 
HETATM   30  C   UNL     1      36.719 -10.098   1.791  1.00  0.00     0.044 A 
HETATM   31  C   UNL     1      37.581 -11.193   1.672  1.00  0.00     0.034 A 
ENDBRANCH   8  25
TORSDOF 4
ENDMDL
MODEL 7
REMARK VINA RESULT:      -8.8      4.488      9.489
REMARK  4 active torsions:
REMARK  status: ('A' for Active; 'I' for Inactive)
REMARK    1  A    between atoms: N_8  and  C_9 
REMARK    2  A    between atoms: C_19  and  C_20 
REMARK    3  A    between atoms: C_20  and  C_21 
REMARK    4  A    between atoms: C_24  and  C_25 
ROOT
HETATM    1  C   UNL     1      38.204 -14.115   1.278  1.00  0.00     0.069 C 
HETATM    2  C   UNL     1      39.431 -14.949   1.551  1.00  0.00     0.017 C 
HETATM    3  N   UNL     1      39.550 -15.395   2.861  1.00  0.00    -0.348 N 
HETATM    4  C   UNL     1      40.673 -16.027   3.315  1.00  0.00     0.119 A 
HETATM    5  C   UNL     1      41.652 -16.387   2.472  1.00  0.00     0.124 A 
HETATM    6  C   UNL     1      42.662 -17.101   3.266  1.00  0.00     0.280 A 
HETATM    7  O   UNL     1      43.691 -17.583   2.826  1.00  0.00    -0.265 OA
HETATM    8  N   UNL     1      42.176 -17.083   4.584  1.00  0.00    -0.236 N 
HETATM    9  N   UNL     1      40.948 -16.388   4.621  1.00  0.00    -0.179 NA
HETATM   10  C   UNL     1      41.547 -16.094   1.043  1.00  0.00     0.199 C 
HETATM   11  O   UNL     1      42.356 -16.523   0.228  1.00  0.00    -0.287 OA
HETATM   12  C   UNL     1      40.375 -15.235   0.618  1.00  0.00     0.020 C 
HETATM   13  H   UNL     1      38.953 -14.969   3.562  1.00  0.00     0.167 HD
HETATM   14  H   UNL     1      40.191 -16.963   4.994  1.00  0.00     0.155 HD
ENDROOT
BRANCH  12  15
HETATM   15  C   UNL     1      40.401 -14.779  -0.821  1.00  0.00     0.083 C 
BRANCH  15  16
HETATM   16  C   UNL     1      41.265 -13.550  -1.013  1.00  0.00    -0.054 A 
HETATM   17  C   UNL     1      41.218 -12.500  -0.087  1.00  0.00     0.008 A 
HETATM   18  C   UNL     1      41.953 -11.331  -0.295  1.00  0.00     0.008 A 
HETATM   19  C   UNL     1      42.754 -11.182  -1.436  1.00  0.00    -0.055 A 
HETATM   20  C   UNL     1      42.814 -12.241  -2.352  1.00  0.00     0.008 A 
HETATM   21  C   UNL     1      42.078 -13.411  -2.143  1.00  0.00     0.008 A 
BRANCH  19  22
HETATM   22  C   UNL     1      43.514  -9.887  -1.659  1.00  0.00     0.010 C 
HETATM   23  C   UNL     1      42.913  -9.064  -2.800  1.00  0.00     0.015 C 
HETATM   24  C   UNL     1      43.593  -9.061  -0.371  1.00  0.00     0.015 C 
ENDBRANCH  19  22
ENDBRANCH  15  16
ENDBRANCH  12  15
BRANCH   8  25
HETATM   25  C   UNL     1      42.775 -17.552   5.773  1.00  0.00     0.055 A 
HETATM   26  C   UNL     1      42.849 -16.746   6.918  1.00  0.00     0.034 A 
HETATM   27  C   UNL     1      43.446 -17.217   8.092  1.00  0.00     0.044 A 
HETATM   28  C   UNL     1      43.970 -18.501   8.128  1.00  0.00     0.116 A 
HETATM   29  F   UNL     1      44.541 -18.954   9.251  1.00  0.00    -0.206 F 
HETATM   30  C   UNL     1      43.907 -19.323   7.012  1.00  0.00     0.044 A 
HETATM   31  C   UNL     1      43.311 -18.851   5.838  1.00  0.00     0.034 A 
ENDBRANCH   8  25
TORSDOF 4
ENDMDL
MODEL 8
REMARK VINA RESULT:      -8.7      4.851      9.419
REMARK  4 active torsions:
REMARK  status: ('A' for Active; 'I' for Inactive)
REMARK    1  A    between atoms: N_8  and  C_9 
REMARK    2  A    between atoms: C_19  and  C_20 
REMARK    3  A    between atoms: C_20  and  C_21 
REMARK    4  A    between atoms: C_24  and  C_25 
ROOT
HETATM    1  C   UNL     1      39.488 -13.591   5.224  1.00  0.00     0.069 C 
HETATM    2  C   UNL     1      40.279 -14.334   4.177  1.00  0.00     0.017 C 
HETATM    3  N   UNL     1      40.559 -15.658   4.493  1.00  0.00    -0.348 N 
HETATM    4  C   UNL     1      41.395 -16.426   3.733  1.00  0.00     0.119 A 
HETATM    5  C   UNL     1      41.859 -15.984   2.555  1.00  0.00     0.124 A 
HETATM    6  C   UNL     1      42.656 -17.072   1.971  1.00  0.00     0.280 A 
HETATM    7  O   UNL     1      43.225 -17.028   0.894  1.00  0.00    -0.265 OA
HETATM    8  N   UNL     1      42.608 -18.111   2.915  1.00  0.00    -0.236 N 
HETATM    9  N   UNL     1      41.844 -17.700   4.027  1.00  0.00    -0.179 NA
HETATM   10  C   UNL     1      41.494 -14.656   2.064  1.00  0.00     0.199 C 
HETATM   11  O   UNL     1      41.791 -14.272   0.938  1.00  0.00    -0.287 OA
HETATM   12  C   UNL     1      40.719 -13.775   3.021  1.00  0.00     0.020 C 
HETATM   13  H   UNL     1      40.414 -15.956   5.452  1.00  0.00     0.167 HD
HETATM   14  H   UNL     1      41.053 -18.321   4.202  1.00  0.00     0.155 HD
ENDROOT
BRANCH  12  15
HETATM   15  C   UNL     1      40.533 -12.346   2.572  1.00  0.00     0.083 C 
BRANCH  15  16
HETATM   16  C   UNL     1      39.132 -12.089   2.058  1.00  0.00    -0.054 A 
HETATM   17  C   UNL     1      38.504 -13.017   1.218  1.00  0.00     0.008 A 
HETATM   18  C   UNL     1      37.243 -12.753   0.678  1.00  0.00     0.008 A 
HETATM   19  C   UNL     1      36.577 -11.554   0.966  1.00  0.00    -0.055 A 
HETATM   20  C   UNL     1      37.198 -10.635   1.823  1.00  0.00     0.008 A 
HETATM   21  C   UNL     1      38.461 -10.899   2.362  1.00  0.00     0.008 A 
BRANCH  19  22
HETATM   22  C   UNL     1      35.224 -11.274   0.338  1.00  0.00     0.010 C 
HETATM   23  C   UNL     1      34.338 -10.426   1.251  1.00  0.00     0.015 C 
HETATM   24  C   UNL     1      35.376 -10.620  -1.039  1.00  0.00     0.015 C 
ENDBRANCH  19  22
ENDBRANCH  15  16
ENDBRANCH  12  15
BRANCH   8  25
HETATM   25  C   UNL     1      43.261 -19.363   2.912  1.00  0.00     0.055 A 
HETATM   26  C   UNL     1      43.086 -20.273   1.859  1.00  0.00     0.034 A 
HETATM   27  C   UNL     1      43.734 -21.513   1.864  1.00  0.00     0.044 A 
HETATM   28  C   UNL     1      44.566 -21.847   2.922  1.00  0.00     0.116 A 
HETATM   29  F   UNL     1      45.189 -23.032   2.928  1.00  0.00    -0.206 F 
HETATM   30  C   UNL     1      44.763 -20.965   3.975  1.00  0.00     0.044 A 
HETATM   31  C   UNL     1      44.113 -19.727   3.970  1.00  0.00     0.034 A 
ENDBRANCH   8  25
TORSDOF 4
ENDMDL
MODEL 9
REMARK VINA RESULT:      -8.4      6.532      9.436
REMARK  4 active torsions:
REMARK  status: ('A' for Active; 'I' for Inactive)
REMARK    1  A    between atoms: N_8  and  C_9 
REMARK    2  A    between atoms: C_19  and  C_20 
REMARK    3  A    between atoms: C_20  and  C_21 
REMARK    4  A    between atoms: C_24  and  C_25 
ROOT
HETATM    1  C   UNL     1      38.815 -12.198   8.377  1.00  0.00     0.069 C 
HETATM    2  C   UNL     1      39.657 -12.439   7.149  1.00  0.00     0.017 C 
HETATM    3  N   UNL     1      39.653 -13.750   6.690  1.00  0.00    -0.348 N 
HETATM    4  C   UNL     1      40.480 -14.173   5.689  1.00  0.00     0.119 A 
HETATM    5  C   UNL     1      41.223 -13.302   4.992  1.00  0.00     0.124 A 
HETATM    6  C   UNL     1      41.928 -14.070   3.955  1.00  0.00     0.280 A 
HETATM    7  O   UNL     1      42.688 -13.600   3.127  1.00  0.00    -0.265 OA
HETATM    8  N   UNL     1      41.534 -15.403   4.153  1.00  0.00    -0.236 N 
HETATM    9  N   UNL     1      40.652 -15.474   5.252  1.00  0.00    -0.179 NA
HETATM   10  C   UNL     1      41.179 -11.873   5.302  1.00  0.00     0.199 C 
HETATM   11  O   UNL     1      41.741 -11.037   4.604  1.00  0.00    -0.287 OA
HETATM   12  C   UNL     1      40.392 -11.478   6.533  1.00  0.00     0.020 C 
HETATM   13  H   UNL     1      39.283 -14.466   7.308  1.00  0.00     0.167 HD
HETATM   14  H   UNL     1      39.751 -15.882   4.998  1.00  0.00     0.155 HD
ENDROOT
BRANCH  12  15
HETATM   15  C   UNL     1      40.529 -10.032   6.947  1.00  0.00     0.083 C 
BRANCH  15  16
HETATM   16  C   UNL     1      41.249  -9.885   8.271  1.00  0.00    -0.054 A 
HETATM   17  C   UNL     1      42.436 -10.587   8.514  1.00  0.00     0.008 A 
HETATM   18  C   UNL     1      43.066 -10.517   9.759  1.00  0.00     0.008 A 
HETATM   19  C   UNL     1      42.524  -9.742  10.793  1.00  0.00    -0.055 A 
HETATM   20  C   UNL     1      41.346  -9.024  10.542  1.00  0.00     0.008 A 
HETATM   21  C   UNL     1      40.716  -9.095   9.296  1.00  0.00     0.008 A 
BRANCH  19  22
HETATM   22  C   UNL     1      43.206  -9.711  12.149  1.00  0.00     0.010 C 
HETATM   23  C   UNL     1      42.798  -8.481  12.962  1.00  0.00     0.015 C 
HETATM   24  C   UNL     1      42.940 -10.999  12.933  1.00  0.00     0.015 C 
ENDBRANCH  19  22
ENDBRANCH  15  16
ENDBRANCH  12  15
BRANCH   8  25
HETATM   25  C   UNL     1      41.963 -16.577   3.496  1.00  0.00     0.055 A 
HETATM   26  C   UNL     1      42.892 -17.444   4.088  1.00  0.00     0.034 A 
HETATM   27  C   UNL     1      43.314 -18.605   3.430  1.00  0.00     0.044 A 
HETATM   28  C   UNL     1      42.804 -18.905   2.175  1.00  0.00     0.116 A 
HETATM   29  F   UNL     1      43.205 -20.017   1.544  1.00  0.00    -0.206 F 
HETATM   30  C   UNL     1      41.880 -18.069   1.567  1.00  0.00     0.044 A 
HETATM   31  C   UNL     1      41.460 -16.909   2.224  1.00  0.00     0.034 A 
ENDBRANCH   8  25
TORSDOF 4
ENDMDL
MODEL 10
REMARK VINA RESULT:      -8.2      4.319      9.497
REMARK  4 active torsions:
REMARK  status: ('A' for Active; 'I' for Inactive)
REMARK    1  A    between atoms: N_8  and  C_9 
REMARK    2  A    between atoms: C_19  and  C_20 
REMARK    3  A    between atoms: C_20  and  C_21 
REMARK    4  A    between atoms: C_24  and  C_25 
ROOT
HETATM    1  C   UNL     1      37.593 -13.701   1.013  1.00  0.00     0.069 C 
HETATM    2  C   UNL     1      38.911 -14.395   0.776  1.00  0.00     0.017 C 
HETATM    3  N   UNL     1      39.185 -15.437   1.653  1.00  0.00    -0.348 N 
HETATM    4  C   UNL     1      40.397 -16.067   1.680  1.00  0.00     0.119 A 
HETATM    5  C   UNL     1      41.327 -15.814   0.749  1.00  0.00     0.124 A 
HETATM    6  C   UNL     1      42.464 -16.704   1.024  1.00  0.00     0.280 A 
HETATM    7  O   UNL     1      43.491 -16.755   0.370  1.00  0.00    -0.265 OA
HETATM    8  N   UNL     1      42.095 -17.432   2.167  1.00  0.00    -0.236 N 
HETATM    9  N   UNL     1      40.816 -17.016   2.594  1.00  0.00    -0.179 NA
HETATM   10  C   UNL     1      41.073 -14.838  -0.311  1.00  0.00     0.199 C 
HETATM   11  O   UNL     1      41.844 -14.678  -1.249  1.00  0.00    -0.287 OA
HETATM   12  C   UNL     1      39.794 -14.037  -0.191  1.00  0.00     0.020 C 
HETATM   13  H   UNL     1      38.614 -15.514   2.489  1.00  0.00     0.167 HD
HETATM   14  H   UNL     1      40.151 -17.790   2.629  1.00  0.00     0.155 HD
ENDROOT
BRANCH  12  15
HETATM   15  C   UNL     1      39.652 -12.901  -1.177  1.00  0.00     0.083 C 
BRANCH  15  16
HETATM   16  C   UNL     1      38.571 -13.170  -2.203  1.00  0.00    -0.054 A 
HETATM   17  C   UNL     1      37.643 -12.175  -2.531  1.00  0.00     0.008 A 
HETATM   18  C   UNL     1      36.596 -12.438  -3.418  1.00  0.00     0.008 A 
HETATM   19  C   UNL     1      36.453 -13.705  -4.002  1.00  0.00    -0.055 A 
HETATM   20  C   UNL     1      37.395 -14.694  -3.687  1.00  0.00     0.008 A 
HETATM   21  C   UNL     1      38.441 -14.430  -2.798  1.00  0.00     0.008 A 
BRANCH  19  22
HETATM   22  C   UNL     1      35.288 -13.977  -4.934  1.00  0.00     0.010 C 
HETATM   23  C   UNL     1      34.133 -13.001  -4.701  1.00  0.00     0.015 C 
HETATM   24  C   UNL     1      35.733 -13.957  -6.399  1.00  0.00     0.015 C 
ENDBRANCH  19  22
ENDBRANCH  15  16
ENDBRANCH  12  15
BRANCH   8  25
HETATM   25  C   UNL     1      42.836 -18.371   2.916  1.00  0.00     0.055 A 
HETATM   26  C   UNL     1      43.009 -18.223   4.300  1.00  0.00     0.034 A 
HETATM   27  C   UNL     1      43.747 -19.156   5.036  1.00  0.00     0.044 A 
HETATM   28  C   UNL     1      44.312 -20.247   4.391  1.00  0.00     0.116 A 
HETATM   29  F   UNL     1      45.017 -21.142   5.095  1.00  0.00    -0.206 F 
HETATM   30  C   UNL     1      44.153 -20.422   3.024  1.00  0.00     0.044 A 
HETATM   31  C   UNL     1      43.417 -19.487   2.289  1.00  0.00     0.034 A 
ENDBRANCH   8  25
TORSDOF 4
ENDMDL
