MODEL 1
REMARK VINA RESULT:      -8.8      0.000      0.000
REMARK  4 active torsions:
REMARK  status: ('A' for Active; 'I' for Inactive)
REMARK    1  A    between atoms: C_9  and  C_10 
REMARK    2  A    between atoms: C_17  and  C_18 
REMARK       I    between atoms: C_18  and  N_19 
REMARK    3  A    between atoms: N_19  and  C_20 
REMARK    4  A    between atoms: C_23  and  O_24 
ROOT
HETATM    1  C   UNL     1      43.100 -13.229   4.017  1.00  0.00     0.070 C 
HETATM    2  C   UNL     1      43.025 -14.608   4.623  1.00  0.00     0.037 C 
HETATM    3  N   UNL     1      43.673 -14.763   5.844  1.00  0.00    -0.192 N 
HETATM    4  C   UNL     1      43.494 -15.836   6.639  1.00  0.00     0.725 A 
HETATM    5  N   UNL     1      42.774 -16.904   6.175  1.00  0.00    -0.084 N 
HETATM    6  N   UNL     1      42.624 -17.846   7.129  1.00  0.00    -0.149 NA
HETATM    7  C   UNL     1      43.321 -17.296   8.130  1.00  0.00     0.275 A 
HETATM    8  N   UNL     1      43.874 -16.068   7.870  1.00  0.00    -0.054 NA
HETATM    9  C   UNL     1      42.197 -16.981   4.828  1.00  0.00     0.202 C 
HETATM   10  C   UNL     1      42.327 -15.647   4.099  1.00  0.00     0.062 C 
HETATM   11  H   UNL     1      44.108 -13.939   6.253  1.00  0.00     0.184 HD
ENDROOT
BRANCH  10  12
HETATM   12  C   UNL     1      41.529 -15.577   2.846  1.00  0.00     0.256 C 
HETATM   13  N   UNL     1      42.274 -15.247   1.736  1.00  0.00    -0.323 N 
HETATM   14  H   UNL     1      43.267 -15.104   1.871  1.00  0.00     0.169 HD
HETATM   15  O   UNL     1      40.338 -15.856   2.895  1.00  0.00    -0.267 OA
BRANCH  13  16
HETATM   16  C   UNL     1      41.805 -15.074   0.416  1.00  0.00     0.035 A 
HETATM   17  C   UNL     1      41.423 -16.123  -0.420  1.00  0.00     0.032 A 
HETATM   18  C   UNL     1      40.958 -15.862  -1.714  1.00  0.00     0.039 A 
HETATM   19  C   UNL     1      40.858 -14.556  -2.192  1.00  0.00     0.068 A 
HETATM   20  C   UNL     1      41.238 -13.504  -1.362  1.00  0.00     0.039 A 
HETATM   21  C   UNL     1      41.713 -13.764  -0.069  1.00  0.00     0.032 A 
BRANCH  19  22
HETATM   22  O   UNL     1      40.381 -14.448  -3.468  1.00  0.00    -0.356 OA
HETATM   23  C   UNL     1      39.393 -15.388  -3.870  1.00  0.00     0.210 C 
ENDBRANCH  19  22
ENDBRANCH  13  16
ENDBRANCH  10  12
BRANCH   9  24
HETATM   24  C   UNL     1      42.835 -18.124   4.038  1.00  0.00    -0.028 A 
HETATM   25  C   UNL     1      43.921 -18.825   4.592  1.00  0.00     0.011 A 
HETATM   26  C   UNL     1      44.516 -19.882   3.898  1.00  0.00     0.024 A 
HETATM   27  C   UNL     1      44.028 -20.251   2.647  1.00  0.00     0.034 A 
HETATM   28 CL   UNL     1      44.765 -21.549   1.789  1.00  0.00    -0.084 Cl
HETATM   29  C   UNL     1      42.946 -19.577   2.086  1.00  0.00     0.024 A 
HETATM   30  C   UNL     1      42.348 -18.523   2.779  1.00  0.00     0.011 A 
ENDBRANCH   9  24
TORSDOF 4
ENDMDL
MODEL 2
REMARK VINA RESULT:      -8.8      3.423      7.451
REMARK  4 active torsions:
REMARK  status: ('A' for Active; 'I' for Inactive)
REMARK    1  A    between atoms: C_9  and  C_10 
REMARK    2  A    between atoms: C_17  and  C_18 
REMARK       I    between atoms: C_18  and  N_19 
REMARK    3  A    between atoms: N_19  and  C_20 
REMARK    4  A    between atoms: C_23  and  O_24 
ROOT
HETATM    1  C   UNL     1      41.447 -12.900   3.463  1.00  0.00     0.070 C 
HETATM    2  C   UNL     1      41.642 -12.723   1.978  1.00  0.00     0.037 C 
HETATM    3  N   UNL     1      41.758 -11.407   1.541  1.00  0.00    -0.192 N 
HETATM    4  C   UNL     1      42.186 -11.079   0.306  1.00  0.00     0.725 A 
HETATM    5  N   UNL     1      42.369 -12.065  -0.626  1.00  0.00    -0.084 N 
HETATM    6  N   UNL     1      42.880 -11.568  -1.772  1.00  0.00    -0.149 NA
HETATM    7  C   UNL     1      42.936 -10.265  -1.472  1.00  0.00     0.275 A 
HETATM    8  N   UNL     1      42.517  -9.924  -0.211  1.00  0.00    -0.054 NA
HETATM    9  C   UNL     1      42.092 -13.486  -0.383  1.00  0.00     0.202 C 
HETATM   10  C   UNL     1      41.778 -13.738   1.088  1.00  0.00     0.062 C 
HETATM   11  H   UNL     1      41.744 -10.674   2.246  1.00  0.00     0.184 HD
ENDROOT
BRANCH  10  12
HETATM   12  C   UNL     1      41.755 -15.181   1.450  1.00  0.00     0.256 C 
HETATM   13  N   UNL     1      42.988 -15.680   1.806  1.00  0.00    -0.323 N 
HETATM   14  H   UNL     1      43.766 -15.033   1.804  1.00  0.00     0.169 HD
HETATM   15  O   UNL     1      40.680 -15.766   1.450  1.00  0.00    -0.267 OA
BRANCH  13  16
HETATM   16  C   UNL     1      43.297 -17.008   2.170  1.00  0.00     0.035 A 
HETATM   17  C   UNL     1      43.521 -18.035   1.254  1.00  0.00     0.032 A 
HETATM   18  C   UNL     1      43.833 -19.324   1.700  1.00  0.00     0.039 A 
HETATM   19  C   UNL     1      43.935 -19.608   3.061  1.00  0.00     0.068 A 
HETATM   20  C   UNL     1      43.711 -18.587   3.982  1.00  0.00     0.039 A 
HETATM   21  C   UNL     1      43.389 -17.297   3.536  1.00  0.00     0.032 A 
BRANCH  19  22
HETATM   22  O   UNL     1      44.253 -20.904   3.354  1.00  0.00    -0.356 OA
HETATM   23  C   UNL     1      44.228 -21.835   2.278  1.00  0.00     0.210 C 
ENDBRANCH  19  22
ENDBRANCH  13  16
ENDBRANCH  10  12
BRANCH   9  24
HETATM   24  C   UNL     1      40.966 -13.974  -1.296  1.00  0.00    -0.028 A 
HETATM   25  C   UNL     1      39.674 -13.441  -1.146  1.00  0.00     0.011 A 
HETATM   26  C   UNL     1      38.629 -13.859  -1.974  1.00  0.00     0.024 A 
HETATM   27  C   UNL     1      38.867 -14.810  -2.962  1.00  0.00     0.034 A 
HETATM   28 CL   UNL     1      37.580 -15.331  -3.978  1.00  0.00    -0.084 Cl
HETATM   29  C   UNL     1      40.143 -15.342  -3.135  1.00  0.00     0.024 A 
HETATM   30  C   UNL     1      41.189 -14.923  -2.311  1.00  0.00     0.011 A 
ENDBRANCH   9  24
TORSDOF 4
ENDMDL
MODEL 3
REMARK VINA RESULT:      -8.8      3.128      6.759
REMARK  4 active torsions:
REMARK  status: ('A' for Active; 'I' for Inactive)
REMARK    1  A    between atoms: C_9  and  C_10 
REMARK    2  A    between atoms: C_17  and  C_18 
REMARK       I    between atoms: C_18  and  N_19 
REMARK    3  A    between atoms: N_19  and  C_20 
REMARK    4  A    between atoms: C_23  and  O_24 
ROOT
HETATM    1  C   UNL     1      41.338 -15.746  -0.994  1.00  0.00     0.070 C 
HETATM    2  C   UNL     1      40.995 -14.978   0.258  1.00  0.00     0.037 C 
HETATM    3  N   UNL     1      40.636 -13.648   0.067  1.00  0.00    -0.192 N 
HETATM    4  C   UNL     1      40.061 -12.897   1.026  1.00  0.00     0.725 A 
HETATM    5  N   UNL     1      39.960 -13.393   2.298  1.00  0.00    -0.084 N 
HETATM    6  N   UNL     1      39.283 -12.548   3.103  1.00  0.00    -0.149 NA
HETATM    7  C   UNL     1      39.046 -11.539   2.256  1.00  0.00     0.275 A 
HETATM    8  N   UNL     1      39.509 -11.712   0.976  1.00  0.00    -0.054 NA
HETATM    9  C   UNL     1      40.478 -14.703   2.711  1.00  0.00     0.202 C 
HETATM   10  C   UNL     1      40.949 -15.511   1.505  1.00  0.00     0.062 C 
HETATM   11  H   UNL     1      40.592 -13.306  -0.891  1.00  0.00     0.184 HD
ENDROOT
BRANCH  10  12
HETATM   12  C   UNL     1      41.230 -16.937   1.821  1.00  0.00     0.256 C 
HETATM   13  N   UNL     1      42.528 -17.169   2.218  1.00  0.00    -0.323 N 
HETATM   14  H   UNL     1      43.145 -16.368   2.271  1.00  0.00     0.169 HD
HETATM   15  O   UNL     1      40.310 -17.742   1.755  1.00  0.00    -0.267 OA
BRANCH  13  16
HETATM   16  C   UNL     1      43.107 -18.411   2.554  1.00  0.00     0.035 A 
HETATM   17  C   UNL     1      43.184 -19.497   1.683  1.00  0.00     0.032 A 
HETATM   18  C   UNL     1      43.786 -20.692   2.094  1.00  0.00     0.039 A 
HETATM   19  C   UNL     1      44.326 -20.821   3.373  1.00  0.00     0.068 A 
HETATM   20  C   UNL     1      44.251 -19.740   4.249  1.00  0.00     0.039 A 
HETATM   21  C   UNL     1      43.641 -18.546   3.841  1.00  0.00     0.032 A 
BRANCH  19  22
HETATM   22  O   UNL     1      44.889 -22.038   3.637  1.00  0.00    -0.356 OA
HETATM   23  C   UNL     1      45.051 -22.391   5.005  1.00  0.00     0.210 C 
ENDBRANCH  19  22
ENDBRANCH  13  16
ENDBRANCH  10  12
BRANCH   9  24
HETATM   24  C   UNL     1      41.588 -14.536   3.750  1.00  0.00    -0.028 A 
HETATM   25  C   UNL     1      41.436 -15.115   5.023  1.00  0.00     0.011 A 
HETATM   26  C   UNL     1      42.439 -14.989   5.988  1.00  0.00     0.024 A 
HETATM   27  C   UNL     1      43.604 -14.288   5.688  1.00  0.00     0.034 A 
HETATM   28 CL   UNL     1      44.837 -14.127   6.878  1.00  0.00    -0.084 Cl
HETATM   29  C   UNL     1      43.779 -13.717   4.430  1.00  0.00     0.024 A 
HETATM   30  C   UNL     1      42.779 -13.845   3.463  1.00  0.00     0.011 A 
ENDBRANCH   9  24
TORSDOF 4
ENDMDL
MODEL 4
REMARK VINA RESULT:      -8.6      3.540      6.395
REMARK  4 active torsions:
REMARK  status: ('A' for Active; 'I' for Inactive)
REMARK    1  A    between atoms: C_9  and  C_10 
REMARK    2  A    between atoms: C_17  and  C_18 
REMARK       I    between atoms: C_18  and  N_19 
REMARK    3  A    between atoms: N_19  and  C_20 
REMARK    4  A    between atoms: C_23  and  O_24 
ROOT
HETATM    1  C   UNL     1      40.691 -16.233   6.680  1.00  0.00     0.070 C 
HETATM    2  C   UNL     1      40.556 -14.989   5.838  1.00  0.00     0.037 C 
HETATM    3  N   UNL     1      39.660 -14.036   6.313  1.00  0.00    -0.192 N 
HETATM    4  C   UNL     1      39.605 -12.778   5.835  1.00  0.00     0.725 A 
HETATM    5  N   UNL     1      40.340 -12.446   4.729  1.00  0.00    -0.084 N 
HETATM    6  N   UNL     1      40.233 -11.131   4.444  1.00  0.00    -0.149 NA
HETATM    7  C   UNL     1      39.377 -10.743   5.397  1.00  0.00     0.275 A 
HETATM    8  N   UNL     1      38.966 -11.721   6.267  1.00  0.00    -0.054 NA
HETATM    9  C   UNL     1      41.179 -13.395   3.986  1.00  0.00     0.202 C 
HETATM   10  C   UNL     1      41.284 -14.726   4.723  1.00  0.00     0.062 C 
HETATM   11  H   UNL     1      39.200 -14.226   7.200  1.00  0.00     0.184 HD
ENDROOT
BRANCH  10  12
HETATM   12  C   UNL     1      42.327 -15.630   4.168  1.00  0.00     0.256 C 
HETATM   13  N   UNL     1      41.898 -16.926   3.994  1.00  0.00    -0.323 N 
HETATM   14  H   UNL     1      40.937 -17.132   4.238  1.00  0.00     0.169 HD
HETATM   15  O   UNL     1      43.417 -15.154   3.876  1.00  0.00    -0.267 OA
BRANCH  13  16
HETATM   16  C   UNL     1      42.656 -18.018   3.518  1.00  0.00     0.035 A 
HETATM   17  C   UNL     1      42.644 -18.457   2.195  1.00  0.00     0.032 A 
HETATM   18  C   UNL     1      43.436 -19.543   1.804  1.00  0.00     0.039 A 
HETATM   19  C   UNL     1      44.257 -20.201   2.720  1.00  0.00     0.068 A 
HETATM   20  C   UNL     1      44.272 -19.767   4.043  1.00  0.00     0.039 A 
HETATM   21  C   UNL     1      43.472 -18.685   4.438  1.00  0.00     0.032 A 
BRANCH  19  22
HETATM   22  O   UNL     1      44.980 -21.237   2.200  1.00  0.00    -0.356 OA
HETATM   23  C   UNL     1      44.264 -22.217   1.459  1.00  0.00     0.210 C 
ENDBRANCH  19  22
ENDBRANCH  13  16
ENDBRANCH  10  12
BRANCH   9  24
HETATM   24  C   UNL     1      40.651 -13.573   2.562  1.00  0.00    -0.028 A 
HETATM   25  C   UNL     1      41.458 -13.197   1.474  1.00  0.00     0.011 A 
HETATM   26  C   UNL     1      41.006 -13.361   0.161  1.00  0.00     0.024 A 
HETATM   27  C   UNL     1      39.747 -13.907  -0.075  1.00  0.00     0.034 A 
HETATM   28 CL   UNL     1      39.188 -14.103  -1.690  1.00  0.00    -0.084 Cl
HETATM   29  C   UNL     1      38.938 -14.297   0.990  1.00  0.00     0.024 A 
HETATM   30  C   UNL     1      39.388 -14.137   2.302  1.00  0.00     0.011 A 
ENDBRANCH   9  24
TORSDOF 4
ENDMDL
MODEL 5
REMARK VINA RESULT:      -8.5      2.712      4.150
REMARK  4 active torsions:
REMARK  status: ('A' for Active; 'I' for Inactive)
REMARK    1  A    between atoms: C_9  and  C_10 
REMARK    2  A    between atoms: C_17  and  C_18 
REMARK       I    between atoms: C_18  and  N_19 
REMARK    3  A    between atoms: N_19  and  C_20 
REMARK    4  A    between atoms: C_23  and  O_24 
ROOT
HETATM    1  C   UNL     1      43.067 -19.760   2.098  1.00  0.00     0.070 C 
HETATM    2  C   UNL     1      43.278 -18.897   3.317  1.00  0.00     0.037 C 
HETATM    3  N   UNL     1      43.406 -19.581   4.521  1.00  0.00    -0.192 N 
HETATM    4  C   UNL     1      43.849 -18.999   5.653  1.00  0.00     0.725 A 
HETATM    5  N   UNL     1      44.033 -17.643   5.683  1.00  0.00    -0.084 N 
HETATM    6  N   UNL     1      44.559 -17.245   6.861  1.00  0.00    -0.149 NA
HETATM    7  C   UNL     1      44.621 -18.414   7.510  1.00  0.00     0.275 A 
HETATM    8  N   UNL     1      44.192 -19.512   6.807  1.00  0.00    -0.054 NA
HETATM    9  C   UNL     1      43.745 -16.750   4.554  1.00  0.00     0.202 C 
HETATM   10  C   UNL     1      43.415 -17.547   3.296  1.00  0.00     0.062 C 
HETATM   11  H   UNL     1      43.391 -20.598   4.488  1.00  0.00     0.184 HD
ENDROOT
BRANCH  10  12
HETATM   12  C   UNL     1      43.380 -16.718   2.062  1.00  0.00     0.256 C 
HETATM   13  N   UNL     1      42.133 -16.208   1.776  1.00  0.00    -0.323 N 
HETATM   14  H   UNL     1      41.385 -16.426   2.422  1.00  0.00     0.169 HD
HETATM   15  O   UNL     1      44.427 -16.523   1.458  1.00  0.00    -0.267 OA
BRANCH  13  16
HETATM   16  C   UNL     1      41.772 -15.413   0.667  1.00  0.00     0.035 A 
HETATM   17  C   UNL     1      41.354 -15.930  -0.559  1.00  0.00     0.032 A 
HETATM   18  C   UNL     1      41.003 -15.069  -1.606  1.00  0.00     0.039 A 
HETATM   19  C   UNL     1      41.054 -13.685  -1.446  1.00  0.00     0.068 A 
HETATM   20  C   UNL     1      41.472 -13.163  -0.224  1.00  0.00     0.039 A 
HETATM   21  C   UNL     1      41.833 -14.023   0.822  1.00  0.00     0.032 A 
BRANCH  19  22
HETATM   22  O   UNL     1      40.677 -12.967  -2.546  1.00  0.00    -0.356 OA
HETATM   23  C   UNL     1      39.968 -13.666  -3.561  1.00  0.00     0.210 C 
ENDBRANCH  19  22
ENDBRANCH  13  16
ENDBRANCH  10  12
BRANCH   9  24
HETATM   24  C   UNL     1      42.625 -15.774   4.918  1.00  0.00    -0.028 A 
HETATM   25  C   UNL     1      41.384 -16.276   5.348  1.00  0.00     0.011 A 
HETATM   26  C   UNL     1      40.347 -15.408   5.699  1.00  0.00     0.024 A 
HETATM   27  C   UNL     1      40.542 -14.031   5.629  1.00  0.00     0.034 A 
HETATM   28 CL   UNL     1      39.263 -12.961   6.054  1.00  0.00    -0.084 Cl
HETATM   29  C   UNL     1      41.769 -13.514   5.217  1.00  0.00     0.024 A 
HETATM   30  C   UNL     1      42.808 -14.380   4.869  1.00  0.00     0.011 A 
ENDBRANCH   9  24
TORSDOF 4
ENDMDL
MODEL 6
REMARK VINA RESULT:      -8.3      3.428      7.223
REMARK  4 active torsions:
REMARK  status: ('A' for Active; 'I' for Inactive)
REMARK    1  A    between atoms: C_9  and  C_10 
REMARK    2  A    between atoms: C_17  and  C_18 
REMARK       I    between atoms: C_18  and  N_19 
REMARK    3  A    between atoms: N_19  and  C_20 
REMARK    4  A    between atoms: C_23  and  O_24 
ROOT
HETATM    1  C   UNL     1      41.334 -15.757  -1.156  1.00  0.00     0.070 C 
HETATM    2  C   UNL     1      40.635 -14.888  -0.140  1.00  0.00     0.037 C 
HETATM    3  N   UNL     1      40.147 -13.677  -0.621  1.00  0.00    -0.192 N 
HETATM    4  C   UNL     1      39.287 -12.905   0.072  1.00  0.00     0.725 A 
HETATM    5  N   UNL     1      38.991 -13.226   1.369  1.00  0.00    -0.084 N 
HETATM    6  N   UNL     1      38.052 -12.400   1.877  1.00  0.00    -0.149 NA
HETATM    7  C   UNL     1      37.863 -11.575   0.840  1.00  0.00     0.275 A 
HETATM    8  N   UNL     1      38.603 -11.848  -0.283  1.00  0.00    -0.054 NA
HETATM    9  C   UNL     1      39.584 -14.359   2.090  1.00  0.00     0.202 C 
HETATM   10  C   UNL     1      40.401 -15.239   1.150  1.00  0.00     0.062 C 
HETATM   11  H   UNL     1      40.259 -13.487  -1.614  1.00  0.00     0.184 HD
ENDROOT
BRANCH  10  12
HETATM   12  C   UNL     1      40.801 -16.539   1.753  1.00  0.00     0.256 C 
HETATM   13  N   UNL     1      42.155 -16.653   1.969  1.00  0.00    -0.323 N 
HETATM   14  H   UNL     1      42.732 -15.859   1.721  1.00  0.00     0.169 HD
HETATM   15  O   UNL     1      39.923 -17.343   2.041  1.00  0.00    -0.267 OA
BRANCH  13  16
HETATM   16  C   UNL     1      42.842 -17.768   2.497  1.00  0.00     0.035 A 
HETATM   17  C   UNL     1      43.196 -18.891   1.750  1.00  0.00     0.032 A 
HETATM   18  C   UNL     1      43.887 -19.950   2.351  1.00  0.00     0.039 A 
HETATM   19  C   UNL     1      44.244 -19.903   3.698  1.00  0.00     0.068 A 
HETATM   20  C   UNL     1      43.893 -18.784   4.449  1.00  0.00     0.039 A 
HETATM   21  C   UNL     1      43.192 -17.727   3.852  1.00  0.00     0.032 A 
BRANCH  19  22
HETATM   22  O   UNL     1      44.922 -21.000   4.149  1.00  0.00    -0.356 OA
HETATM   23  C   UNL     1      44.581 -22.253   3.570  1.00  0.00     0.210 C 
ENDBRANCH  19  22
ENDBRANCH  13  16
ENDBRANCH  10  12
BRANCH   9  24
HETATM   24  C   UNL     1      40.417 -13.863   3.272  1.00  0.00    -0.028 A 
HETATM   25  C   UNL     1      39.975 -14.114   4.583  1.00  0.00     0.011 A 
HETATM   26  C   UNL     1      40.723 -13.683   5.682  1.00  0.00     0.024 A 
HETATM   27  C   UNL     1      41.921 -13.004   5.482  1.00  0.00     0.034 A 
HETATM   28 CL   UNL     1      42.840 -12.468   6.835  1.00  0.00    -0.084 Cl
HETATM   29  C   UNL     1      42.383 -12.757   4.191  1.00  0.00     0.024 A 
HETATM   30  C   UNL     1      41.639 -13.189   3.091  1.00  0.00     0.011 A 
ENDBRANCH   9  24
TORSDOF 4
ENDMDL
MODEL 7
REMARK VINA RESULT:      -8.2      3.484      6.192
REMARK  4 active torsions:
REMARK  status: ('A' for Active; 'I' for Inactive)
REMARK    1  A    between atoms: C_9  and  C_10 
REMARK    2  A    between atoms: C_17  and  C_18 
REMARK       I    between atoms: C_18  and  N_19 
REMARK    3  A    between atoms: N_19  and  C_20 
REMARK    4  A    between atoms: C_23  and  O_24 
ROOT
HETATM    1  C   UNL     1      44.654 -17.317   6.551  1.00  0.00     0.070 C 
HETATM    2  C   UNL     1      44.063 -17.843   5.268  1.00  0.00     0.037 C 
HETATM    3  N   UNL     1      44.835 -18.783   4.592  1.00  0.00    -0.192 N 
HETATM    4  C   UNL     1      44.357 -19.536   3.582  1.00  0.00     0.725 A 
HETATM    5  N   UNL     1      43.112 -19.272   3.077  1.00  0.00    -0.084 N 
HETATM    6  N   UNL     1      42.763 -20.173   2.135  1.00  0.00    -0.149 NA
HETATM    7  C   UNL     1      43.869 -20.926   2.093  1.00  0.00     0.275 A 
HETATM    8  N   UNL     1      44.870 -20.567   2.960  1.00  0.00    -0.054 NA
HETATM    9  C   UNL     1      42.252 -18.177   3.544  1.00  0.00     0.202 C 
HETATM   10  C   UNL     1      42.836 -17.516   4.789  1.00  0.00     0.062 C 
HETATM   11  H   UNL     1      45.708 -19.073   5.026  1.00  0.00     0.184 HD
ENDROOT
BRANCH  10  12
HETATM   12  C   UNL     1      41.889 -16.589   5.466  1.00  0.00     0.256 C 
HETATM   13  N   UNL     1      41.973 -15.291   5.016  1.00  0.00    -0.323 N 
HETATM   14  H   UNL     1      42.639 -15.099   4.279  1.00  0.00     0.169 HD
HETATM   15  O   UNL     1      41.113 -17.049   6.293  1.00  0.00    -0.267 OA
BRANCH  13  16
HETATM   16  C   UNL     1      41.234 -14.180   5.478  1.00  0.00     0.035 A 
HETATM   17  C   UNL     1      39.841 -14.137   5.530  1.00  0.00     0.032 A 
HETATM   18  C   UNL     1      39.187 -12.998   6.013  1.00  0.00     0.039 A 
HETATM   19  C   UNL     1      39.908 -11.890   6.458  1.00  0.00     0.068 A 
HETATM   20  C   UNL     1      41.299 -11.926   6.408  1.00  0.00     0.039 A 
HETATM   21  C   UNL     1      41.956 -13.063   5.916  1.00  0.00     0.032 A 
BRANCH  19  22
HETATM   22  O   UNL     1      39.142 -10.853   6.910  1.00  0.00    -0.356 OA
HETATM   23  C   UNL     1      39.630 -10.132   8.035  1.00  0.00     0.210 C 
ENDBRANCH  19  22
ENDBRANCH  13  16
ENDBRANCH  10  12
BRANCH   9  24
HETATM   24  C   UNL     1      42.017 -17.166   2.422  1.00  0.00    -0.028 A 
HETATM   25  C   UNL     1      40.701 -16.872   2.022  1.00  0.00     0.011 A 
HETATM   26  C   UNL     1      40.456 -15.942   1.007  1.00  0.00     0.024 A 
HETATM   27  C   UNL     1      41.521 -15.295   0.388  1.00  0.00     0.034 A 
HETATM   28 CL   UNL     1      41.220 -14.155  -0.866  1.00  0.00    -0.084 Cl
HETATM   29  C   UNL     1      42.832 -15.564   0.779  1.00  0.00     0.024 A 
HETATM   30  C   UNL     1      43.079 -16.490   1.794  1.00  0.00     0.011 A 
ENDBRANCH   9  24
TORSDOF 4
ENDMDL
MODEL 8
REMARK VINA RESULT:      -7.9      3.333      5.376
REMARK  4 active torsions:
REMARK  status: ('A' for Active; 'I' for Inactive)
REMARK    1  A    between atoms: C_9  and  C_10 
REMARK    2  A    between atoms: C_17  and  C_18 
REMARK       I    between atoms: C_18  and  N_19 
REMARK    3  A    between atoms: N_19  and  C_20 
REMARK    4  A    between atoms: C_23  and  O_24 
ROOT
HETATM    1  C   UNL     1      44.224 -14.877   7.247  1.00  0.00     0.070 C 
HETATM    2  C   UNL     1      43.869 -16.013   6.320  1.00  0.00     0.037 C 
HETATM    3  N   UNL     1      44.846 -16.992   6.168  1.00  0.00    -0.192 N 
HETATM    4  C   UNL     1      44.605 -18.186   5.593  1.00  0.00     0.725 A 
HETATM    5  N   UNL     1      43.401 -18.407   4.982  1.00  0.00    -0.084 N 
HETATM    6  N   UNL     1      43.301 -19.678   4.538  1.00  0.00    -0.149 NA
HETATM    7  C   UNL     1      44.506 -20.151   4.878  1.00  0.00     0.275 A 
HETATM    8  N   UNL     1      45.336 -19.269   5.521  1.00  0.00    -0.054 NA
HETATM    9  C   UNL     1      42.337 -17.400   4.876  1.00  0.00     0.202 C 
HETATM   10  C   UNL     1      42.669 -16.164   5.706  1.00  0.00     0.062 C 
HETATM   11  H   UNL     1      45.698 -16.894   6.716  1.00  0.00     0.184 HD
ENDROOT
BRANCH  10  12
HETATM   12  C   UNL     1      41.522 -15.229   5.859  1.00  0.00     0.256 C 
HETATM   13  N   UNL     1      41.732 -13.999   5.276  1.00  0.00    -0.323 N 
HETATM   14  H   UNL     1      42.613 -13.859   4.799  1.00  0.00     0.169 HD
HETATM   15  O   UNL     1      40.511 -15.631   6.421  1.00  0.00    -0.267 OA
BRANCH  13  16
HETATM   16  C   UNL     1      40.852 -12.896   5.275  1.00  0.00     0.035 A 
HETATM   17  C   UNL     1      40.903 -11.857   6.204  1.00  0.00     0.032 A 
HETATM   18  C   UNL     1      39.997 -10.793   6.124  1.00  0.00     0.039 A 
HETATM   19  C   UNL     1      39.034 -10.743   5.116  1.00  0.00     0.068 A 
HETATM   20  C   UNL     1      38.977 -11.778   4.186  1.00  0.00     0.039 A 
HETATM   21  C   UNL     1      39.878 -12.849   4.270  1.00  0.00     0.032 A 
BRANCH  19  22
HETATM   22  O   UNL     1      38.222  -9.645   5.154  1.00  0.00    -0.356 OA
HETATM   23  C   UNL     1      38.655  -8.549   5.951  1.00  0.00     0.210 C 
ENDBRANCH  19  22
ENDBRANCH  13  16
ENDBRANCH  10  12
BRANCH   9  24
HETATM   24  C   UNL     1      42.080 -17.048   3.410  1.00  0.00    -0.028 A 
HETATM   25  C   UNL     1      43.170 -16.794   2.559  1.00  0.00     0.011 A 
HETATM   26  C   UNL     1      42.965 -16.482   1.212  1.00  0.00     0.024 A 
HETATM   27  C   UNL     1      41.671 -16.426   0.703  1.00  0.00     0.034 A 
HETATM   28 CL   UNL     1      41.418 -16.035  -0.954  1.00  0.00    -0.084 Cl
HETATM   29  C   UNL     1      40.578 -16.686   1.527  1.00  0.00     0.024 A 
HETATM   30  C   UNL     1      40.780 -17.001   2.872  1.00  0.00     0.011 A 
ENDBRANCH   9  24
TORSDOF 4
ENDMDL
MODEL 9
REMARK VINA RESULT:      -7.8      3.605      6.788
REMARK  4 active torsions:
REMARK  status: ('A' for Active; 'I' for Inactive)
REMARK    1  A    between atoms: C_9  and  C_10 
REMARK    2  A    between atoms: C_17  and  C_18 
REMARK       I    between atoms: C_18  and  N_19 
REMARK    3  A    between atoms: N_19  and  C_20 
REMARK    4  A    between atoms: C_23  and  O_24 
ROOT
HETATM    1  C   UNL     1      40.236 -14.094   5.731  1.00  0.00     0.070 C 
HETATM    2  C   UNL     1      40.311 -13.218   4.506  1.00  0.00     0.037 C 
HETATM    3  N   UNL     1      39.418 -12.151   4.476  1.00  0.00    -0.192 N 
HETATM    4  C   UNL     1      39.518 -11.135   3.597  1.00  0.00     0.725 A 
HETATM    5  N   UNL     1      40.430 -11.214   2.579  1.00  0.00    -0.084 N 
HETATM    6  N   UNL     1      40.453 -10.078   1.851  1.00  0.00    -0.149 NA
HETATM    7  C   UNL     1      39.492  -9.375   2.462  1.00  0.00     0.275 A 
HETATM    8  N   UNL     1      38.892  -9.988   3.533  1.00  0.00    -0.054 NA
HETATM    9  C   UNL     1      41.307 -12.369   2.351  1.00  0.00     0.202 C 
HETATM   10  C   UNL     1      41.212 -13.364   3.503  1.00  0.00     0.062 C 
HETATM   11  H   UNL     1      38.819 -12.017   5.287  1.00  0.00     0.184 HD
ENDROOT
BRANCH  10  12
HETATM   12  C   UNL     1      42.265 -14.414   3.466  1.00  0.00     0.256 C 
HETATM   13  N   UNL     1      41.794 -15.655   3.101  1.00  0.00    -0.323 N 
HETATM   14  H   UNL     1      40.809 -15.730   2.884  1.00  0.00     0.169 HD
HETATM   15  O   UNL     1      43.422 -14.090   3.702  1.00  0.00    -0.267 OA
BRANCH  13  16
HETATM   16  C   UNL     1      42.535 -16.853   3.004  1.00  0.00     0.035 A 
HETATM   17  C   UNL     1      42.678 -17.769   4.046  1.00  0.00     0.032 A 
HETATM   18  C   UNL     1      43.422 -18.939   3.860  1.00  0.00     0.039 A 
HETATM   19  C   UNL     1      44.028 -19.219   2.636  1.00  0.00     0.068 A 
HETATM   20  C   UNL     1      43.890 -18.308   1.592  1.00  0.00     0.039 A 
HETATM   21  C   UNL     1      43.152 -17.131   1.779  1.00  0.00     0.032 A 
BRANCH  19  22
HETATM   22  O   UNL     1      44.716 -20.399   2.594  1.00  0.00    -0.356 OA
HETATM   23  C   UNL     1      44.719 -21.188   3.778  1.00  0.00     0.210 C 
ENDBRANCH  19  22
ENDBRANCH  13  16
ENDBRANCH  10  12
BRANCH   9  24
HETATM   24  C   UNL     1      40.987 -13.024   1.006  1.00  0.00    -0.028 A 
HETATM   25  C   UNL     1      41.968 -13.049  -0.001  1.00  0.00     0.011 A 
HETATM   26  C   UNL     1      41.708 -13.652  -1.234  1.00  0.00     0.024 A 
HETATM   27  C   UNL     1      40.468 -14.240  -1.470  1.00  0.00     0.034 A 
HETATM   28 CL   UNL     1      40.145 -14.977  -2.991  1.00  0.00    -0.084 Cl
HETATM   29  C   UNL     1      39.488 -14.237  -0.481  1.00  0.00     0.024 A 
HETATM   30  C   UNL     1      39.746 -13.638   0.754  1.00  0.00     0.011 A 
ENDBRANCH   9  24
TORSDOF 4
ENDMDL
MODEL 10
REMARK VINA RESULT:      -7.8      4.333      8.855
REMARK  4 active torsions:
REMARK  status: ('A' for Active; 'I' for Inactive)
REMARK    1  A    between atoms: C_9  and  C_10 
REMARK    2  A    between atoms: C_17  and  C_18 
REMARK       I    between atoms: C_18  and  N_19 
REMARK    3  A    between atoms: N_19  and  C_20 
REMARK    4  A    between atoms: C_23  and  O_24 
ROOT
HETATM    1  C   UNL     1      39.104 -15.967  -4.095  1.00  0.00     0.070 C 
HETATM    2  C   UNL     1      38.975 -14.654  -3.364  1.00  0.00     0.037 C 
HETATM    3  N   UNL     1      38.014 -13.780  -3.865  1.00  0.00    -0.192 N 
HETATM    4  C   UNL     1      37.591 -12.691  -3.193  1.00  0.00     0.725 A 
HETATM    5  N   UNL     1      38.232 -12.321  -2.042  1.00  0.00    -0.084 N 
HETATM    6  N   UNL     1      37.624 -11.266  -1.460  1.00  0.00    -0.149 NA
HETATM    7  C   UNL     1      36.649 -11.025  -2.344  1.00  0.00     0.275 A 
HETATM    8  N   UNL     1      36.597 -11.873  -3.422  1.00  0.00    -0.054 NA
HETATM    9  C   UNL     1      39.397 -13.021  -1.489  1.00  0.00     0.202 C 
HETATM   10  C   UNL     1      39.665 -14.319  -2.245  1.00  0.00     0.062 C 
HETATM   11  H   UNL     1      37.451 -14.101  -4.648  1.00  0.00     0.184 HD
ENDROOT
BRANCH  10  12
HETATM   12  C   UNL     1      40.654 -15.203  -1.572  1.00  0.00     0.256 C 
HETATM   13  N   UNL     1      40.483 -15.285  -0.208  1.00  0.00    -0.323 N 
HETATM   14  H   UNL     1      39.713 -14.765   0.193  1.00  0.00     0.169 HD
HETATM   15  O   UNL     1      41.471 -15.799  -2.263  1.00  0.00    -0.267 OA
BRANCH  13  16
HETATM   16  C   UNL     1      41.272 -16.013   0.707  1.00  0.00     0.035 A 
HETATM   17  C   UNL     1      41.150 -17.385   0.925  1.00  0.00     0.032 A 
HETATM   18  C   UNL     1      41.983 -18.031   1.846  1.00  0.00     0.039 A 
HETATM   19  C   UNL     1      42.953 -17.326   2.556  1.00  0.00     0.068 A 
HETATM   20  C   UNL     1      43.080 -15.955   2.344  1.00  0.00     0.039 A 
HETATM   21  C   UNL     1      42.241 -15.304   1.429  1.00  0.00     0.032 A 
BRANCH  19  22
HETATM   22  O   UNL     1      43.699 -18.084   3.413  1.00  0.00    -0.356 OA
HETATM   23  C   UNL     1      44.174 -19.333   2.926  1.00  0.00     0.210 C 
ENDBRANCH  19  22
ENDBRANCH  13  16
ENDBRANCH  10  12
BRANCH   9  24
HETATM   24  C   UNL     1      40.620 -12.104  -1.485  1.00  0.00    -0.028 A 
HETATM   25  C   UNL     1      41.180 -11.703  -0.259  1.00  0.00     0.011 A 
HETATM   26  C   UNL     1      42.306 -10.875  -0.226  1.00  0.00     0.024 A 
HETATM   27  C   UNL     1      42.884 -10.444  -1.416  1.00  0.00     0.034 A 
HETATM   28 CL   UNL     1      44.266  -9.419  -1.376  1.00  0.00    -0.084 Cl
HETATM   29  C   UNL     1      42.352 -10.840  -2.642  1.00  0.00     0.024 A 
HETATM   30  C   UNL     1      41.229 -11.670  -2.677  1.00  0.00     0.011 A 
ENDBRANCH   9  24
TORSDOF 4
ENDMDL
