MODEL 1
REMARK VINA RESULT:      -9.9      0.000      0.000
REMARK  7 active torsions:
REMARK  status: ('A' for Active; 'I' for Inactive)
REMARK    1  A    between atoms: C_3  and  C_4 
REMARK    2  A    between atoms: N_5  and  C_6 
REMARK    3  A    between atoms: C_9  and  N_10 
REMARK       I    between atoms: N_10  and  C_11 
REMARK       I    between atoms: C_11  and  N_12 
REMARK    4  A    between atoms: N_12  and  C_13 
REMARK    5  A    between atoms: C_15  and  C_16 
REMARK    6  A    between atoms: C_32  and  C_33 
REMARK    7  A    between atoms: C_33  and  N_34 
ROOT
HETATM    1  C   UNL     1      39.996 -12.197   6.305  1.00  0.00     0.169 C 
HETATM    2  C   UNL     1      41.343 -12.396   5.629  1.00  0.00     0.179 C 
HETATM    3  C   UNL     1      41.267 -13.779   4.998  1.00  0.00     0.177 C 
HETATM    4  C   UNL     1      42.448 -14.552   5.569  1.00  0.00     0.141 C 
HETATM    5  C   UNL     1      43.303 -13.465   6.220  1.00  0.00     0.196 C 
HETATM    6  O   UNL     1      42.403 -12.409   6.601  1.00  0.00    -0.379 OA
HETATM    7  O   UNL     1      40.020 -14.369   5.411  1.00  0.00    -0.379 OA
HETATM    8  C   UNL     1      39.130 -13.265   5.647  1.00  0.00     0.198 C 
ENDROOT
BRANCH   1   9
HETATM    9  N   UNL     1      39.506 -10.847   6.207  1.00  0.00    -0.221 N 
HETATM   10  C   UNL     1      39.346  -9.875   7.174  1.00  0.00     0.182 A 
HETATM   11  N   UNL     1      39.022  -8.758   6.543  1.00  0.00    -0.108 NA
HETATM   12  N   UNL     1      38.956  -9.049   5.212  1.00  0.00    -0.023 NA
HETATM   13  N   UNL     1      39.261 -10.315   4.995  1.00  0.00    -0.043 NA
BRANCH  10  14
HETATM   14  C   UNL     1      39.569  -9.953   8.619  1.00  0.00     0.014 A 
HETATM   15  C   UNL     1      38.562  -9.781   9.572  1.00  0.00     0.015 A 
HETATM   16  C   UNL     1      38.855  -9.841  10.937  1.00  0.00     0.002 A 
HETATM   17  C   UNL     1      40.164 -10.041  11.373  1.00  0.00     0.009 A 
HETATM   18  C   UNL     1      41.203 -10.167  10.443  1.00  0.00    -0.032 A 
HETATM   19  C   UNL     1      40.888 -10.132   9.074  1.00  0.00     0.024 A 
BRANCH  18  20
HETATM   20  C   UNL     1      42.627 -10.335  10.896  1.00  0.00     0.273 C 
BRANCH  20  21
HETATM   21  N   UNL     1      43.298 -11.545  10.307  1.00  0.00    -0.067 N 
HETATM   22  H   UNL     1      42.547 -12.144   9.941  1.00  0.00     0.280 HD
HETATM   23  C   UNL     1      44.081 -12.358  11.319  1.00  0.00     0.235 C 
HETATM   24  C   UNL     1      45.515 -12.302  10.832  1.00  0.00     0.029 C 
HETATM   25  C   UNL     1      45.367 -12.230   9.326  1.00  0.00     0.029 C 
HETATM   26  C   UNL     1      44.230 -11.243   9.149  1.00  0.00     0.235 C 
ENDBRANCH  20  21
ENDBRANCH  18  20
ENDBRANCH  10  14
ENDBRANCH   1   9
BRANCH   4  27
HETATM   27  N   UNL     1      43.131 -15.404   4.599  1.00  0.00    -0.334 N 
HETATM   28  C   UNL     1      43.015 -16.779   4.638  1.00  0.00     0.321 C 
HETATM   29  N   UNL     1      43.827 -17.378   3.702  1.00  0.00    -0.309 N 
HETATM   30  O   UNL     1      42.261 -17.338   5.424  1.00  0.00    -0.247 OA
HETATM   31  H   UNL     1      44.397 -16.762   3.143  1.00  0.00     0.170 HD
HETATM   32  H   UNL     1      44.008 -15.043   4.249  1.00  0.00     0.164 HD
BRANCH  29  33
HETATM   33  C   UNL     1      43.952 -18.755   3.427  1.00  0.00     0.037 A 
HETATM   34  C   UNL     1      44.291 -19.715   4.385  1.00  0.00     0.045 A 
HETATM   35  C   UNL     1      44.377 -21.078   4.047  1.00  0.00     0.050 A 
HETATM   36  C   UNL     1      44.140 -21.469   2.722  1.00  0.00     0.016 A 
HETATM   37  C   UNL     1      43.805 -20.519   1.759  1.00  0.00     0.003 A 
HETATM   38  C   UNL     1      43.706 -19.172   2.113  1.00  0.00     0.029 A 
BRANCH  35  39
HETATM   39  C   UNL     1      44.741 -22.109   5.087  1.00  0.00     0.417 C 
HETATM   40  F   UNL     1      46.082 -22.332   5.189  1.00  0.00    -0.166 F 
HETATM   41  F   UNL     1      44.332 -21.757   6.338  1.00  0.00    -0.166 F 
HETATM   42  F   UNL     1      44.178 -23.323   4.836  1.00  0.00    -0.166 F 
ENDBRANCH  35  39
ENDBRANCH  29  33
ENDBRANCH   4  27
TORSDOF 7
ENDMDL
MODEL 2
REMARK VINA RESULT:      -9.8      1.785      2.431
REMARK  7 active torsions:
REMARK  status: ('A' for Active; 'I' for Inactive)
REMARK    1  A    between atoms: C_3  and  C_4 
REMARK    2  A    between atoms: N_5  and  C_6 
REMARK    3  A    between atoms: C_9  and  N_10 
REMARK       I    between atoms: N_10  and  C_11 
REMARK       I    between atoms: C_11  and  N_12 
REMARK    4  A    between atoms: N_12  and  C_13 
REMARK    5  A    between atoms: C_15  and  C_16 
REMARK    6  A    between atoms: C_32  and  C_33 
REMARK    7  A    between atoms: C_33  and  N_34 
ROOT
HETATM    1  C   UNL     1      41.083 -11.329   4.635  1.00  0.00     0.169 C 
HETATM    2  C   UNL     1      42.239 -12.274   4.923  1.00  0.00     0.179 C 
HETATM    3  C   UNL     1      42.316 -13.186   3.707  1.00  0.00     0.177 C 
HETATM    4  C   UNL     1      42.199 -14.602   4.253  1.00  0.00     0.141 C 
HETATM    5  C   UNL     1      42.400 -14.422   5.757  1.00  0.00     0.196 C 
HETATM    6  O   UNL     1      41.955 -13.090   6.073  1.00  0.00    -0.379 OA
HETATM    7  O   UNL     1      41.196 -12.866   2.863  1.00  0.00    -0.379 OA
HETATM    8  C   UNL     1      40.890 -11.489   3.131  1.00  0.00     0.198 C 
ENDROOT
BRANCH   1   9
HETATM    9  N   UNL     1      41.320  -9.987   5.096  1.00  0.00    -0.221 N 
HETATM   10  C   UNL     1      41.225  -9.440   6.361  1.00  0.00     0.182 A 
HETATM   11  N   UNL     1      41.708  -8.211   6.283  1.00  0.00    -0.108 NA
HETATM   12  N   UNL     1      42.066  -7.998   4.984  1.00  0.00    -0.023 NA
HETATM   13  N   UNL     1      41.846  -9.077   4.256  1.00  0.00    -0.043 NA
BRANCH  10  14
HETATM   14  C   UNL     1      40.786 -10.059   7.613  1.00  0.00     0.014 A 
HETATM   15  C   UNL     1      39.494 -10.545   7.829  1.00  0.00     0.015 A 
HETATM   16  C   UNL     1      39.138 -11.098   9.063  1.00  0.00     0.002 A 
HETATM   17  C   UNL     1      40.056 -11.144  10.110  1.00  0.00     0.009 A 
HETATM   18  C   UNL     1      41.343 -10.619   9.941  1.00  0.00    -0.032 A 
HETATM   19  C   UNL     1      41.694 -10.092   8.687  1.00  0.00     0.024 A 
BRANCH  18  20
HETATM   20  C   UNL     1      42.330 -10.617  11.075  1.00  0.00     0.273 C 
BRANCH  20  21
HETATM   21  N   UNL     1      41.829  -9.895  12.295  1.00  0.00    -0.067 N 
HETATM   22  H   UNL     1      40.948  -9.441  12.024  1.00  0.00     0.280 HD
HETATM   23  C   UNL     1      42.769  -8.813  12.790  1.00  0.00     0.235 C 
HETATM   24  C   UNL     1      43.168  -9.256  14.183  1.00  0.00     0.029 C 
HETATM   25  C   UNL     1      41.937  -9.983  14.682  1.00  0.00     0.029 C 
HETATM   26  C   UNL     1      41.519 -10.799  13.475  1.00  0.00     0.235 C 
ENDBRANCH  20  21
ENDBRANCH  18  20
ENDBRANCH  10  14
ENDBRANCH   1   9
BRANCH   4  27
HETATM   27  N   UNL     1      43.082 -15.568   3.604  1.00  0.00    -0.334 N 
HETATM   28  C   UNL     1      42.877 -16.928   3.725  1.00  0.00     0.321 C 
HETATM   29  N   UNL     1      43.888 -17.643   3.125  1.00  0.00    -0.309 N 
HETATM   30  O   UNL     1      41.895 -17.381   4.298  1.00  0.00    -0.247 OA
HETATM   31  H   UNL     1      44.632 -17.105   2.709  1.00  0.00     0.170 HD
HETATM   32  H   UNL     1      44.043 -15.273   3.499  1.00  0.00     0.164 HD
BRANCH  29  33
HETATM   33  C   UNL     1      44.004 -19.045   3.018  1.00  0.00     0.037 A 
HETATM   34  C   UNL     1      44.344 -19.883   4.084  1.00  0.00     0.045 A 
HETATM   35  C   UNL     1      44.421 -21.278   3.913  1.00  0.00     0.050 A 
HETATM   36  C   UNL     1      44.174 -21.825   2.646  1.00  0.00     0.016 A 
HETATM   37  C   UNL     1      43.838 -20.996   1.578  1.00  0.00     0.003 A 
HETATM   38  C   UNL     1      43.748 -19.616   1.766  1.00  0.00     0.029 A 
BRANCH  35  39
HETATM   39  C   UNL     1      44.786 -22.178   5.068  1.00  0.00     0.417 C 
HETATM   40  F   UNL     1      44.547 -21.623   6.289  1.00  0.00    -0.166 F 
HETATM   41  F   UNL     1      44.091 -23.351   5.056  1.00  0.00    -0.166 F 
HETATM   42  F   UNL     1      46.102 -22.523   5.064  1.00  0.00    -0.166 F 
ENDBRANCH  35  39
ENDBRANCH  29  33
ENDBRANCH   4  27
TORSDOF 7
ENDMDL
MODEL 3
REMARK VINA RESULT:      -9.5      5.813      9.411
REMARK  7 active torsions:
REMARK  status: ('A' for Active; 'I' for Inactive)
REMARK    1  A    between atoms: C_3  and  C_4 
REMARK    2  A    between atoms: N_5  and  C_6 
REMARK    3  A    between atoms: C_9  and  N_10 
REMARK       I    between atoms: N_10  and  C_11 
REMARK       I    between atoms: C_11  and  N_12 
REMARK    4  A    between atoms: N_12  and  C_13 
REMARK    5  A    between atoms: C_15  and  C_16 
REMARK    6  A    between atoms: C_32  and  C_33 
REMARK    7  A    between atoms: C_33  and  N_34 
ROOT
HETATM    1  C   UNL     1      41.624 -15.174   5.540  1.00  0.00     0.169 C 
HETATM    2  C   UNL     1      41.720 -15.290   4.027  1.00  0.00     0.179 C 
HETATM    3  C   UNL     1      40.408 -14.721   3.504  1.00  0.00     0.177 C 
HETATM    4  C   UNL     1      39.798 -15.825   2.651  1.00  0.00     0.141 C 
HETATM    5  C   UNL     1      40.948 -16.814   2.473  1.00  0.00     0.196 C 
HETATM    6  O   UNL     1      41.797 -16.670   3.626  1.00  0.00    -0.379 OA
HETATM    7  O   UNL     1      39.581 -14.437   4.647  1.00  0.00    -0.379 OA
HETATM    8  C   UNL     1      40.491 -14.172   5.726  1.00  0.00     0.198 C 
ENDROOT
BRANCH   1   9
HETATM    9  N   UNL     1      42.875 -14.826   6.162  1.00  0.00    -0.221 N 
HETATM   10  C   UNL     1      43.883 -15.625   6.662  1.00  0.00     0.182 A 
HETATM   11  N   UNL     1      44.889 -14.823   6.972  1.00  0.00    -0.108 NA
HETATM   12  N   UNL     1      44.491 -13.548   6.692  1.00  0.00    -0.023 NA
HETATM   13  N   UNL     1      43.272 -13.540   6.186  1.00  0.00    -0.043 NA
BRANCH  10  14
HETATM   14  C   UNL     1      43.949 -17.083   6.771  1.00  0.00     0.014 A 
HETATM   15  C   UNL     1      43.615 -17.794   7.927  1.00  0.00     0.015 A 
HETATM   16  C   UNL     1      43.730 -19.187   7.966  1.00  0.00     0.002 A 
HETATM   17  C   UNL     1      44.213 -19.889   6.862  1.00  0.00     0.009 A 
HETATM   18  C   UNL     1      44.603 -19.201   5.707  1.00  0.00    -0.032 A 
HETATM   19  C   UNL     1      44.455 -17.804   5.674  1.00  0.00     0.024 A 
BRANCH  18  20
HETATM   20  C   UNL     1      45.171 -19.938   4.526  1.00  0.00     0.273 C 
BRANCH  20  21
HETATM   21  N   UNL     1      44.139 -20.725   3.766  1.00  0.00    -0.067 N 
HETATM   22  H   UNL     1      43.302 -20.758   4.361  1.00  0.00     0.280 HD
HETATM   23  C   UNL     1      44.555 -22.155   3.479  1.00  0.00     0.235 C 
HETATM   24  C   UNL     1      44.596 -22.248   1.967  1.00  0.00     0.029 C 
HETATM   25  C   UNL     1      43.507 -21.290   1.531  1.00  0.00     0.029 C 
HETATM   26  C   UNL     1      43.722 -20.101   2.447  1.00  0.00     0.235 C 
ENDBRANCH  20  21
ENDBRANCH  18  20
ENDBRANCH  10  14
ENDBRANCH   1   9
BRANCH   4  27
HETATM   27  N   UNL     1      39.168 -15.352   1.422  1.00  0.00    -0.334 N 
HETATM   28  C   UNL     1      39.850 -14.562   0.518  1.00  0.00     0.321 C 
HETATM   29  N   UNL     1      39.030 -14.147  -0.506  1.00  0.00    -0.309 N 
HETATM   30  O   UNL     1      41.039 -14.306   0.659  1.00  0.00    -0.247 OA
HETATM   31  H   UNL     1      38.067 -14.442  -0.457  1.00  0.00     0.170 HD
HETATM   32  H   UNL     1      38.170 -15.198   1.479  1.00  0.00     0.164 HD
BRANCH  29  33
HETATM   33  C   UNL     1      39.379 -13.360  -1.623  1.00  0.00     0.037 A 
HETATM   34  C   UNL     1      40.693 -13.019  -1.957  1.00  0.00     0.045 A 
HETATM   35  C   UNL     1      40.974 -12.248  -3.100  1.00  0.00     0.050 A 
HETATM   36  C   UNL     1      39.912 -11.798  -3.896  1.00  0.00     0.016 A 
HETATM   37  C   UNL     1      38.599 -12.129  -3.568  1.00  0.00     0.003 A 
HETATM   38  C   UNL     1      38.336 -12.910  -2.441  1.00  0.00     0.029 A 
BRANCH  35  39
HETATM   39  C   UNL     1      42.394 -11.887  -3.458  1.00  0.00     0.417 C 
HETATM   40  F   UNL     1      43.301 -12.852  -3.136  1.00  0.00    -0.166 F 
HETATM   41  F   UNL     1      42.556 -11.662  -4.793  1.00  0.00    -0.166 F 
HETATM   42  F   UNL     1      42.817 -10.754  -2.834  1.00  0.00    -0.166 F 
ENDBRANCH  35  39
ENDBRANCH  29  33
ENDBRANCH   4  27
TORSDOF 7
ENDMDL
MODEL 4
REMARK VINA RESULT:      -9.4      2.785      5.464
REMARK  7 active torsions:
REMARK  status: ('A' for Active; 'I' for Inactive)
REMARK    1  A    between atoms: C_3  and  C_4 
REMARK    2  A    between atoms: N_5  and  C_6 
REMARK    3  A    between atoms: C_9  and  N_10 
REMARK       I    between atoms: N_10  and  C_11 
REMARK       I    between atoms: C_11  and  N_12 
REMARK    4  A    between atoms: N_12  and  C_13 
REMARK    5  A    between atoms: C_15  and  C_16 
REMARK    6  A    between atoms: C_32  and  C_33 
REMARK    7  A    between atoms: C_33  and  N_34 
ROOT
HETATM    1  C   UNL     1      40.127 -12.524   6.243  1.00  0.00     0.169 C 
HETATM    2  C   UNL     1      41.412 -12.697   5.449  1.00  0.00     0.179 C 
HETATM    3  C   UNL     1      41.352 -14.118   4.907  1.00  0.00     0.177 C 
HETATM    4  C   UNL     1      42.624 -14.795   5.400  1.00  0.00     0.141 C 
HETATM    5  C   UNL     1      43.476 -13.630   5.901  1.00  0.00     0.196 C 
HETATM    6  O   UNL     1      42.560 -12.598   6.311  1.00  0.00    -0.379 OA
HETATM    7  O   UNL     1      40.186 -14.742   5.473  1.00  0.00    -0.379 OA
HETATM    8  C   UNL     1      39.263 -13.672   5.734  1.00  0.00     0.198 C 
ENDROOT
BRANCH   1   9
HETATM    9  N   UNL     1      39.556 -11.209   6.119  1.00  0.00    -0.221 N 
HETATM   10  C   UNL     1      39.247 -10.466   4.997  1.00  0.00     0.182 A 
HETATM   11  N   UNL     1      38.590  -9.396   5.417  1.00  0.00    -0.108 NA
HETATM   12  N   UNL     1      38.524  -9.470   6.778  1.00  0.00    -0.023 NA
HETATM   13  N   UNL     1      39.097 -10.576   7.214  1.00  0.00    -0.043 NA
BRANCH  10  14
HETATM   14  C   UNL     1      39.473 -10.773   3.584  1.00  0.00     0.014 A 
HETATM   15  C   UNL     1      40.393 -10.097   2.778  1.00  0.00     0.015 A 
HETATM   16  C   UNL     1      40.534 -10.427   1.427  1.00  0.00     0.002 A 
HETATM   17  C   UNL     1      39.736 -11.415   0.851  1.00  0.00     0.009 A 
HETATM   18  C   UNL     1      38.771 -12.075   1.620  1.00  0.00    -0.032 A 
HETATM   19  C   UNL     1      38.660 -11.752   2.983  1.00  0.00     0.024 A 
BRANCH  18  20
HETATM   20  C   UNL     1      37.868 -13.108   1.005  1.00  0.00     0.273 C 
BRANCH  20  21
HETATM   21  N   UNL     1      38.586 -14.377   0.634  1.00  0.00    -0.067 N 
HETATM   22  H   UNL     1      37.868 -15.028   0.294  1.00  0.00     0.280 HD
HETATM   23  C   UNL     1      39.289 -15.040   1.802  1.00  0.00     0.235 C 
HETATM   24  C   UNL     1      40.757 -15.031   1.425  1.00  0.00     0.029 C 
HETATM   25  C   UNL     1      40.727 -15.160  -0.084  1.00  0.00     0.029 C 
HETATM   26  C   UNL     1      39.606 -14.219  -0.478  1.00  0.00     0.235 C 
ENDBRANCH  20  21
ENDBRANCH  18  20
ENDBRANCH  10  14
ENDBRANCH   1   9
BRANCH   4  27
HETATM   27  N   UNL     1      43.256 -15.669   4.416  1.00  0.00    -0.334 N 
HETATM   28  C   UNL     1      43.163 -17.044   4.506  1.00  0.00     0.321 C 
HETATM   29  N   UNL     1      43.923 -17.663   3.539  1.00  0.00    -0.309 N 
HETATM   30  O   UNL     1      42.468 -17.586   5.355  1.00  0.00    -0.247 OA
HETATM   31  H   UNL     1      44.448 -17.058   2.926  1.00  0.00     0.170 HD
HETATM   32  H   UNL     1      44.104 -15.309   3.999  1.00  0.00     0.164 HD
BRANCH  29  33
HETATM   33  C   UNL     1      44.050 -19.047   3.301  1.00  0.00     0.037 A 
HETATM   34  C   UNL     1      44.377 -19.982   4.286  1.00  0.00     0.045 A 
HETATM   35  C   UNL     1      44.466 -21.354   3.984  1.00  0.00     0.050 A 
HETATM   36  C   UNL     1      44.245 -21.777   2.666  1.00  0.00     0.016 A 
HETATM   37  C   UNL     1      43.923 -20.851   1.676  1.00  0.00     0.003 A 
HETATM   38  C   UNL     1      43.820 -19.496   1.994  1.00  0.00     0.029 A 
BRANCH  35  39
HETATM   39  C   UNL     1      44.816 -22.358   5.053  1.00  0.00     0.417 C 
HETATM   40  F   UNL     1      46.142 -22.670   5.096  1.00  0.00    -0.166 F 
HETATM   41  F   UNL     1      44.502 -21.920   6.305  1.00  0.00    -0.166 F 
HETATM   42  F   UNL     1      44.159 -23.539   4.894  1.00  0.00    -0.166 F 
ENDBRANCH  35  39
ENDBRANCH  29  33
ENDBRANCH   4  27
TORSDOF 7
ENDMDL
MODEL 5
REMARK VINA RESULT:      -9.3      5.482      8.365
REMARK  7 active torsions:
REMARK  status: ('A' for Active; 'I' for Inactive)
REMARK    1  A    between atoms: C_3  and  C_4 
REMARK    2  A    between atoms: N_5  and  C_6 
REMARK    3  A    between atoms: C_9  and  N_10 
REMARK       I    between atoms: N_10  and  C_11 
REMARK       I    between atoms: C_11  and  N_12 
REMARK    4  A    between atoms: N_12  and  C_13 
REMARK    5  A    between atoms: C_15  and  C_16 
REMARK    6  A    between atoms: C_32  and  C_33 
REMARK    7  A    between atoms: C_33  and  N_34 
ROOT
HETATM    1  C   UNL     1      38.161 -12.989   1.355  1.00  0.00     0.169 C 
HETATM    2  C   UNL     1      39.677 -12.895   1.429  1.00  0.00     0.179 C 
HETATM    3  C   UNL     1      40.153 -14.329   1.618  1.00  0.00     0.177 C 
HETATM    4  C   UNL     1      40.987 -14.315   2.892  1.00  0.00     0.141 C 
HETATM    5  C   UNL     1      41.208 -12.827   3.158  1.00  0.00     0.196 C 
HETATM    6  O   UNL     1      40.084 -12.136   2.582  1.00  0.00    -0.379 OA
HETATM    7  O   UNL     1      38.981 -15.149   1.780  1.00  0.00    -0.379 OA
HETATM    8  C   UNL     1      37.933 -14.469   1.070  1.00  0.00     0.198 C 
ENDROOT
BRANCH   1   9
HETATM    9  N   UNL     1      37.582 -12.073   0.408  1.00  0.00    -0.221 N 
HETATM   10  C   UNL     1      37.630 -12.057  -0.972  1.00  0.00     0.182 A 
HETATM   11  N   UNL     1      36.799 -11.108  -1.372  1.00  0.00    -0.108 NA
HETATM   12  N   UNL     1      36.272 -10.533  -0.252  1.00  0.00    -0.023 NA
HETATM   13  N   UNL     1      36.732 -11.122   0.836  1.00  0.00    -0.043 NA
BRANCH  10  14
HETATM   14  C   UNL     1      38.350 -12.941  -1.890  1.00  0.00     0.014 A 
HETATM   15  C   UNL     1      37.727 -13.882  -2.714  1.00  0.00     0.015 A 
HETATM   16  C   UNL     1      38.484 -14.713  -3.545  1.00  0.00     0.002 A 
HETATM   17  C   UNL     1      39.876 -14.640  -3.542  1.00  0.00     0.009 A 
HETATM   18  C   UNL     1      40.532 -13.743  -2.692  1.00  0.00    -0.032 A 
HETATM   19  C   UNL     1      39.756 -12.895  -1.882  1.00  0.00     0.024 A 
BRANCH  18  20
HETATM   20  C   UNL     1      42.033 -13.685  -2.640  1.00  0.00     0.273 C 
BRANCH  20  21
HETATM   21  N   UNL     1      42.601 -12.442  -3.268  1.00  0.00    -0.067 N 
HETATM   22  H   UNL     1      43.476 -12.722  -3.728  1.00  0.00     0.280 HD
HETATM   23  C   UNL     1      42.938 -11.355  -2.266  1.00  0.00     0.235 C 
HETATM   24  C   UNL     1      42.046 -10.190  -2.645  1.00  0.00     0.029 C 
HETATM   25  C   UNL     1      41.919 -10.327  -4.148  1.00  0.00     0.029 C 
HETATM   26  C   UNL     1      41.718 -11.818  -4.332  1.00  0.00     0.235 C 
ENDBRANCH  20  21
ENDBRANCH  18  20
ENDBRANCH  10  14
ENDBRANCH   1   9
BRANCH   4  27
HETATM   27  N   UNL     1      42.192 -15.137   2.826  1.00  0.00    -0.334 N 
HETATM   28  C   UNL     1      42.224 -16.417   3.344  1.00  0.00     0.321 C 
HETATM   29  N   UNL     1      43.487 -16.958   3.269  1.00  0.00    -0.309 N 
HETATM   30  O   UNL     1      41.219 -16.953   3.791  1.00  0.00    -0.247 OA
HETATM   31  H   UNL     1      44.205 -16.366   2.880  1.00  0.00     0.170 HD
HETATM   32  H   UNL     1      43.065 -14.627   2.853  1.00  0.00     0.164 HD
BRANCH  29  33
HETATM   33  C   UNL     1      43.895 -18.248   3.666  1.00  0.00     0.037 A 
HETATM   34  C   UNL     1      43.867 -19.367   2.830  1.00  0.00     0.045 A 
HETATM   35  C   UNL     1      44.310 -20.623   3.284  1.00  0.00     0.050 A 
HETATM   36  C   UNL     1      44.763 -20.750   4.605  1.00  0.00     0.016 A 
HETATM   37  C   UNL     1      44.791 -19.640   5.447  1.00  0.00     0.003 A 
HETATM   38  C   UNL     1      44.364 -18.396   4.977  1.00  0.00     0.029 A 
BRANCH  35  39
HETATM   39  C   UNL     1      44.281 -21.827   2.375  1.00  0.00     0.417 C 
HETATM   40  F   UNL     1      43.081 -22.016   1.757  1.00  0.00    -0.166 F 
HETATM   41  F   UNL     1      45.201 -21.747   1.373  1.00  0.00    -0.166 F 
HETATM   42  F   UNL     1      44.547 -22.986   3.037  1.00  0.00    -0.166 F 
ENDBRANCH  35  39
ENDBRANCH  29  33
ENDBRANCH   4  27
TORSDOF 7
ENDMDL
MODEL 6
REMARK VINA RESULT:      -9.2      4.578      9.773
REMARK  7 active torsions:
REMARK  status: ('A' for Active; 'I' for Inactive)
REMARK    1  A    between atoms: C_3  and  C_4 
REMARK    2  A    between atoms: N_5  and  C_6 
REMARK    3  A    between atoms: C_9  and  N_10 
REMARK       I    between atoms: N_10  and  C_11 
REMARK       I    between atoms: C_11  and  N_12 
REMARK    4  A    between atoms: N_12  and  C_13 
REMARK    5  A    between atoms: C_15  and  C_16 
REMARK    6  A    between atoms: C_32  and  C_33 
REMARK    7  A    between atoms: C_33  and  N_34 
ROOT
HETATM    1  C   UNL     1      41.948 -13.579   2.268  1.00  0.00     0.169 C 
HETATM    2  C   UNL     1      41.199 -13.844   3.564  1.00  0.00     0.179 C 
HETATM    3  C   UNL     1      41.080 -12.484   4.236  1.00  0.00     0.177 C 
HETATM    4  C   UNL     1      41.707 -12.656   5.614  1.00  0.00     0.141 C 
HETATM    5  C   UNL     1      41.835 -14.171   5.759  1.00  0.00     0.196 C 
HETATM    6  O   UNL     1      41.964 -14.702   4.428  1.00  0.00    -0.379 OA
HETATM    7  O   UNL     1      41.833 -11.548   3.443  1.00  0.00    -0.379 OA
HETATM    8  C   UNL     1      41.808 -12.069   2.104  1.00  0.00     0.198 C 
ENDROOT
BRANCH   1   9
HETATM    9  N   UNL     1      41.475 -14.373   1.166  1.00  0.00    -0.221 N 
HETATM   10  C   UNL     1      41.680 -15.705   0.863  1.00  0.00     0.182 A 
HETATM   11  N   UNL     1      40.893 -15.990  -0.162  1.00  0.00    -0.108 NA
HETATM   12  N   UNL     1      40.237 -14.842  -0.500  1.00  0.00    -0.023 NA
HETATM   13  N   UNL     1      40.574 -13.855   0.309  1.00  0.00    -0.043 NA
BRANCH  10  14
HETATM   14  C   UNL     1      42.506 -16.699   1.549  1.00  0.00     0.014 A 
HETATM   15  C   UNL     1      43.562 -17.385   0.944  1.00  0.00     0.015 A 
HETATM   16  C   UNL     1      44.291 -18.344   1.655  1.00  0.00     0.002 A 
HETATM   17  C   UNL     1      43.955 -18.656   2.971  1.00  0.00     0.009 A 
HETATM   18  C   UNL     1      42.871 -18.023   3.589  1.00  0.00    -0.032 A 
HETATM   19  C   UNL     1      42.166 -17.042   2.871  1.00  0.00     0.024 A 
BRANCH  18  20
HETATM   20  C   UNL     1      42.464 -18.383   4.991  1.00  0.00     0.273 C 
BRANCH  20  21
HETATM   21  N   UNL     1      43.222 -17.620   6.043  1.00  0.00    -0.067 N 
HETATM   22  H   UNL     1      43.513 -16.735   5.607  1.00  0.00     0.280 HD
HETATM   23  C   UNL     1      44.474 -18.327   6.524  1.00  0.00     0.235 C 
HETATM   24  C   UNL     1      44.234 -18.575   7.999  1.00  0.00     0.029 C 
HETATM   25  C   UNL     1      43.388 -17.390   8.416  1.00  0.00     0.029 C 
HETATM   26  C   UNL     1      42.404 -17.263   7.270  1.00  0.00     0.235 C 
ENDBRANCH  20  21
ENDBRANCH  18  20
ENDBRANCH  10  14
ENDBRANCH   1   9
BRANCH   4  27
HETATM   27  N   UNL     1      40.991 -11.971   6.686  1.00  0.00    -0.334 N 
HETATM   28  C   UNL     1      41.663 -11.306   7.693  1.00  0.00     0.321 C 
HETATM   29  N   UNL     1      40.793 -10.832   8.649  1.00  0.00    -0.309 N 
HETATM   30  O   UNL     1      42.880 -11.179   7.678  1.00  0.00    -0.247 OA
HETATM   31  H   UNL     1      39.817 -11.041   8.509  1.00  0.00     0.170 HD
HETATM   32  H   UNL     1      40.102 -12.379   6.942  1.00  0.00     0.164 HD
BRANCH  29  33
HETATM   33  C   UNL     1      41.107 -10.081   9.800  1.00  0.00     0.037 A 
HETATM   34  C   UNL     1      41.791 -10.596  10.905  1.00  0.00     0.045 A 
HETATM   35  C   UNL     1      42.092  -9.784  12.015  1.00  0.00     0.050 A 
HETATM   36  C   UNL     1      41.674  -8.446  12.014  1.00  0.00     0.016 A 
HETATM   37  C   UNL     1      40.988  -7.926  10.919  1.00  0.00     0.003 A 
HETATM   38  C   UNL     1      40.712  -8.738   9.817  1.00  0.00     0.029 A 
BRANCH  35  39
HETATM   39  C   UNL     1      42.834 -10.345  13.203  1.00  0.00     0.417 C 
HETATM   40  F   UNL     1      43.930  -9.616  13.555  1.00  0.00    -0.166 F 
HETATM   41  F   UNL     1      42.058 -10.405  14.322  1.00  0.00    -0.166 F 
HETATM   42  F   UNL     1      43.280 -11.612  12.988  1.00  0.00    -0.166 F 
ENDBRANCH  35  39
ENDBRANCH  29  33
ENDBRANCH   4  27
TORSDOF 7
ENDMDL
MODEL 7
REMARK VINA RESULT:      -9.1      6.374      9.943
REMARK  7 active torsions:
REMARK  status: ('A' for Active; 'I' for Inactive)
REMARK    1  A    between atoms: C_3  and  C_4 
REMARK    2  A    between atoms: N_5  and  C_6 
REMARK    3  A    between atoms: C_9  and  N_10 
REMARK       I    between atoms: N_10  and  C_11 
REMARK       I    between atoms: C_11  and  N_12 
REMARK    4  A    between atoms: N_12  and  C_13 
REMARK    5  A    between atoms: C_15  and  C_16 
REMARK    6  A    between atoms: C_32  and  C_33 
REMARK    7  A    between atoms: C_33  and  N_34 
ROOT
HETATM    1  C   UNL     1      42.408 -15.308   4.622  1.00  0.00     0.169 C 
HETATM    2  C   UNL     1      43.098 -15.214   3.270  1.00  0.00     0.179 C 
HETATM    3  C   UNL     1      42.045 -14.647   2.328  1.00  0.00     0.177 C 
HETATM    4  C   UNL     1      41.930 -15.656   1.193  1.00  0.00     0.141 C 
HETATM    5  C   UNL     1      43.152 -16.552   1.389  1.00  0.00     0.196 C 
HETATM    6  O   UNL     1      43.464 -16.521   2.793  1.00  0.00    -0.379 OA
HETATM    7  O   UNL     1      40.813 -14.563   3.067  1.00  0.00    -0.379 OA
HETATM    8  C   UNL     1      41.197 -14.400   4.442  1.00  0.00     0.198 C 
ENDROOT
BRANCH   1   9
HETATM    9  N   UNL     1      43.274 -14.984   5.725  1.00  0.00    -0.221 N 
HETATM   10  C   UNL     1      43.971 -15.801   6.592  1.00  0.00     0.182 A 
HETATM   11  N   UNL     1      44.750 -15.015   7.317  1.00  0.00    -0.108 NA
HETATM   12  N   UNL     1      44.512 -13.732   6.918  1.00  0.00    -0.023 NA
HETATM   13  N   UNL     1      43.625 -13.702   5.941  1.00  0.00    -0.043 NA
BRANCH  10  14
HETATM   14  C   UNL     1      43.981 -17.262   6.689  1.00  0.00     0.014 A 
HETATM   15  C   UNL     1      43.586 -17.969   7.828  1.00  0.00     0.015 A 
HETATM   16  C   UNL     1      43.650 -19.365   7.858  1.00  0.00     0.002 A 
HETATM   17  C   UNL     1      44.141 -20.076   6.764  1.00  0.00     0.009 A 
HETATM   18  C   UNL     1      44.591 -19.394   5.628  1.00  0.00    -0.032 A 
HETATM   19  C   UNL     1      44.494 -17.992   5.602  1.00  0.00     0.024 A 
BRANCH  18  20
HETATM   20  C   UNL     1      45.168 -20.142   4.458  1.00  0.00     0.273 C 
BRANCH  20  21
HETATM   21  N   UNL     1      44.137 -20.911   3.679  1.00  0.00    -0.067 N 
HETATM   22  H   UNL     1      43.327 -21.023   4.300  1.00  0.00     0.280 HD
HETATM   23  C   UNL     1      44.595 -22.297   3.269  1.00  0.00     0.235 C 
HETATM   24  C   UNL     1      44.579 -22.276   1.754  1.00  0.00     0.029 C 
HETATM   25  C   UNL     1      43.439 -21.333   1.432  1.00  0.00     0.029 C 
HETATM   26  C   UNL     1      43.645 -20.208   2.427  1.00  0.00     0.235 C 
ENDBRANCH  20  21
ENDBRANCH  18  20
ENDBRANCH  10  14
ENDBRANCH   1   9
BRANCH   4  27
HETATM   27  N   UNL     1      41.787 -15.054  -0.129  1.00  0.00    -0.334 N 
HETATM   28  C   UNL     1      40.609 -14.450  -0.524  1.00  0.00     0.321 C 
HETATM   29  N   UNL     1      40.665 -14.053  -1.840  1.00  0.00    -0.309 N 
HETATM   30  O   UNL     1      39.671 -14.306   0.249  1.00  0.00    -0.247 OA
HETATM   31  H   UNL     1      41.517 -14.264  -2.336  1.00  0.00     0.170 HD
HETATM   32  H   UNL     1      42.328 -15.490  -0.864  1.00  0.00     0.164 HD
BRANCH  29  33
HETATM   33  C   UNL     1      39.671 -13.377  -2.578  1.00  0.00     0.037 A 
HETATM   34  C   UNL     1      38.553 -14.002  -3.135  1.00  0.00     0.045 A 
HETATM   35  C   UNL     1      37.585 -13.264  -3.842  1.00  0.00     0.050 A 
HETATM   36  C   UNL     1      37.767 -11.883  -4.005  1.00  0.00     0.016 A 
HETATM   37  C   UNL     1      38.881 -11.252  -3.457  1.00  0.00     0.003 A 
HETATM   38  C   UNL     1      39.824 -11.995  -2.742  1.00  0.00     0.029 A 
BRANCH  35  39
HETATM   39  C   UNL     1      36.378 -13.944  -4.438  1.00  0.00     0.417 C 
HETATM   40  F   UNL     1      35.225 -13.231  -4.297  1.00  0.00    -0.166 F 
HETATM   41  F   UNL     1      36.511 -14.166  -5.776  1.00  0.00    -0.166 F 
HETATM   42  F   UNL     1      36.137 -15.161  -3.878  1.00  0.00    -0.166 F 
ENDBRANCH  35  39
ENDBRANCH  29  33
ENDBRANCH   4  27
TORSDOF 7
ENDMDL
MODEL 8
REMARK VINA RESULT:      -9.1      4.391     10.180
REMARK  7 active torsions:
REMARK  status: ('A' for Active; 'I' for Inactive)
REMARK    1  A    between atoms: C_3  and  C_4 
REMARK    2  A    between atoms: N_5  and  C_6 
REMARK    3  A    between atoms: C_9  and  N_10 
REMARK       I    between atoms: N_10  and  C_11 
REMARK       I    between atoms: C_11  and  N_12 
REMARK    4  A    between atoms: N_12  and  C_13 
REMARK    5  A    between atoms: C_15  and  C_16 
REMARK    6  A    between atoms: C_32  and  C_33 
REMARK    7  A    between atoms: C_33  and  N_34 
ROOT
HETATM    1  C   UNL     1      40.311 -14.793   4.038  1.00  0.00     0.169 C 
HETATM    2  C   UNL     1      41.226 -13.581   4.108  1.00  0.00     0.179 C 
HETATM    3  C   UNL     1      41.226 -13.171   5.574  1.00  0.00     0.177 C 
HETATM    4  C   UNL     1      40.782 -11.714   5.588  1.00  0.00     0.141 C 
HETATM    5  C   UNL     1      40.882 -11.297   4.121  1.00  0.00     0.196 C 
HETATM    6  O   UNL     1      40.685 -12.490   3.341  1.00  0.00    -0.379 OA
HETATM    7  O   UNL     1      40.270 -14.006   6.251  1.00  0.00    -0.379 OA
HETATM    8  C   UNL     1      40.222 -15.228   5.497  1.00  0.00     0.198 C 
ENDROOT
BRANCH   1   9
HETATM    9  N   UNL     1      40.769 -15.797   3.114  1.00  0.00    -0.221 N 
HETATM   10  C   UNL     1      41.731 -16.777   3.254  1.00  0.00     0.182 A 
HETATM   11  N   UNL     1      41.654 -17.545   2.179  1.00  0.00    -0.108 NA
HETATM   12  N   UNL     1      40.678 -17.025   1.379  1.00  0.00    -0.023 NA
HETATM   13  N   UNL     1      40.124 -15.969   1.944  1.00  0.00    -0.043 NA
BRANCH  10  14
HETATM   14  C   UNL     1      42.630 -17.047   4.377  1.00  0.00     0.014 A 
HETATM   15  C   UNL     1      43.378 -16.063   5.028  1.00  0.00     0.015 A 
HETATM   16  C   UNL     1      44.239 -16.400   6.077  1.00  0.00     0.002 A 
HETATM   17  C   UNL     1      44.391 -17.729   6.470  1.00  0.00     0.009 A 
HETATM   18  C   UNL     1      43.692 -18.743   5.805  1.00  0.00    -0.032 A 
HETATM   19  C   UNL     1      42.810 -18.385   4.771  1.00  0.00     0.024 A 
BRANCH  18  20
HETATM   20  C   UNL     1      43.881 -20.186   6.184  1.00  0.00     0.273 C 
BRANCH  20  21
HETATM   21  N   UNL     1      44.815 -20.923   5.265  1.00  0.00    -0.067 N 
HETATM   22  H   UNL     1      45.747 -20.872   5.696  1.00  0.00     0.280 HD
HETATM   23  C   UNL     1      44.916 -20.311   3.881  1.00  0.00     0.235 C 
HETATM   24  C   UNL     1      44.408 -21.389   2.945  1.00  0.00     0.029 C 
HETATM   25  C   UNL     1      44.825 -22.671   3.634  1.00  0.00     0.029 C 
HETATM   26  C   UNL     1      44.488 -22.394   5.086  1.00  0.00     0.235 C 
ENDBRANCH  20  21
ENDBRANCH  18  20
ENDBRANCH  10  14
ENDBRANCH   1   9
BRANCH   4  27
HETATM   27  N   UNL     1      41.507 -10.877   6.539  1.00  0.00    -0.334 N 
HETATM   28  C   UNL     1      41.042 -10.674   7.824  1.00  0.00     0.321 C 
HETATM   29  N   UNL     1      41.824  -9.768   8.503  1.00  0.00    -0.309 N 
HETATM   30  O   UNL     1      40.058 -11.262   8.251  1.00  0.00    -0.247 OA
HETATM   31  H   UNL     1      42.594  -9.366   7.990  1.00  0.00     0.170 HD
HETATM   32  H   UNL     1      42.031 -10.114   6.132  1.00  0.00     0.164 HD
BRANCH  29  33
HETATM   33  C   UNL     1      41.679  -9.337   9.838  1.00  0.00     0.037 A 
HETATM   34  C   UNL     1      42.311  -9.944  10.927  1.00  0.00     0.045 A 
HETATM   35  C   UNL     1      42.140  -9.450  12.233  1.00  0.00     0.050 A 
HETATM   36  C   UNL     1      41.303  -8.344  12.439  1.00  0.00     0.016 A 
HETATM   37  C   UNL     1      40.665  -7.735  11.361  1.00  0.00     0.003 A 
HETATM   38  C   UNL     1      40.858  -8.226  10.068  1.00  0.00     0.029 A 
BRANCH  35  39
HETATM   39  C   UNL     1      42.827 -10.107  13.404  1.00  0.00     0.417 C 
HETATM   40  F   UNL     1      43.175 -11.405  13.174  1.00  0.00    -0.166 F 
HETATM   41  F   UNL     1      43.983  -9.475  13.754  1.00  0.00    -0.166 F 
HETATM   42  F   UNL     1      42.053 -10.120  14.523  1.00  0.00    -0.166 F 
ENDBRANCH  35  39
ENDBRANCH  29  33
ENDBRANCH   4  27
TORSDOF 7
ENDMDL
MODEL 9
REMARK VINA RESULT:      -9.0      1.765      2.160
REMARK  7 active torsions:
REMARK  status: ('A' for Active; 'I' for Inactive)
REMARK    1  A    between atoms: C_3  and  C_4 
REMARK    2  A    between atoms: N_5  and  C_6 
REMARK    3  A    between atoms: C_9  and  N_10 
REMARK       I    between atoms: N_10  and  C_11 
REMARK       I    between atoms: C_11  and  N_12 
REMARK    4  A    between atoms: N_12  and  C_13 
REMARK    5  A    between atoms: C_15  and  C_16 
REMARK    6  A    between atoms: C_32  and  C_33 
REMARK    7  A    between atoms: C_33  and  N_34 
ROOT
HETATM    1  C   UNL     1      39.913 -10.657   5.776  1.00  0.00     0.169 C 
HETATM    2  C   UNL     1      39.730 -11.424   4.476  1.00  0.00     0.179 C 
HETATM    3  C   UNL     1      40.154 -12.850   4.796  1.00  0.00     0.177 C 
HETATM    4  C   UNL     1      41.249 -13.184   3.793  1.00  0.00     0.141 C 
HETATM    5  C   UNL     1      41.144 -12.059   2.764  1.00  0.00     0.196 C 
HETATM    6  O   UNL     1      40.611 -10.917   3.458  1.00  0.00    -0.379 OA
HETATM    7  O   UNL     1      40.670 -12.851   6.140  1.00  0.00    -0.379 OA
HETATM    8  C   UNL     1      39.999 -11.773   6.812  1.00  0.00     0.198 C 
ENDROOT
BRANCH   1   9
HETATM    9  N   UNL     1      38.889  -9.672   6.003  1.00  0.00    -0.221 N 
HETATM   10  C   UNL     1      38.719  -8.772   7.035  1.00  0.00     0.182 A 
HETATM   11  N   UNL     1      37.719  -7.977   6.690  1.00  0.00    -0.108 NA
HETATM   12  N   UNL     1      37.265  -8.403   5.476  1.00  0.00    -0.023 NA
HETATM   13  N   UNL     1      37.978  -9.426   5.042  1.00  0.00    -0.043 NA
BRANCH  10  14
HETATM   14  C   UNL     1      39.506  -8.597   8.257  1.00  0.00     0.014 A 
HETATM   15  C   UNL     1      40.189  -7.422   8.582  1.00  0.00     0.015 A 
HETATM   16  C   UNL     1      40.945  -7.338   9.755  1.00  0.00     0.002 A 
HETATM   17  C   UNL     1      41.058  -8.436  10.605  1.00  0.00     0.009 A 
HETATM   18  C   UNL     1      40.427  -9.643  10.283  1.00  0.00    -0.032 A 
HETATM   19  C   UNL     1      39.648  -9.703   9.115  1.00  0.00     0.024 A 
BRANCH  18  20
HETATM   20  C   UNL     1      40.578 -10.852  11.164  1.00  0.00     0.273 C 
BRANCH  20  21
HETATM   21  N   UNL     1      41.966 -11.430  11.144  1.00  0.00    -0.067 N 
HETATM   22  H   UNL     1      41.855 -12.450  11.091  1.00  0.00     0.280 HD
HETATM   23  C   UNL     1      42.770 -11.121  12.392  1.00  0.00     0.235 C 
HETATM   24  C   UNL     1      43.952 -10.311  11.899  1.00  0.00     0.029 C 
HETATM   25  C   UNL     1      44.204 -10.873  10.515  1.00  0.00     0.029 C 
HETATM   26  C   UNL     1      42.804 -11.010   9.951  1.00  0.00     0.235 C 
ENDBRANCH  20  21
ENDBRANCH  18  20
ENDBRANCH  10  14
ENDBRANCH   1   9
BRANCH   4  27
HETATM   27  N   UNL     1      41.180 -14.542   3.261  1.00  0.00    -0.334 N 
HETATM   28  C   UNL     1      42.148 -15.483   3.554  1.00  0.00     0.321 C 
HETATM   29  N   UNL     1      41.938 -16.652   2.860  1.00  0.00    -0.309 N 
HETATM   30  O   UNL     1      43.050 -15.249   4.348  1.00  0.00    -0.247 OA
HETATM   31  H   UNL     1      41.148 -16.666   2.234  1.00  0.00     0.170 HD
HETATM   32  H   UNL     1      40.737 -14.630   2.357  1.00  0.00     0.164 HD
BRANCH  29  33
HETATM   33  C   UNL     1      42.696 -17.839   2.926  1.00  0.00     0.037 A 
HETATM   34  C   UNL     1      43.261 -18.340   4.102  1.00  0.00     0.045 A 
HETATM   35  C   UNL     1      43.989 -19.545   4.102  1.00  0.00     0.050 A 
HETATM   36  C   UNL     1      44.164 -20.234   2.894  1.00  0.00     0.016 A 
HETATM   37  C   UNL     1      43.608 -19.741   1.716  1.00  0.00     0.003 A 
HETATM   38  C   UNL     1      42.874 -18.554   1.735  1.00  0.00     0.029 A 
BRANCH  35  39
HETATM   39  C   UNL     1      44.594 -20.082   5.375  1.00  0.00     0.417 C 
HETATM   40  F   UNL     1      45.319 -19.158   6.067  1.00  0.00    -0.166 F 
HETATM   41  F   UNL     1      43.652 -20.538   6.249  1.00  0.00    -0.166 F 
HETATM   42  F   UNL     1      45.435 -21.128   5.152  1.00  0.00    -0.166 F 
ENDBRANCH  35  39
ENDBRANCH  29  33
ENDBRANCH   4  27
TORSDOF 7
ENDMDL
MODEL 10
REMARK VINA RESULT:      -8.8      4.902      9.997
REMARK  7 active torsions:
REMARK  status: ('A' for Active; 'I' for Inactive)
REMARK    1  A    between atoms: C_3  and  C_4 
REMARK    2  A    between atoms: N_5  and  C_6 
REMARK    3  A    between atoms: C_9  and  N_10 
REMARK       I    between atoms: N_10  and  C_11 
REMARK       I    between atoms: C_11  and  N_12 
REMARK    4  A    between atoms: N_12  and  C_13 
REMARK    5  A    between atoms: C_15  and  C_16 
REMARK    6  A    between atoms: C_32  and  C_33 
REMARK    7  A    between atoms: C_33  and  N_34 
ROOT
HETATM    1  C   UNL     1      39.485 -12.230   3.441  1.00  0.00     0.169 C 
HETATM    2  C   UNL     1      39.720 -12.909   4.781  1.00  0.00     0.179 C 
HETATM    3  C   UNL     1      39.063 -11.997   5.807  1.00  0.00     0.177 C 
HETATM    4  C   UNL     1      40.160 -11.650   6.805  1.00  0.00     0.141 C 
HETATM    5  C   UNL     1      41.269 -12.647   6.474  1.00  0.00     0.196 C 
HETATM    6  O   UNL     1      41.126 -12.973   5.079  1.00  0.00    -0.379 OA
HETATM    7  O   UNL     1      38.615 -10.821   5.107  1.00  0.00    -0.379 OA
HETATM    8  C   UNL     1      38.364 -11.246   3.758  1.00  0.00     0.198 C 
ENDROOT
BRANCH   1   9
HETATM    9  N   UNL     1      39.219 -13.158   2.374  1.00  0.00    -0.221 N 
HETATM   10  C   UNL     1      39.892 -14.299   1.986  1.00  0.00     0.182 A 
HETATM   11  N   UNL     1      39.151 -14.884   1.059  1.00  0.00    -0.108 NA
HETATM   12  N   UNL     1      38.054 -14.097   0.863  1.00  0.00    -0.023 NA
HETATM   13  N   UNL     1      38.079 -13.051   1.667  1.00  0.00    -0.043 NA
BRANCH  10  14
HETATM   14  C   UNL     1      41.132 -14.874   2.512  1.00  0.00     0.014 A 
HETATM   15  C   UNL     1      42.407 -14.415   2.174  1.00  0.00     0.015 A 
HETATM   16  C   UNL     1      43.548 -15.034   2.694  1.00  0.00     0.002 A 
HETATM   17  C   UNL     1      43.434 -16.140   3.534  1.00  0.00     0.009 A 
HETATM   18  C   UNL     1      42.171 -16.654   3.852  1.00  0.00    -0.032 A 
HETATM   19  C   UNL     1      41.034 -16.005   3.343  1.00  0.00     0.024 A 
BRANCH  18  20
HETATM   20  C   UNL     1      42.031 -17.876   4.717  1.00  0.00     0.273 C 
BRANCH  20  21
HETATM   21  N   UNL     1      43.229 -18.123   5.592  1.00  0.00    -0.067 N 
HETATM   22  H   UNL     1      43.921 -17.404   5.348  1.00  0.00     0.280 HD
HETATM   23  C   UNL     1      43.876 -19.476   5.370  1.00  0.00     0.235 C 
HETATM   24  C   UNL     1      43.743 -20.191   6.699  1.00  0.00     0.029 C 
HETATM   25  C   UNL     1      43.823 -19.064   7.708  1.00  0.00     0.029 C 
HETATM   26  C   UNL     1      42.957 -17.991   7.079  1.00  0.00     0.235 C 
ENDBRANCH  20  21
ENDBRANCH  18  20
ENDBRANCH  10  14
ENDBRANCH   1   9
BRANCH   4  27
HETATM   27  N   UNL     1      39.717 -11.629   8.196  1.00  0.00    -0.334 N 
HETATM   28  C   UNL     1      40.178 -10.679   9.086  1.00  0.00     0.321 C 
HETATM   29  N   UNL     1      39.714 -10.917  10.359  1.00  0.00    -0.309 N 
HETATM   30  O   UNL     1      40.899  -9.758   8.726  1.00  0.00    -0.247 OA
HETATM   31  H   UNL     1      39.137 -11.735  10.481  1.00  0.00     0.170 HD
HETATM   32  H   UNL     1      39.488 -12.531   8.591  1.00  0.00     0.164 HD
BRANCH  29  33
HETATM   33  C   UNL     1      39.946 -10.146  11.518  1.00  0.00     0.037 A 
HETATM   34  C   UNL     1      41.072 -10.285  12.334  1.00  0.00     0.045 A 
HETATM   35  C   UNL     1      41.253  -9.467  13.465  1.00  0.00     0.050 A 
HETATM   36  C   UNL     1      40.272  -8.517  13.783  1.00  0.00     0.016 A 
HETATM   37  C   UNL     1      39.145  -8.375  12.978  1.00  0.00     0.003 A 
HETATM   38  C   UNL     1      38.987  -9.181  11.849  1.00  0.00     0.029 A 
BRANCH  35  39
HETATM   39  C   UNL     1      42.472  -9.619  14.340  1.00  0.00     0.417 C 
HETATM   40  F   UNL     1      42.335  -9.048  15.570  1.00  0.00    -0.166 F 
HETATM   41  F   UNL     1      42.788 -10.924  14.575  1.00  0.00    -0.166 F 
HETATM   42  F   UNL     1      43.583  -9.058  13.789  1.00  0.00    -0.166 F 
ENDBRANCH  35  39
ENDBRANCH  29  33
ENDBRANCH   4  27
TORSDOF 7
ENDMDL
