MODEL 1
REMARK VINA RESULT:      -7.7      0.000      0.000
REMARK  7 active torsions:
REMARK  status: ('A' for Active; 'I' for Inactive)
REMARK    1  A    between atoms: C_5  and  N_6 
REMARK    2  A    between atoms: N_6  and  C_9 
REMARK    3  A    between atoms: C_9  and  C_10 
REMARK    4  A    between atoms: C_10  and  C_11 
REMARK    5  A    between atoms: C_10  and  C_13 
REMARK    6  A    between atoms: C_11  and  O_12 
REMARK    7  A    between atoms: C_13  and  C_14 
ROOT
HETATM    1  N   UNL     1      42.714 -17.862   5.173  1.00  0.00    -0.066 N 
HETATM    2  H   UNL     1      42.009 -17.585   4.467  1.00  0.00     0.278 HD
HETATM    3  H   UNL     1      42.355 -18.738   5.600  1.00  0.00     0.278 HD
ENDROOT
BRANCH   1   4
HETATM    4  C   UNL     1      44.017 -18.153   4.532  1.00  0.00     0.220 C 
HETATM    5  C   UNL     1      44.273 -19.623   4.423  1.00  0.00    -0.021 A 
HETATM    6  C   UNL     1      44.121 -20.081   3.106  1.00  0.00    -0.040 A 
HETATM    7  C   UNL     1      44.603 -20.490   5.455  1.00  0.00     0.010 A 
HETATM    8  C   UNL     1      44.321 -21.423   2.790  1.00  0.00    -0.055 A 
HETATM    9  C   UNL     1      43.735 -18.953   2.188  1.00  0.00     0.018 C 
HETATM   10  C   UNL     1      44.156 -21.961   1.400  1.00  0.00     0.049 C 
HETATM   11  C   UNL     1      44.642 -22.299   3.839  1.00  0.00     0.007 A 
HETATM   12  C   UNL     1      44.785 -21.839   5.154  1.00  0.00     0.001 A 
HETATM   13  C   UNL     1      44.034 -17.710   3.060  1.00  0.00     0.047 C 
HETATM   14  C   UNL     1      42.278 -19.033   1.749  1.00  0.00     0.015 C 
ENDBRANCH   1   4
BRANCH   1  15
HETATM   15  C   UNL     1      42.714 -16.829   6.247  1.00  0.00     0.240 C 
BRANCH  15  16
HETATM   16  C   UNL     1      43.305 -15.501   5.732  1.00  0.00     0.040 C 
BRANCH  16  17
HETATM   17  C   UNL     1      44.099 -14.812   6.852  1.00  0.00     0.170 C 
BRANCH  17  18
HETATM   18  O   UNL     1      43.866 -15.498   8.084  1.00  0.00    -0.400 OA
HETATM   19  H   UNL     1      44.616 -15.268   8.672  1.00  0.00     0.209 HD
ENDBRANCH  17  18
ENDBRANCH  16  17
BRANCH  16  20
HETATM   20  C   UNL     1      42.263 -14.509   5.170  1.00  0.00     0.067 C 
BRANCH  20  21
HETATM   21  C   UNL     1      41.823 -14.832   3.767  1.00  0.00     0.034 A 
HETATM   22  N   UNL     1      40.744 -15.652   3.648  1.00  0.00    -0.266 NA
HETATM   23  C   UNL     1      40.336 -15.932   2.385  1.00  0.00     0.117 A 
HETATM   24  C   UNL     1      40.954 -15.451   1.243  1.00  0.00     0.019 A 
HETATM   25  C   UNL     1      42.058 -14.624   1.393  1.00  0.00     0.003 A 
HETATM   26  C   UNL     1      42.504 -14.307   2.672  1.00  0.00     0.027 A 
ENDBRANCH  20  21
ENDBRANCH  16  20
ENDBRANCH  15  16
ENDBRANCH   1  15
TORSDOF 7
ENDMDL
MODEL 2
REMARK VINA RESULT:      -7.6      1.468      1.945
REMARK  7 active torsions:
REMARK  status: ('A' for Active; 'I' for Inactive)
REMARK    1  A    between atoms: C_5  and  N_6 
REMARK    2  A    between atoms: N_6  and  C_9 
REMARK    3  A    between atoms: C_9  and  C_10 
REMARK    4  A    between atoms: C_10  and  C_11 
REMARK    5  A    between atoms: C_10  and  C_13 
REMARK    6  A    between atoms: C_11  and  O_12 
REMARK    7  A    between atoms: C_13  and  C_14 
ROOT
HETATM    1  N   UNL     1      42.757 -17.376   4.728  1.00  0.00    -0.066 N 
HETATM    2  H   UNL     1      41.955 -17.647   4.133  1.00  0.00     0.278 HD
HETATM    3  H   UNL     1      42.652 -17.922   5.606  1.00  0.00     0.278 HD
ENDROOT
BRANCH   1   4
HETATM    4  C   UNL     1      44.039 -17.755   4.091  1.00  0.00     0.220 C 
HETATM    5  C   UNL     1      44.282 -19.231   4.153  1.00  0.00    -0.021 A 
HETATM    6  C   UNL     1      44.089 -19.843   2.906  1.00  0.00    -0.040 A 
HETATM    7  C   UNL     1      44.636 -19.971   5.274  1.00  0.00     0.010 A 
HETATM    8  C   UNL     1      44.271 -21.216   2.750  1.00  0.00    -0.055 A 
HETATM    9  C   UNL     1      43.684 -18.830   1.870  1.00  0.00     0.018 C 
HETATM   10  C   UNL     1      44.062 -21.916   1.440  1.00  0.00     0.049 C 
HETATM   11  C   UNL     1      44.616 -21.962   3.888  1.00  0.00     0.007 A 
HETATM   12  C   UNL     1      44.800 -21.347   5.133  1.00  0.00     0.001 A 
HETATM   13  C   UNL     1      44.016 -17.494   2.576  1.00  0.00     0.047 C 
HETATM   14  C   UNL     1      42.214 -18.948   1.484  1.00  0.00     0.015 C 
ENDBRANCH   1   4
BRANCH   1  15
HETATM   15  C   UNL     1      42.591 -15.941   5.092  1.00  0.00     0.240 C 
BRANCH  15  16
HETATM   16  C   UNL     1      41.304 -15.363   4.470  1.00  0.00     0.040 C 
BRANCH  16  17
HETATM   17  C   UNL     1      40.266 -15.093   5.570  1.00  0.00     0.170 C 
BRANCH  17  18
HETATM   18  O   UNL     1      39.976 -16.315   6.253  1.00  0.00    -0.400 OA
HETATM   19  H   UNL     1      40.792 -16.558   6.739  1.00  0.00     0.209 HD
ENDBRANCH  17  18
ENDBRANCH  16  17
BRANCH  16  20
HETATM   20  C   UNL     1      40.663 -16.250   3.380  1.00  0.00     0.067 C 
BRANCH  20  21
HETATM   21  C   UNL     1      40.319 -15.499   2.121  1.00  0.00     0.034 A 
HETATM   22  N   UNL     1      39.062 -14.984   2.053  1.00  0.00    -0.266 NA
HETATM   23  C   UNL     1      38.754 -14.294   0.925  1.00  0.00     0.117 A 
HETATM   24  C   UNL     1      39.626 -14.105  -0.134  1.00  0.00     0.019 A 
HETATM   25  C   UNL     1      40.899 -14.649  -0.040  1.00  0.00     0.003 A 
HETATM   26  C   UNL     1      41.256 -15.358   1.102  1.00  0.00     0.027 A 
ENDBRANCH  20  21
ENDBRANCH  16  20
ENDBRANCH  15  16
ENDBRANCH   1  15
TORSDOF 7
ENDMDL
MODEL 3
REMARK VINA RESULT:      -7.3      2.217      5.944
REMARK  7 active torsions:
REMARK  status: ('A' for Active; 'I' for Inactive)
REMARK    1  A    between atoms: C_5  and  N_6 
REMARK    2  A    between atoms: N_6  and  C_9 
REMARK    3  A    between atoms: C_9  and  C_10 
REMARK    4  A    between atoms: C_10  and  C_11 
REMARK    5  A    between atoms: C_10  and  C_13 
REMARK    6  A    between atoms: C_11  and  O_12 
REMARK    7  A    between atoms: C_13  and  C_14 
ROOT
HETATM    1  N   UNL     1      40.330 -15.672   3.403  1.00  0.00    -0.066 N 
HETATM    2  H   UNL     1      39.347 -15.818   3.113  1.00  0.00     0.278 HD
HETATM    3  H   UNL     1      40.749 -15.062   2.673  1.00  0.00     0.278 HD
ENDROOT
BRANCH   1   4
HETATM    4  C   UNL     1      40.399 -14.964   4.702  1.00  0.00     0.220 C 
HETATM    5  C   UNL     1      41.363 -15.613   5.644  1.00  0.00    -0.021 A 
HETATM    6  C   UNL     1      42.544 -14.869   5.776  1.00  0.00    -0.040 A 
HETATM    7  C   UNL     1      41.185 -16.811   6.323  1.00  0.00     0.010 A 
HETATM    8  C   UNL     1      43.570 -15.301   6.614  1.00  0.00    -0.055 A 
HETATM    9  C   UNL     1      42.497 -13.634   4.918  1.00  0.00     0.018 C 
HETATM   10  C   UNL     1      44.856 -14.546   6.775  1.00  0.00     0.049 C 
HETATM   11  C   UNL     1      43.391 -16.519   7.289  1.00  0.00     0.007 A 
HETATM   12  C   UNL     1      42.213 -17.263   7.148  1.00  0.00     0.001 A 
HETATM   13  C   UNL     1      40.996 -13.556   4.546  1.00  0.00     0.047 C 
HETATM   14  C   UNL     1      43.406 -13.737   3.699  1.00  0.00     0.015 C 
ENDBRANCH   1   4
BRANCH   1  15
HETATM   15  C   UNL     1      41.031 -16.984   3.320  1.00  0.00     0.240 C 
BRANCH  15  16
HETATM   16  C   UNL     1      42.238 -16.902   2.363  1.00  0.00     0.040 C 
BRANCH  16  17
HETATM   17  C   UNL     1      41.891 -16.018   1.155  1.00  0.00     0.170 C 
BRANCH  17  18
HETATM   18  O   UNL     1      40.735 -16.548   0.502  1.00  0.00    -0.400 OA
HETATM   19  H   UNL     1      40.243 -17.054   1.183  1.00  0.00     0.209 HD
ENDBRANCH  17  18
ENDBRANCH  16  17
BRANCH  16  20
HETATM   20  C   UNL     1      42.749 -18.269   1.857  1.00  0.00     0.067 C 
BRANCH  20  21
HETATM   21  C   UNL     1      43.571 -19.016   2.872  1.00  0.00     0.034 A 
HETATM   22  N   UNL     1      43.912 -20.293   2.549  1.00  0.00    -0.266 NA
HETATM   23  C   UNL     1      44.666 -20.963   3.456  1.00  0.00     0.117 A 
HETATM   24  C   UNL     1      45.084 -20.432   4.665  1.00  0.00     0.019 A 
HETATM   25  C   UNL     1      44.714 -19.131   4.972  1.00  0.00     0.003 A 
HETATM   26  C   UNL     1      43.946 -18.408   4.066  1.00  0.00     0.027 A 
ENDBRANCH  20  21
ENDBRANCH  16  20
ENDBRANCH  15  16
ENDBRANCH   1  15
TORSDOF 7
ENDMDL
MODEL 4
REMARK VINA RESULT:      -7.2      2.318      3.861
REMARK  7 active torsions:
REMARK  status: ('A' for Active; 'I' for Inactive)
REMARK    1  A    between atoms: C_5  and  N_6 
REMARK    2  A    between atoms: N_6  and  C_9 
REMARK    3  A    between atoms: C_9  and  C_10 
REMARK    4  A    between atoms: C_10  and  C_11 
REMARK    5  A    between atoms: C_10  and  C_13 
REMARK    6  A    between atoms: C_11  and  O_12 
REMARK    7  A    between atoms: C_13  and  C_14 
ROOT
HETATM    1  N   UNL     1      43.443 -16.713   3.248  1.00  0.00    -0.066 N 
HETATM    2  H   UNL     1      43.901 -16.227   4.038  1.00  0.00     0.278 HD
HETATM    3  H   UNL     1      44.215 -17.056   2.644  1.00  0.00     0.278 HD
ENDROOT
BRANCH   1   4
HETATM    4  C   UNL     1      42.666 -17.881   3.725  1.00  0.00     0.220 C 
HETATM    5  C   UNL     1      43.251 -19.174   3.252  1.00  0.00    -0.021 A 
HETATM    6  C   UNL     1      43.909 -19.857   4.285  1.00  0.00    -0.040 A 
HETATM    7  C   UNL     1      43.204 -19.688   1.963  1.00  0.00     0.010 A 
HETATM    8  C   UNL     1      44.518 -21.088   4.052  1.00  0.00    -0.055 A 
HETATM    9  C   UNL     1      43.840 -19.078   5.571  1.00  0.00     0.018 C 
HETATM   10  C   UNL     1      45.245 -21.847   5.122  1.00  0.00     0.049 C 
HETATM   11  C   UNL     1      44.479 -21.598   2.745  1.00  0.00     0.007 A 
HETATM   12  C   UNL     1      43.827 -20.909   1.714  1.00  0.00     0.001 A 
HETATM   13  C   UNL     1      42.749 -18.027   5.253  1.00  0.00     0.047 C 
HETATM   14  C   UNL     1      45.178 -18.450   5.943  1.00  0.00     0.015 C 
ENDBRANCH   1   4
BRANCH   1  15
HETATM   15  C   UNL     1      42.698 -15.695   2.456  1.00  0.00     0.240 C 
BRANCH  15  16
HETATM   16  C   UNL     1      41.336 -16.249   1.992  1.00  0.00     0.040 C 
BRANCH  16  17
HETATM   17  C   UNL     1      41.423 -16.691   0.522  1.00  0.00     0.170 C 
BRANCH  17  18
HETATM   18  O   UNL     1      42.797 -16.768   0.136  1.00  0.00    -0.400 OA
HETATM   19  H   UNL     1      43.311 -16.854   0.966  1.00  0.00     0.209 HD
ENDBRANCH  17  18
ENDBRANCH  16  17
BRANCH  16  20
HETATM   20  C   UNL     1      40.155 -15.266   2.153  1.00  0.00     0.067 C 
BRANCH  20  21
HETATM   21  C   UNL     1      40.131 -14.571   3.487  1.00  0.00     0.034 A 
HETATM   22  N   UNL     1      40.449 -15.333   4.568  1.00  0.00    -0.266 NA
HETATM   23  C   UNL     1      40.443 -14.704   5.771  1.00  0.00     0.117 A 
HETATM   24  C   UNL     1      40.126 -13.368   5.949  1.00  0.00     0.019 A 
HETATM   25  C   UNL     1      39.797 -12.617   4.830  1.00  0.00     0.003 A 
HETATM   26  C   UNL     1      39.798 -13.223   3.578  1.00  0.00     0.027 A 
ENDBRANCH  20  21
ENDBRANCH  16  20
ENDBRANCH  15  16
ENDBRANCH   1  15
TORSDOF 7
ENDMDL
MODEL 5
REMARK VINA RESULT:      -7.2      3.198      4.750
REMARK  7 active torsions:
REMARK  status: ('A' for Active; 'I' for Inactive)
REMARK    1  A    between atoms: C_5  and  N_6 
REMARK    2  A    between atoms: N_6  and  C_9 
REMARK    3  A    between atoms: C_9  and  C_10 
REMARK    4  A    between atoms: C_10  and  C_11 
REMARK    5  A    between atoms: C_10  and  C_13 
REMARK    6  A    between atoms: C_11  and  O_12 
REMARK    7  A    between atoms: C_13  and  C_14 
ROOT
HETATM    1  N   UNL     1      41.526 -17.409   1.723  1.00  0.00    -0.066 N 
HETATM    2  H   UNL     1      41.345 -18.418   1.584  1.00  0.00     0.278 HD
HETATM    3  H   UNL     1      40.821 -17.090   2.416  1.00  0.00     0.278 HD
ENDROOT
BRANCH   1   4
HETATM    4  C   UNL     1      42.876 -17.187   2.291  1.00  0.00     0.220 C 
HETATM    5  C   UNL     1      42.989 -17.711   3.688  1.00  0.00    -0.021 A 
HETATM    6  C   UNL     1      43.739 -18.895   3.740  1.00  0.00    -0.040 A 
HETATM    7  C   UNL     1      42.431 -17.159   4.833  1.00  0.00     0.010 A 
HETATM    8  C   UNL     1      43.967 -19.542   4.953  1.00  0.00    -0.055 A 
HETATM    9  C   UNL     1      44.204 -19.296   2.366  1.00  0.00     0.018 C 
HETATM   10  C   UNL     1      44.750 -20.817   5.056  1.00  0.00     0.049 C 
HETATM   11  C   UNL     1      43.391 -18.987   6.107  1.00  0.00     0.007 A 
HETATM   12  C   UNL     1      42.636 -17.809   6.049  1.00  0.00     0.001 A 
HETATM   13  C   UNL     1      43.943 -18.007   1.549  1.00  0.00     0.047 C 
HETATM   14  C   UNL     1      43.449 -20.504   1.826  1.00  0.00     0.015 C 
ENDBRANCH   1   4
BRANCH   1  15
HETATM   15  C   UNL     1      41.217 -16.710   0.444  1.00  0.00     0.240 C 
BRANCH  15  16
HETATM   16  C   UNL     1      41.402 -15.186   0.593  1.00  0.00     0.040 C 
BRANCH  16  17
HETATM   17  C   UNL     1      40.225 -14.590   1.381  1.00  0.00     0.170 C 
BRANCH  17  18
HETATM   18  O   UNL     1      39.130 -15.508   1.356  1.00  0.00    -0.400 OA
HETATM   19  H   UNL     1      39.522 -16.404   1.420  1.00  0.00     0.209 HD
ENDBRANCH  17  18
ENDBRANCH  16  17
BRANCH  16  20
HETATM   20  C   UNL     1      41.550 -14.424  -0.743  1.00  0.00     0.067 C 
BRANCH  20  21
HETATM   21  C   UNL     1      40.474 -14.751  -1.743  1.00  0.00     0.034 A 
HETATM   22  N   UNL     1      39.289 -14.103  -1.585  1.00  0.00    -0.266 NA
HETATM   23  C   UNL     1      38.321 -14.386  -2.494  1.00  0.00     0.117 A 
HETATM   24  C   UNL     1      38.472 -15.284  -3.537  1.00  0.00     0.019 A 
HETATM   25  C   UNL     1      39.689 -15.937  -3.668  1.00  0.00     0.003 A 
HETATM   26  C   UNL     1      40.708 -15.671  -2.761  1.00  0.00     0.027 A 
ENDBRANCH  20  21
ENDBRANCH  16  20
ENDBRANCH  15  16
ENDBRANCH   1  15
TORSDOF 7
ENDMDL
MODEL 6
REMARK VINA RESULT:      -7.1      2.284      3.998
REMARK  7 active torsions:
REMARK  status: ('A' for Active; 'I' for Inactive)
REMARK    1  A    between atoms: C_5  and  N_6 
REMARK    2  A    between atoms: N_6  and  C_9 
REMARK    3  A    between atoms: C_9  and  C_10 
REMARK    4  A    between atoms: C_10  and  C_11 
REMARK    5  A    between atoms: C_10  and  C_13 
REMARK    6  A    between atoms: C_11  and  O_12 
REMARK    7  A    between atoms: C_13  and  C_14 
ROOT
HETATM    1  N   UNL     1      41.677 -17.476   2.292  1.00  0.00    -0.066 N 
HETATM    2  H   UNL     1      41.414 -18.434   2.001  1.00  0.00     0.278 HD
HETATM    3  H   UNL     1      41.104 -17.272   3.134  1.00  0.00     0.278 HD
ENDROOT
BRANCH   1   4
HETATM    4  C   UNL     1      43.107 -17.411   2.671  1.00  0.00     0.220 C 
HETATM    5  C   UNL     1      43.368 -18.072   3.988  1.00  0.00    -0.021 A 
HETATM    6  C   UNL     1      44.011 -19.309   3.831  1.00  0.00    -0.040 A 
HETATM    7  C   UNL     1      43.028 -17.589   5.244  1.00  0.00     0.010 A 
HETATM    8  C   UNL     1      44.348 -20.082   4.940  1.00  0.00    -0.055 A 
HETATM    9  C   UNL     1      44.240 -19.613   2.375  1.00  0.00     0.018 C 
HETATM   10  C   UNL     1      45.022 -21.417   4.820  1.00  0.00     0.049 C 
HETATM   11  C   UNL     1      43.991 -19.597   6.207  1.00  0.00     0.007 A 
HETATM   12  C   UNL     1      43.343 -18.364   6.359  1.00  0.00     0.001 A 
HETATM   13  C   UNL     1      43.982 -18.237   1.714  1.00  0.00     0.047 C 
HETATM   14  C   UNL     1      43.313 -20.704   1.855  1.00  0.00     0.015 C 
ENDBRANCH   1   4
BRANCH   1  15
HETATM   15  C   UNL     1      41.225 -16.536   1.228  1.00  0.00     0.240 C 
BRANCH  15  16
HETATM   16  C   UNL     1      40.698 -15.223   1.842  1.00  0.00     0.040 C 
BRANCH  16  17
HETATM   17  C   UNL     1      39.595 -14.633   0.950  1.00  0.00     0.170 C 
BRANCH  17  18
HETATM   18  O   UNL     1      38.329 -15.151   1.365  1.00  0.00    -0.400 OA
HETATM   19  H   UNL     1      37.679 -14.429   1.227  1.00  0.00     0.209 HD
ENDBRANCH  17  18
ENDBRANCH  16  17
BRANCH  16  20
HETATM   20  C   UNL     1      41.781 -14.148   2.082  1.00  0.00     0.067 C 
BRANCH  20  21
HETATM   21  C   UNL     1      42.256 -14.083   3.509  1.00  0.00     0.034 A 
HETATM   22  N   UNL     1      43.597 -13.940   3.691  1.00  0.00    -0.266 NA
HETATM   23  C   UNL     1      44.026 -13.867   4.976  1.00  0.00     0.117 A 
HETATM   24  C   UNL     1      43.193 -13.940   6.080  1.00  0.00     0.019 A 
HETATM   25  C   UNL     1      41.832 -14.094   5.865  1.00  0.00     0.003 A 
HETATM   26  C   UNL     1      41.350 -14.167   4.562  1.00  0.00     0.027 A 
ENDBRANCH  20  21
ENDBRANCH  16  20
ENDBRANCH  15  16
ENDBRANCH   1  15
TORSDOF 7
ENDMDL
MODEL 7
REMARK VINA RESULT:      -7.0      2.046      3.231
REMARK  7 active torsions:
REMARK  status: ('A' for Active; 'I' for Inactive)
REMARK    1  A    between atoms: C_5  and  N_6 
REMARK    2  A    between atoms: N_6  and  C_9 
REMARK    3  A    between atoms: C_9  and  C_10 
REMARK    4  A    between atoms: C_10  and  C_11 
REMARK    5  A    between atoms: C_10  and  C_13 
REMARK    6  A    between atoms: C_11  and  O_12 
REMARK    7  A    between atoms: C_13  and  C_14 
ROOT
HETATM    1  N   UNL     1      43.536 -16.746   3.151  1.00  0.00    -0.066 N 
HETATM    2  H   UNL     1      43.790 -16.110   3.927  1.00  0.00     0.278 HD
HETATM    3  H   UNL     1      44.435 -17.115   2.785  1.00  0.00     0.278 HD
ENDROOT
BRANCH   1   4
HETATM    4  C   UNL     1      42.728 -17.885   3.645  1.00  0.00     0.220 C 
HETATM    5  C   UNL     1      43.286 -19.202   3.203  1.00  0.00    -0.021 A 
HETATM    6  C   UNL     1      43.918 -19.879   4.256  1.00  0.00    -0.040 A 
HETATM    7  C   UNL     1      43.237 -19.740   1.924  1.00  0.00     0.010 A 
HETATM    8  C   UNL     1      44.500 -21.128   4.053  1.00  0.00    -0.055 A 
HETATM    9  C   UNL     1      43.857 -19.072   5.525  1.00  0.00     0.018 C 
HETATM   10  C   UNL     1      45.199 -21.883   5.145  1.00  0.00     0.049 C 
HETATM   11  C   UNL     1      44.460 -21.663   2.756  1.00  0.00     0.007 A 
HETATM   12  C   UNL     1      43.834 -20.980   1.705  1.00  0.00     0.001 A 
HETATM   13  C   UNL     1      42.793 -18.002   5.176  1.00  0.00     0.047 C 
HETATM   14  C   UNL     1      45.206 -18.468   5.896  1.00  0.00     0.015 C 
ENDBRANCH   1   4
BRANCH   1  15
HETATM   15  C   UNL     1      42.936 -15.923   2.065  1.00  0.00     0.240 C 
BRANCH  15  16
HETATM   16  C   UNL     1      42.353 -14.611   2.629  1.00  0.00     0.040 C 
BRANCH  16  17
HETATM   17  C   UNL     1      43.348 -13.976   3.613  1.00  0.00     0.170 C 
BRANCH  17  18
HETATM   18  O   UNL     1      43.020 -14.385   4.943  1.00  0.00    -0.400 OA
HETATM   19  H   UNL     1      43.089 -13.582   5.501  1.00  0.00     0.209 HD
ENDBRANCH  17  18
ENDBRANCH  16  17
BRANCH  16  20
HETATM   20  C   UNL     1      40.983 -14.765   3.327  1.00  0.00     0.067 C 
BRANCH  20  21
HETATM   21  C   UNL     1      39.844 -14.155   2.554  1.00  0.00     0.034 A 
HETATM   22  N   UNL     1      39.706 -12.805   2.651  1.00  0.00    -0.266 NA
HETATM   23  C   UNL     1      38.689 -12.252   1.943  1.00  0.00     0.117 A 
HETATM   24  C   UNL     1      37.803 -12.973   1.160  1.00  0.00     0.019 A 
HETATM   25  C   UNL     1      37.963 -14.349   1.087  1.00  0.00     0.003 A 
HETATM   26  C   UNL     1      38.997 -14.954   1.793  1.00  0.00     0.027 A 
ENDBRANCH  20  21
ENDBRANCH  16  20
ENDBRANCH  15  16
ENDBRANCH   1  15
TORSDOF 7
ENDMDL
MODEL 8
REMARK VINA RESULT:      -6.9      2.315      3.745
REMARK  7 active torsions:
REMARK  status: ('A' for Active; 'I' for Inactive)
REMARK    1  A    between atoms: C_5  and  N_6 
REMARK    2  A    between atoms: N_6  and  C_9 
REMARK    3  A    between atoms: C_9  and  C_10 
REMARK    4  A    between atoms: C_10  and  C_11 
REMARK    5  A    between atoms: C_10  and  C_13 
REMARK    6  A    between atoms: C_11  and  O_12 
REMARK    7  A    between atoms: C_13  and  C_14 
ROOT
HETATM    1  N   UNL     1      43.170 -16.325   3.682  1.00  0.00    -0.066 N 
HETATM    2  H   UNL     1      44.042 -16.208   4.228  1.00  0.00     0.278 HD
HETATM    3  H   UNL     1      43.471 -16.415   2.692  1.00  0.00     0.278 HD
ENDROOT
BRANCH   1   4
HETATM    4  C   UNL     1      42.464 -17.566   4.073  1.00  0.00     0.220 C 
HETATM    5  C   UNL     1      43.080 -18.781   3.453  1.00  0.00    -0.021 A 
HETATM    6  C   UNL     1      43.810 -19.529   4.388  1.00  0.00    -0.040 A 
HETATM    7  C   UNL     1      42.997 -19.170   2.123  1.00  0.00     0.010 A 
HETATM    8  C   UNL     1      44.458 -20.704   4.011  1.00  0.00    -0.055 A 
HETATM    9  C   UNL     1      43.765 -18.881   5.745  1.00  0.00     0.018 C 
HETATM   10  C   UNL     1      45.261 -21.529   4.973  1.00  0.00     0.049 C 
HETATM   11  C   UNL     1      44.382 -21.087   2.663  1.00  0.00     0.007 A 
HETATM   12  C   UNL     1      43.659 -20.332   1.731  1.00  0.00     0.001 A 
HETATM   13  C   UNL     1      42.619 -17.854   5.575  1.00  0.00     0.047 C 
HETATM   14  C   UNL     1      45.091 -18.232   6.123  1.00  0.00     0.015 C 
ENDBRANCH   1   4
BRANCH   1  15
HETATM   15  C   UNL     1      42.396 -15.056   3.781  1.00  0.00     0.240 C 
BRANCH  15  16
HETATM   16  C   UNL     1      41.584 -14.806   2.493  1.00  0.00     0.040 C 
BRANCH  16  17
HETATM   17  C   UNL     1      40.097 -15.096   2.747  1.00  0.00     0.170 C 
BRANCH  17  18
HETATM   18  O   UNL     1      39.852 -15.097   4.156  1.00  0.00    -0.400 OA
HETATM   19  H   UNL     1      38.932 -15.416   4.274  1.00  0.00     0.209 HD
ENDBRANCH  17  18
ENDBRANCH  16  17
BRANCH  16  20
HETATM   20  C   UNL     1      42.055 -15.623   1.270  1.00  0.00     0.067 C 
BRANCH  20  21
HETATM   21  C   UNL     1      41.666 -15.008  -0.047  1.00  0.00     0.034 A 
HETATM   22  N   UNL     1      41.813 -13.659  -0.148  1.00  0.00    -0.266 NA
HETATM   23  C   UNL     1      41.477 -13.104  -1.340  1.00  0.00     0.117 A 
HETATM   24  C   UNL     1      40.995 -13.819  -2.423  1.00  0.00     0.019 A 
HETATM   25  C   UNL     1      40.847 -15.191  -2.290  1.00  0.00     0.003 A 
HETATM   26  C   UNL     1      41.186 -15.800  -1.086  1.00  0.00     0.027 A 
ENDBRANCH  20  21
ENDBRANCH  16  20
ENDBRANCH  15  16
ENDBRANCH   1  15
TORSDOF 7
ENDMDL
MODEL 9
REMARK VINA RESULT:      -6.9      2.438      3.624
REMARK  7 active torsions:
REMARK  status: ('A' for Active; 'I' for Inactive)
REMARK    1  A    between atoms: C_5  and  N_6 
REMARK    2  A    between atoms: N_6  and  C_9 
REMARK    3  A    between atoms: C_9  and  C_10 
REMARK    4  A    between atoms: C_10  and  C_11 
REMARK    5  A    between atoms: C_10  and  C_13 
REMARK    6  A    between atoms: C_11  and  O_12 
REMARK    7  A    between atoms: C_13  and  C_14 
ROOT
HETATM    1  N   UNL     1      42.153 -18.134   2.798  1.00  0.00    -0.066 N 
HETATM    2  H   UNL     1      42.054 -18.482   1.828  1.00  0.00     0.278 HD
HETATM    3  H   UNL     1      41.597 -18.784   3.387  1.00  0.00     0.278 HD
ENDROOT
BRANCH   1   4
HETATM    4  C   UNL     1      43.565 -18.192   3.240  1.00  0.00     0.220 C 
HETATM    5  C   UNL     1      43.735 -19.029   4.468  1.00  0.00    -0.021 A 
HETATM    6  C   UNL     1      44.327 -20.267   4.177  1.00  0.00    -0.040 A 
HETATM    7  C   UNL     1      43.359 -18.696   5.763  1.00  0.00     0.010 A 
HETATM    8  C   UNL     1      44.577 -21.193   5.187  1.00  0.00    -0.055 A 
HETATM    9  C   UNL     1      44.610 -20.392   2.704  1.00  0.00     0.018 C 
HETATM   10  C   UNL     1      45.194 -22.534   4.921  1.00  0.00     0.049 C 
HETATM   11  C   UNL     1      44.183 -20.858   6.492  1.00  0.00     0.007 A 
HETATM   12  C   UNL     1      43.585 -19.623   6.777  1.00  0.00     0.001 A 
HETATM   13  C   UNL     1      44.446 -18.931   2.219  1.00  0.00     0.047 C 
HETATM   14  C   UNL     1      43.659 -21.358   2.009  1.00  0.00     0.015 C 
ENDBRANCH   1   4
BRANCH   1  15
HETATM   15  C   UNL     1      41.483 -16.806   2.876  1.00  0.00     0.240 C 
BRANCH  15  16
HETATM   16  C   UNL     1      40.494 -16.620   1.707  1.00  0.00     0.040 C 
BRANCH  16  17
HETATM   17  C   UNL     1      41.258 -16.594   0.374  1.00  0.00     0.170 C 
BRANCH  17  18
HETATM   18  O   UNL     1      42.562 -16.051   0.590  1.00  0.00    -0.400 OA
HETATM   19  H   UNL     1      43.138 -16.808   0.828  1.00  0.00     0.209 HD
ENDBRANCH  17  18
ENDBRANCH  16  17
BRANCH  16  20
HETATM   20  C   UNL     1      39.612 -15.356   1.807  1.00  0.00     0.067 C 
BRANCH  20  21
HETATM   21  C   UNL     1      40.258 -14.233   2.572  1.00  0.00     0.034 A 
HETATM   22  N   UNL     1      41.217 -13.529   1.911  1.00  0.00    -0.266 NA
HETATM   23  C   UNL     1      41.791 -12.506   2.594  1.00  0.00     0.117 A 
HETATM   24  C   UNL     1      41.468 -12.161   3.895  1.00  0.00     0.019 A 
HETATM   25  C   UNL     1      40.493 -12.901   4.547  1.00  0.00     0.003 A 
HETATM   26  C   UNL     1      39.876 -13.954   3.881  1.00  0.00     0.027 A 
ENDBRANCH  20  21
ENDBRANCH  16  20
ENDBRANCH  15  16
ENDBRANCH   1  15
TORSDOF 7
ENDMDL
MODEL 10
REMARK VINA RESULT:      -6.8      2.100      2.749
REMARK  7 active torsions:
REMARK  status: ('A' for Active; 'I' for Inactive)
REMARK    1  A    between atoms: C_5  and  N_6 
REMARK    2  A    between atoms: N_6  and  C_9 
REMARK    3  A    between atoms: C_9  and  C_10 
REMARK    4  A    between atoms: C_10  and  C_11 
REMARK    5  A    between atoms: C_10  and  C_13 
REMARK    6  A    between atoms: C_11  and  O_12 
REMARK    7  A    between atoms: C_13  and  C_14 
ROOT
HETATM    1  N   UNL     1      42.514 -17.857   5.076  1.00  0.00    -0.066 N 
HETATM    2  H   UNL     1      42.020 -18.748   5.260  1.00  0.00     0.278 HD
HETATM    3  H   UNL     1      42.620 -17.399   6.002  1.00  0.00     0.278 HD
ENDROOT
BRANCH   1   4
HETATM    4  C   UNL     1      43.863 -18.106   4.519  1.00  0.00     0.220 C 
HETATM    5  C   UNL     1      44.186 -19.566   4.463  1.00  0.00    -0.021 A 
HETATM    6  C   UNL     1      44.131 -20.062   3.152  1.00  0.00    -0.040 A 
HETATM    7  C   UNL     1      44.491 -20.394   5.535  1.00  0.00     0.010 A 
HETATM    8  C   UNL     1      44.405 -21.401   2.884  1.00  0.00    -0.055 A 
HETATM    9  C   UNL     1      43.752 -18.973   2.184  1.00  0.00     0.018 C 
HETATM   10  C   UNL     1      44.345 -21.978   1.500  1.00  0.00     0.049 C 
HETATM   11  C   UNL     1      44.701 -22.237   3.972  1.00  0.00     0.007 A 
HETATM   12  C   UNL     1      44.747 -21.740   5.280  1.00  0.00     0.001 A 
HETATM   13  C   UNL     1      43.948 -17.698   3.039  1.00  0.00     0.047 C 
HETATM   14  C   UNL     1      42.328 -19.127   1.664  1.00  0.00     0.015 C 
ENDBRANCH   1   4
BRANCH   1  15
HETATM   15  C   UNL     1      41.609 -16.991   4.270  1.00  0.00     0.240 C 
BRANCH  15  16
HETATM   16  C   UNL     1      41.527 -15.573   4.871  1.00  0.00     0.040 C 
BRANCH  16  17
HETATM   17  C   UNL     1      40.593 -15.574   6.092  1.00  0.00     0.170 C 
BRANCH  17  18
HETATM   18  O   UNL     1      40.008 -16.870   6.234  1.00  0.00    -0.400 OA
HETATM   19  H   UNL     1      40.403 -17.428   5.531  1.00  0.00     0.209 HD
ENDBRANCH  17  18
ENDBRANCH  16  17
BRANCH  16  20
HETATM   20  C   UNL     1      41.061 -14.482   3.882  1.00  0.00     0.067 C 
BRANCH  20  21
HETATM   21  C   UNL     1      40.742 -13.169   4.543  1.00  0.00     0.034 A 
HETATM   22  N   UNL     1      39.465 -12.721   4.409  1.00  0.00    -0.266 NA
HETATM   23  C   UNL     1      39.171 -11.544   5.017  1.00  0.00     0.117 A 
HETATM   24  C   UNL     1      40.084 -10.791   5.736  1.00  0.00     0.019 A 
HETATM   25  C   UNL     1      41.382 -11.266   5.849  1.00  0.00     0.003 A 
HETATM   26  C   UNL     1      41.722 -12.473   5.245  1.00  0.00     0.027 A 
ENDBRANCH  20  21
ENDBRANCH  16  20
ENDBRANCH  15  16
ENDBRANCH   1  15
TORSDOF 7
ENDMDL
