MODEL 1
REMARK VINA RESULT:      -9.3      0.000      0.000
REMARK  9 active torsions:
REMARK  status: ('A' for Active; 'I' for Inactive)
REMARK    1  A    between atoms: O_2  and  C_3 
REMARK    2  A    between atoms: C_5  and  O_6 
REMARK    3  A    between atoms: C_9  and  C_10 
REMARK       I    between atoms: C_10  and  N_11 
REMARK    4  A    between atoms: N_11  and  C_12 
REMARK    5  A    between atoms: C_12  and  N_13 
REMARK    6  A    between atoms: N_13  and  C_14 
REMARK    7  A    between atoms: C_17  and  N_18 
REMARK    8  A    between atoms: N_21  and  C_23 
REMARK    9  A    between atoms: C_23  and  C_24 
ROOT
HETATM    1  C   UNL     1      41.116 -11.961   5.778  1.00  0.00     0.034 A 
HETATM    2  C   UNL     1      39.928 -12.621   5.470  1.00  0.00     0.032 A 
HETATM    3  C   UNL     1      39.872 -14.024   5.381  1.00  0.00     0.031 A 
HETATM    4  C   UNL     1      41.001 -14.823   5.580  1.00  0.00     0.030 A 
HETATM    5  C   UNL     1      42.203 -14.135   5.826  1.00  0.00     0.031 A 
HETATM    6  C   UNL     1      42.265 -12.732   5.924  1.00  0.00     0.032 A 
ENDROOT
BRANCH   1   7
HETATM    7  N   UNL     1      41.236 -10.551   5.856  1.00  0.00    -0.333 N 
HETATM    8  H   UNL     1      41.710 -10.109   5.077  1.00  0.00     0.168 HD
BRANCH   7   9
HETATM    9  C   UNL     1      40.974  -9.730   6.917  1.00  0.00     0.179 C 
HETATM   10  S   UNL     1      41.225  -8.071   6.991  1.00  0.00    -0.040 SA
BRANCH   9  11
HETATM   11  N   UNL     1      40.445 -10.308   8.065  1.00  0.00    -0.299 N 
HETATM   12  C   UNL     1      40.719 -10.598   9.406  1.00  0.00     0.258 C 
HETATM   13  O   UNL     1      39.797 -11.015  10.110  1.00  0.00    -0.267 OA
HETATM   14  H   UNL     1      39.485 -10.588   7.890  1.00  0.00     0.171 HD
BRANCH  12  15
HETATM   15  C   UNL     1      42.065 -10.530   9.999  1.00  0.00     0.037 A 
HETATM   16  C   UNL     1      42.309 -10.215  11.335  1.00  0.00     0.054 A 
HETATM   17  C   UNL     1      43.622 -10.207  11.823  1.00  0.00     0.071 A 
HETATM   18  C   UNL     1      44.676 -10.611  10.997  1.00  0.00     0.073 A 
HETATM   19  C   UNL     1      44.417 -11.011   9.686  1.00  0.00     0.071 A 
HETATM   20  C   UNL     1      43.124 -10.938   9.179  1.00  0.00     0.054 A 
BRANCH  17  21
HETATM   21  O   UNL     1      43.746  -9.784  13.120  1.00  0.00    -0.356 OA
HETATM   22  C   UNL     1      42.624  -9.996  13.972  1.00  0.00     0.210 C 
ENDBRANCH  17  21
BRANCH  19  23
HETATM   23  O   UNL     1      45.383 -11.442   8.819  1.00  0.00    -0.356 OA
HETATM   24  C   UNL     1      45.220 -12.798   8.403  1.00  0.00     0.210 C 
ENDBRANCH  19  23
ENDBRANCH  12  15
ENDBRANCH   9  11
ENDBRANCH   7   9
ENDBRANCH   1   7
BRANCH   4  25
HETATM   25  N   UNL     1      40.981 -16.215   5.486  1.00  0.00    -0.378 N 
HETATM   26  C   UNL     1      41.475 -17.069   6.584  1.00  0.00     0.150 C 
HETATM   27  C   UNL     1      42.941 -17.500   6.351  1.00  0.00     0.255 C 
HETATM   28  N   UNL     1      43.090 -18.153   4.978  1.00  0.00    -0.064 N 
HETATM   29  H   UNL     1      42.477 -18.982   4.968  1.00  0.00     0.280 HD
HETATM   30  C   UNL     1      42.590 -17.213   3.878  1.00  0.00     0.255 C 
HETATM   31  C   UNL     1      41.121 -16.820   4.144  1.00  0.00     0.150 C 
BRANCH  28  32
HETATM   32  C   UNL     1      44.488 -18.668   4.734  1.00  0.00     0.276 C 
BRANCH  32  33
HETATM   33  C   UNL     1      44.543 -20.101   4.287  1.00  0.00     0.006 A 
HETATM   34  C   UNL     1      44.403 -20.421   2.932  1.00  0.00     0.124 A 
HETATM   35  F   UNL     1      44.256 -19.425   2.044  1.00  0.00    -0.206 F 
HETATM   36  C   UNL     1      44.460 -21.734   2.481  1.00  0.00     0.043 A 
HETATM   37  C   UNL     1      44.650 -22.762   3.401  1.00  0.00     0.003 A 
HETATM   38  C   UNL     1      44.775 -22.469   4.760  1.00  0.00     0.001 A 
HETATM   39  C   UNL     1      44.718 -21.145   5.205  1.00  0.00     0.012 A 
ENDBRANCH  32  33
ENDBRANCH  28  32
ENDBRANCH   4  25
TORSDOF 9
ENDMDL
MODEL 2
REMARK VINA RESULT:      -9.3      0.450      2.139
REMARK  9 active torsions:
REMARK  status: ('A' for Active; 'I' for Inactive)
REMARK    1  A    between atoms: O_2  and  C_3 
REMARK    2  A    between atoms: C_5  and  O_6 
REMARK    3  A    between atoms: C_9  and  C_10 
REMARK       I    between atoms: C_10  and  N_11 
REMARK    4  A    between atoms: N_11  and  C_12 
REMARK    5  A    between atoms: C_12  and  N_13 
REMARK    6  A    between atoms: N_13  and  C_14 
REMARK    7  A    between atoms: C_17  and  N_18 
REMARK    8  A    between atoms: N_21  and  C_23 
REMARK    9  A    between atoms: C_23  and  C_24 
ROOT
HETATM    1  C   UNL     1      41.059 -11.844   5.901  1.00  0.00     0.034 A 
HETATM    2  C   UNL     1      39.851 -12.471   5.603  1.00  0.00     0.032 A 
HETATM    3  C   UNL     1      39.781 -13.860   5.387  1.00  0.00     0.031 A 
HETATM    4  C   UNL     1      40.914 -14.675   5.445  1.00  0.00     0.030 A 
HETATM    5  C   UNL     1      42.132 -14.014   5.683  1.00  0.00     0.031 A 
HETATM    6  C   UNL     1      42.209 -12.627   5.908  1.00  0.00     0.032 A 
ENDROOT
BRANCH   1   7
HETATM    7  N   UNL     1      41.194 -10.448   6.103  1.00  0.00    -0.333 N 
HETATM    8  H   UNL     1      41.715  -9.952   5.390  1.00  0.00     0.168 HD
BRANCH   7   9
HETATM    9  C   UNL     1      40.883  -9.712   7.212  1.00  0.00     0.179 C 
HETATM   10  S   UNL     1      41.066  -8.054   7.403  1.00  0.00    -0.040 SA
BRANCH   9  11
HETATM   11  N   UNL     1      40.363 -10.388   8.310  1.00  0.00    -0.299 N 
HETATM   12  C   UNL     1      40.634 -10.769   9.628  1.00  0.00     0.258 C 
HETATM   13  O   UNL     1      39.720 -11.262  10.290  1.00  0.00    -0.267 OA
HETATM   14  H   UNL     1      39.412 -10.681   8.105  1.00  0.00     0.171 HD
BRANCH  12  15
HETATM   15  C   UNL     1      41.973 -10.706  10.238  1.00  0.00     0.037 A 
HETATM   16  C   UNL     1      43.158 -10.657   9.504  1.00  0.00     0.054 A 
HETATM   17  C   UNL     1      44.388 -10.563  10.168  1.00  0.00     0.071 A 
HETATM   18  C   UNL     1      44.421 -10.418  11.559  1.00  0.00     0.073 A 
HETATM   19  C   UNL     1      43.228 -10.378  12.282  1.00  0.00     0.071 A 
HETATM   20  C   UNL     1      42.012 -10.555  11.629  1.00  0.00     0.054 A 
BRANCH  17  21
HETATM   21  O   UNL     1      45.485 -10.627   9.350  1.00  0.00    -0.356 OA
HETATM   22  C   UNL     1      45.848 -11.917   8.867  1.00  0.00     0.210 C 
ENDBRANCH  17  21
BRANCH  19  23
HETATM   23  O   UNL     1      43.168 -10.216  13.639  1.00  0.00    -0.356 OA
HETATM   24  C   UNL     1      41.841 -10.249  14.163  1.00  0.00     0.210 C 
ENDBRANCH  19  23
ENDBRANCH  12  15
ENDBRANCH   9  11
ENDBRANCH   7   9
ENDBRANCH   1   7
BRANCH   4  25
HETATM   25  N   UNL     1      40.879 -16.052   5.223  1.00  0.00    -0.378 N 
HETATM   26  C   UNL     1      41.189 -17.014   6.299  1.00  0.00     0.150 C 
HETATM   27  C   UNL     1      42.663 -17.473   6.241  1.00  0.00     0.255 C 
HETATM   28  N   UNL     1      42.998 -18.009   4.849  1.00  0.00    -0.064 N 
HETATM   29  H   UNL     1      42.376 -18.813   4.677  1.00  0.00     0.280 HD
HETATM   30  C   UNL     1      42.684 -16.961   3.779  1.00  0.00     0.255 C 
HETATM   31  C   UNL     1      41.200 -16.543   3.866  1.00  0.00     0.150 C 
BRANCH  28  32
HETATM   32  C   UNL     1      44.405 -18.547   4.763  1.00  0.00     0.276 C 
BRANCH  32  33
HETATM   33  C   UNL     1      44.485 -19.987   4.343  1.00  0.00     0.006 A 
HETATM   34  C   UNL     1      44.384 -20.332   2.991  1.00  0.00     0.124 A 
HETATM   35  F   UNL     1      44.252 -19.353   2.082  1.00  0.00    -0.206 F 
HETATM   36  C   UNL     1      44.464 -21.652   2.564  1.00  0.00     0.043 A 
HETATM   37  C   UNL     1      44.639 -22.663   3.506  1.00  0.00     0.003 A 
HETATM   38  C   UNL     1      44.725 -22.345   4.863  1.00  0.00     0.001 A 
HETATM   39  C   UNL     1      44.645 -21.014   5.283  1.00  0.00     0.012 A 
ENDBRANCH  32  33
ENDBRANCH  28  32
ENDBRANCH   4  25
TORSDOF 9
ENDMDL
MODEL 3
REMARK VINA RESULT:      -9.1      5.264      7.910
REMARK  9 active torsions:
REMARK  status: ('A' for Active; 'I' for Inactive)
REMARK    1  A    between atoms: O_2  and  C_3 
REMARK    2  A    between atoms: C_5  and  O_6 
REMARK    3  A    between atoms: C_9  and  C_10 
REMARK       I    between atoms: C_10  and  N_11 
REMARK    4  A    between atoms: N_11  and  C_12 
REMARK    5  A    between atoms: C_12  and  N_13 
REMARK    6  A    between atoms: N_13  and  C_14 
REMARK    7  A    between atoms: C_17  and  N_18 
REMARK    8  A    between atoms: N_21  and  C_23 
REMARK    9  A    between atoms: C_23  and  C_24 
ROOT
HETATM    1  C   UNL     1      41.532 -12.604   3.795  1.00  0.00     0.034 A 
HETATM    2  C   UNL     1      40.416 -13.079   4.481  1.00  0.00     0.032 A 
HETATM    3  C   UNL     1      40.436 -14.322   5.140  1.00  0.00     0.031 A 
HETATM    4  C   UNL     1      41.564 -15.147   5.128  1.00  0.00     0.030 A 
HETATM    5  C   UNL     1      42.656 -14.680   4.376  1.00  0.00     0.031 A 
HETATM    6  C   UNL     1      42.647 -13.434   3.721  1.00  0.00     0.032 A 
ENDROOT
BRANCH   1   7
HETATM    7  N   UNL     1      41.561 -11.373   3.093  1.00  0.00    -0.333 N 
HETATM    8  H   UNL     1      41.792 -10.558   3.649  1.00  0.00     0.168 HD
BRANCH   7   9
HETATM    9  C   UNL     1      41.139 -11.107   1.820  1.00  0.00     0.179 C 
HETATM   10  S   UNL     1      39.577 -10.726   1.338  1.00  0.00    -0.040 SA
BRANCH   9  11
HETATM   11  N   UNL     1      42.087 -11.154   0.804  1.00  0.00    -0.299 N 
HETATM   12  C   UNL     1      42.451 -11.833  -0.363  1.00  0.00     0.258 C 
HETATM   13  O   UNL     1      43.357 -11.361  -1.051  1.00  0.00    -0.267 OA
HETATM   14  H   UNL     1      42.737 -10.382   0.914  1.00  0.00     0.171 HD
BRANCH  12  15
HETATM   15  C   UNL     1      41.883 -13.131  -0.764  1.00  0.00     0.037 A 
HETATM   16  C   UNL     1      41.558 -13.462  -2.079  1.00  0.00     0.054 A 
HETATM   17  C   UNL     1      41.053 -14.736  -2.375  1.00  0.00     0.071 A 
HETATM   18  C   UNL     1      40.970 -15.704  -1.370  1.00  0.00     0.073 A 
HETATM   19  C   UNL     1      41.380 -15.396  -0.073  1.00  0.00     0.071 A 
HETATM   20  C   UNL     1      41.802 -14.107   0.236  1.00  0.00     0.054 A 
BRANCH  17  21
HETATM   21  O   UNL     1      40.674 -14.910  -3.680  1.00  0.00    -0.356 OA
HETATM   22  C   UNL     1      39.462 -15.624  -3.904  1.00  0.00     0.210 C 
ENDBRANCH  17  21
BRANCH  19  23
HETATM   23  O   UNL     1      41.355 -16.289   0.964  1.00  0.00    -0.356 OA
HETATM   24  C   UNL     1      40.184 -16.193   1.776  1.00  0.00     0.210 C 
ENDBRANCH  19  23
ENDBRANCH  12  15
ENDBRANCH   9  11
ENDBRANCH   7   9
ENDBRANCH   1   7
BRANCH   4  25
HETATM   25  N   UNL     1      41.610 -16.390   5.760  1.00  0.00    -0.378 N 
HETATM   26  C   UNL     1      42.479 -16.628   6.930  1.00  0.00     0.150 C 
HETATM   27  C   UNL     1      43.824 -17.265   6.515  1.00  0.00     0.255 C 
HETATM   28  N   UNL     1      43.582 -18.527   5.688  1.00  0.00    -0.064 N 
HETATM   29  H   UNL     1      43.054 -19.183   6.285  1.00  0.00     0.280 HD
HETATM   30  C   UNL     1      42.701 -18.215   4.477  1.00  0.00     0.255 C 
HETATM   31  C   UNL     1      41.365 -17.594   4.938  1.00  0.00     0.150 C 
BRANCH  28  32
HETATM   32  C   UNL     1      44.865 -19.235   5.329  1.00  0.00     0.276 C 
BRANCH  32  33
HETATM   33  C   UNL     1      44.705 -20.298   4.280  1.00  0.00     0.006 A 
HETATM   34  C   UNL     1      44.746 -21.650   4.637  1.00  0.00     0.124 A 
HETATM   35  F   UNL     1      44.894 -21.973   5.932  1.00  0.00    -0.206 F 
HETATM   36  C   UNL     1      44.590 -22.661   3.696  1.00  0.00     0.043 A 
HETATM   37  C   UNL     1      44.398 -22.323   2.359  1.00  0.00     0.003 A 
HETATM   38  C   UNL     1      44.371 -20.981   1.976  1.00  0.00     0.001 A 
HETATM   39  C   UNL     1      44.528 -19.970   2.929  1.00  0.00     0.012 A 
ENDBRANCH  32  33
ENDBRANCH  28  32
ENDBRANCH   4  25
TORSDOF 9
ENDMDL
MODEL 4
REMARK VINA RESULT:      -8.9      5.144      7.575
REMARK  9 active torsions:
REMARK  status: ('A' for Active; 'I' for Inactive)
REMARK    1  A    between atoms: O_2  and  C_3 
REMARK    2  A    between atoms: C_5  and  O_6 
REMARK    3  A    between atoms: C_9  and  C_10 
REMARK       I    between atoms: C_10  and  N_11 
REMARK    4  A    between atoms: N_11  and  C_12 
REMARK    5  A    between atoms: C_12  and  N_13 
REMARK    6  A    between atoms: N_13  and  C_14 
REMARK    7  A    between atoms: C_17  and  N_18 
REMARK    8  A    between atoms: N_21  and  C_23 
REMARK    9  A    between atoms: C_23  and  C_24 
ROOT
HETATM    1  C   UNL     1      41.290 -12.760   4.259  1.00  0.00     0.034 A 
HETATM    2  C   UNL     1      40.184 -13.450   4.752  1.00  0.00     0.032 A 
HETATM    3  C   UNL     1      40.323 -14.694   5.393  1.00  0.00     0.031 A 
HETATM    4  C   UNL     1      41.568 -15.308   5.554  1.00  0.00     0.030 A 
HETATM    5  C   UNL     1      42.663 -14.627   4.992  1.00  0.00     0.031 A 
HETATM    6  C   UNL     1      42.533 -13.378   4.357  1.00  0.00     0.032 A 
ENDROOT
BRANCH   1   7
HETATM    7  N   UNL     1      41.207 -11.517   3.582  1.00  0.00    -0.333 N 
HETATM    8  H   UNL     1      41.289 -10.695   4.168  1.00  0.00     0.168 HD
BRANCH   7   9
HETATM    9  C   UNL     1      40.845 -11.274   2.287  1.00  0.00     0.179 C 
HETATM   10  S   UNL     1      39.286 -11.062   1.701  1.00  0.00    -0.040 SA
BRANCH   9  11
HETATM   11  N   UNL     1      41.859 -11.191   1.339  1.00  0.00    -0.299 N 
HETATM   12  C   UNL     1      42.348 -11.769   0.163  1.00  0.00     0.258 C 
HETATM   13  O   UNL     1      43.261 -11.194  -0.431  1.00  0.00    -0.267 OA
HETATM   14  H   UNL     1      42.442 -10.384   1.539  1.00  0.00     0.171 HD
BRANCH  12  15
HETATM   15  C   UNL     1      41.904 -13.075  -0.352  1.00  0.00     0.037 A 
HETATM   16  C   UNL     1      41.767 -14.215   0.440  1.00  0.00     0.054 A 
HETATM   17  C   UNL     1      41.303 -15.409  -0.128  1.00  0.00     0.071 A 
HETATM   18  C   UNL     1      40.885 -15.431  -1.463  1.00  0.00     0.073 A 
HETATM   19  C   UNL     1      40.941 -14.265  -2.227  1.00  0.00     0.071 A 
HETATM   20  C   UNL     1      41.479 -13.102  -1.685  1.00  0.00     0.054 A 
BRANCH  17  21
HETATM   21  O   UNL     1      41.307 -16.484   0.721  1.00  0.00    -0.356 OA
HETATM   22  C   UNL     1      41.014 -16.219   2.090  1.00  0.00     0.210 C 
ENDBRANCH  17  21
BRANCH  19  23
HETATM   23  O   UNL     1      40.532 -14.192  -3.530  1.00  0.00    -0.356 OA
HETATM   24  C   UNL     1      39.479 -15.101  -3.855  1.00  0.00     0.210 C 
ENDBRANCH  19  23
ENDBRANCH  12  15
ENDBRANCH   9  11
ENDBRANCH   7   9
ENDBRANCH   1   7
BRANCH   4  25
HETATM   25  N   UNL     1      41.737 -16.546   6.173  1.00  0.00    -0.378 N 
HETATM   26  C   UNL     1      42.749 -16.749   7.229  1.00  0.00     0.150 C 
HETATM   27  C   UNL     1      44.057 -17.336   6.653  1.00  0.00     0.255 C 
HETATM   28  N   UNL     1      43.764 -18.608   5.859  1.00  0.00    -0.064 N 
HETATM   29  H   UNL     1      43.337 -19.282   6.514  1.00  0.00     0.280 HD
HETATM   30  C   UNL     1      42.732 -18.333   4.764  1.00  0.00     0.255 C 
HETATM   31  C   UNL     1      41.439 -17.761   5.385  1.00  0.00     0.150 C 
BRANCH  28  32
HETATM   32  C   UNL     1      45.020 -19.268   5.345  1.00  0.00     0.276 C 
BRANCH  32  33
HETATM   33  C   UNL     1      44.778 -20.295   4.276  1.00  0.00     0.006 A 
HETATM   34  C   UNL     1      44.760 -21.656   4.599  1.00  0.00     0.124 A 
HETATM   35  F   UNL     1      44.925 -22.020   5.881  1.00  0.00    -0.206 F 
HETATM   36  C   UNL     1      44.528 -22.634   3.638  1.00  0.00     0.043 A 
HETATM   37  C   UNL     1      44.319 -22.252   2.315  1.00  0.00     0.003 A 
HETATM   38  C   UNL     1      44.350 -20.901   1.966  1.00  0.00     0.001 A 
HETATM   39  C   UNL     1      44.583 -19.924   2.939  1.00  0.00     0.012 A 
ENDBRANCH  32  33
ENDBRANCH  28  32
ENDBRANCH   4  25
TORSDOF 9
ENDMDL
MODEL 5
REMARK VINA RESULT:      -8.9      6.017      8.040
REMARK  9 active torsions:
REMARK  status: ('A' for Active; 'I' for Inactive)
REMARK    1  A    between atoms: O_2  and  C_3 
REMARK    2  A    between atoms: C_5  and  O_6 
REMARK    3  A    between atoms: C_9  and  C_10 
REMARK       I    between atoms: C_10  and  N_11 
REMARK    4  A    between atoms: N_11  and  C_12 
REMARK    5  A    between atoms: C_12  and  N_13 
REMARK    6  A    between atoms: N_13  and  C_14 
REMARK    7  A    between atoms: C_17  and  N_18 
REMARK    8  A    between atoms: N_21  and  C_23 
REMARK    9  A    between atoms: C_23  and  C_24 
ROOT
HETATM    1  C   UNL     1      38.175 -13.441   1.526  1.00  0.00     0.034 A 
HETATM    2  C   UNL     1      38.491 -14.786   1.342  1.00  0.00     0.032 A 
HETATM    3  C   UNL     1      39.638 -15.355   1.924  1.00  0.00     0.031 A 
HETATM    4  C   UNL     1      40.525 -14.603   2.698  1.00  0.00     0.030 A 
HETATM    5  C   UNL     1      40.224 -13.234   2.817  1.00  0.00     0.031 A 
HETATM    6  C   UNL     1      39.074 -12.660   2.245  1.00  0.00     0.032 A 
ENDROOT
BRANCH   1   7
HETATM    7  N   UNL     1      37.048 -12.810   0.944  1.00  0.00    -0.333 N 
HETATM    8  H   UNL     1      36.265 -13.418   0.736  1.00  0.00     0.168 HD
BRANCH   7   9
HETATM    9  C   UNL     1      36.941 -11.538   0.454  1.00  0.00     0.179 C 
HETATM   10  S   UNL     1      36.376 -10.187   1.277  1.00  0.00    -0.040 SA
BRANCH   9  11
HETATM   11  N   UNL     1      37.334 -11.318  -0.861  1.00  0.00    -0.299 N 
HETATM   12  C   UNL     1      38.330 -11.606  -1.800  1.00  0.00     0.258 C 
HETATM   13  O   UNL     1      38.134 -11.284  -2.973  1.00  0.00    -0.267 OA
HETATM   14  H   UNL     1      36.614 -10.790  -1.344  1.00  0.00     0.171 HD
BRANCH  12  15
HETATM   15  C   UNL     1      39.640 -12.180  -1.451  1.00  0.00     0.037 A 
HETATM   16  C   UNL     1      40.624 -11.494  -0.740  1.00  0.00     0.054 A 
HETATM   17  C   UNL     1      41.830 -12.132  -0.421  1.00  0.00     0.071 A 
HETATM   18  C   UNL     1      42.006 -13.486  -0.728  1.00  0.00     0.073 A 
HETATM   19  C   UNL     1      40.984 -14.193  -1.360  1.00  0.00     0.071 A 
HETATM   20  C   UNL     1      39.821 -13.536  -1.750  1.00  0.00     0.054 A 
BRANCH  17  21
HETATM   21  O   UNL     1      42.758 -11.328   0.187  1.00  0.00    -0.356 OA
HETATM   22  C   UNL     1      43.040 -10.084  -0.448  1.00  0.00     0.210 C 
ENDBRANCH  17  21
BRANCH  19  23
HETATM   23  O   UNL     1      41.063 -15.521  -1.676  1.00  0.00    -0.356 OA
HETATM   24  C   UNL     1      40.596 -15.829  -2.990  1.00  0.00     0.210 C 
ENDBRANCH  19  23
ENDBRANCH  12  15
ENDBRANCH   9  11
ENDBRANCH   7   9
ENDBRANCH   1   7
BRANCH   4  25
HETATM   25  N   UNL     1      41.678 -15.134   3.276  1.00  0.00    -0.378 N 
HETATM   26  C   UNL     1      42.986 -15.061   2.595  1.00  0.00     0.150 C 
HETATM   27  C   UNL     1      43.292 -16.360   1.816  1.00  0.00     0.255 C 
HETATM   28  N   UNL     1      43.168 -17.573   2.737  1.00  0.00    -0.064 N 
HETATM   29  H   UNL     1      43.858 -17.449   3.494  1.00  0.00     0.280 HD
HETATM   30  C   UNL     1      41.786 -17.613   3.393  1.00  0.00     0.255 C 
HETATM   31  C   UNL     1      41.530 -16.303   4.169  1.00  0.00     0.150 C 
BRANCH  28  32
HETATM   32  C   UNL     1      43.539 -18.862   2.045  1.00  0.00     0.276 C 
BRANCH  32  33
HETATM   33  C   UNL     1      44.007 -19.944   2.976  1.00  0.00     0.006 A 
HETATM   34  C   UNL     1      44.150 -21.257   2.512  1.00  0.00     0.124 A 
HETATM   35  F   UNL     1      43.897 -21.518   1.220  1.00  0.00    -0.206 F 
HETATM   36  C   UNL     1      44.591 -22.281   3.342  1.00  0.00     0.043 A 
HETATM   37  C   UNL     1      44.888 -22.000   4.672  1.00  0.00     0.003 A 
HETATM   38  C   UNL     1      44.737 -20.702   5.162  1.00  0.00     0.001 A 
HETATM   39  C   UNL     1      44.294 -19.676   4.321  1.00  0.00     0.012 A 
ENDBRANCH  32  33
ENDBRANCH  28  32
ENDBRANCH   4  25
TORSDOF 9
ENDMDL
MODEL 6
REMARK VINA RESULT:      -8.7      4.224     10.434
REMARK  9 active torsions:
REMARK  status: ('A' for Active; 'I' for Inactive)
REMARK    1  A    between atoms: O_2  and  C_3 
REMARK    2  A    between atoms: C_5  and  O_6 
REMARK    3  A    between atoms: C_9  and  C_10 
REMARK       I    between atoms: C_10  and  N_11 
REMARK    4  A    between atoms: N_11  and  C_12 
REMARK    5  A    between atoms: C_12  and  N_13 
REMARK    6  A    between atoms: N_13  and  C_14 
REMARK    7  A    between atoms: C_17  and  N_18 
REMARK    8  A    between atoms: N_21  and  C_23 
REMARK    9  A    between atoms: C_23  and  C_24 
ROOT
HETATM    1  C   UNL     1      41.322 -14.865   4.907  1.00  0.00     0.034 A 
HETATM    2  C   UNL     1      42.316 -13.889   4.869  1.00  0.00     0.032 A 
HETATM    3  C   UNL     1      42.157 -12.656   5.527  1.00  0.00     0.031 A 
HETATM    4  C   UNL     1      40.995 -12.340   6.235  1.00  0.00     0.030 A 
HETATM    5  C   UNL     1      39.978 -13.311   6.207  1.00  0.00     0.031 A 
HETATM    6  C   UNL     1      40.133 -14.550   5.558  1.00  0.00     0.032 A 
ENDROOT
BRANCH   1   7
HETATM    7  N   UNL     1      41.416 -16.113   4.243  1.00  0.00    -0.333 N 
HETATM    8  H   UNL     1      41.667 -16.901   4.827  1.00  0.00     0.168 HD
BRANCH   7   9
HETATM    9  C   UNL     1      41.403 -16.368   2.900  1.00  0.00     0.179 C 
HETATM   10  S   UNL     1      40.048 -16.546   1.923  1.00  0.00    -0.040 SA
BRANCH   9  11
HETATM   11  N   UNL     1      42.628 -16.499   2.256  1.00  0.00    -0.299 N 
HETATM   12  C   UNL     1      43.766 -17.307   2.158  1.00  0.00     0.258 C 
HETATM   13  O   UNL     1      44.572 -17.068   1.258  1.00  0.00    -0.267 OA
HETATM   14  H   UNL     1      42.725 -15.764   1.562  1.00  0.00     0.171 HD
BRANCH  12  15
HETATM   15  C   UNL     1      44.104 -18.362   3.127  1.00  0.00     0.037 A 
HETATM   16  C   UNL     1      44.146 -18.164   4.507  1.00  0.00     0.054 A 
HETATM   17  C   UNL     1      44.444 -19.236   5.359  1.00  0.00     0.071 A 
HETATM   18  C   UNL     1      44.601 -20.523   4.832  1.00  0.00     0.073 A 
HETATM   19  C   UNL     1      44.471 -20.732   3.460  1.00  0.00     0.071 A 
HETATM   20  C   UNL     1      44.257 -19.654   2.608  1.00  0.00     0.054 A 
BRANCH  17  21
HETATM   21  O   UNL     1      44.558 -18.899   6.682  1.00  0.00    -0.356 OA
HETATM   22  C   UNL     1      44.280 -17.544   7.022  1.00  0.00     0.210 C 
ENDBRANCH  17  21
BRANCH  19  23
HETATM   23  O   UNL     1      44.586 -21.959   2.865  1.00  0.00    -0.356 OA
HETATM   24  C   UNL     1      44.110 -21.992   1.519  1.00  0.00     0.210 C 
ENDBRANCH  19  23
ENDBRANCH  12  15
ENDBRANCH   9  11
ENDBRANCH   7   9
ENDBRANCH   1   7
BRANCH   4  25
HETATM   25  N   UNL     1      40.801 -11.121   6.886  1.00  0.00    -0.378 N 
HETATM   26  C   UNL     1      41.900 -10.453   7.613  1.00  0.00     0.150 C 
HETATM   27  C   UNL     1      41.861 -10.780   9.122  1.00  0.00     0.255 C 
HETATM   28  N   UNL     1      40.484 -10.457   9.701  1.00  0.00    -0.064 N 
HETATM   29  H   UNL     1      40.324  -9.448   9.557  1.00  0.00     0.280 HD
HETATM   30  C   UNL     1      39.390 -11.198   8.928  1.00  0.00     0.255 C 
HETATM   31  C   UNL     1      39.458 -10.832   7.430  1.00  0.00     0.150 C 
BRANCH  28  32
HETATM   32  C   UNL     1      40.419 -10.680  11.192  1.00  0.00     0.276 C 
BRANCH  32  33
HETATM   33  C   UNL     1      41.352  -9.808  11.982  1.00  0.00     0.006 A 
HETATM   34  C   UNL     1      42.369 -10.384  12.752  1.00  0.00     0.124 A 
HETATM   35  F   UNL     1      42.514 -11.718  12.740  1.00  0.00    -0.206 F 
HETATM   36  C   UNL     1      43.258  -9.608  13.487  1.00  0.00     0.043 A 
HETATM   37  C   UNL     1      43.128  -8.222  13.468  1.00  0.00     0.003 A 
HETATM   38  C   UNL     1      42.111  -7.626  12.721  1.00  0.00     0.001 A 
HETATM   39  C   UNL     1      41.222  -8.413  11.983  1.00  0.00     0.012 A 
ENDBRANCH  32  33
ENDBRANCH  28  32
ENDBRANCH   4  25
TORSDOF 9
ENDMDL
MODEL 7
REMARK VINA RESULT:      -8.7      5.002      7.389
REMARK  9 active torsions:
REMARK  status: ('A' for Active; 'I' for Inactive)
REMARK    1  A    between atoms: O_2  and  C_3 
REMARK    2  A    between atoms: C_5  and  O_6 
REMARK    3  A    between atoms: C_9  and  C_10 
REMARK       I    between atoms: C_10  and  N_11 
REMARK    4  A    between atoms: N_11  and  C_12 
REMARK    5  A    between atoms: C_12  and  N_13 
REMARK    6  A    between atoms: N_13  and  C_14 
REMARK    7  A    between atoms: C_17  and  N_18 
REMARK    8  A    between atoms: N_21  and  C_23 
REMARK    9  A    between atoms: C_23  and  C_24 
ROOT
HETATM    1  C   UNL     1      40.534 -12.807   4.193  1.00  0.00     0.034 A 
HETATM    2  C   UNL     1      41.728 -13.460   3.890  1.00  0.00     0.032 A 
HETATM    3  C   UNL     1      42.086 -14.663   4.524  1.00  0.00     0.031 A 
HETATM    4  C   UNL     1      41.277 -15.256   5.497  1.00  0.00     0.030 A 
HETATM    5  C   UNL     1      40.109 -14.548   5.836  1.00  0.00     0.031 A 
HETATM    6  C   UNL     1      39.740 -13.348   5.200  1.00  0.00     0.032 A 
ENDROOT
BRANCH   1   7
HETATM    7  N   UNL     1      40.134 -11.581   3.606  1.00  0.00    -0.333 N 
HETATM    8  H   UNL     1      39.824 -10.867   4.253  1.00  0.00     0.168 HD
BRANCH   7   9
HETATM    9  C   UNL     1      39.930 -11.295   2.285  1.00  0.00     0.179 C 
HETATM   10  S   UNL     1      40.861 -10.284   1.319  1.00  0.00    -0.040 SA
BRANCH   9  11
HETATM   11  N   UNL     1      38.843 -11.891   1.656  1.00  0.00    -0.299 N 
HETATM   12  C   UNL     1      38.433 -13.035   0.963  1.00  0.00     0.258 C 
HETATM   13  O   UNL     1      37.231 -13.172   0.728  1.00  0.00    -0.267 OA
HETATM   14  H   UNL     1      38.022 -11.306   1.777  1.00  0.00     0.171 HD
BRANCH  12  15
HETATM   15  C   UNL     1      39.363 -14.035   0.414  1.00  0.00     0.037 A 
HETATM   16  C   UNL     1      39.904 -13.968  -0.870  1.00  0.00     0.054 A 
HETATM   17  C   UNL     1      40.811 -14.946  -1.298  1.00  0.00     0.071 A 
HETATM   18  C   UNL     1      41.248 -15.931  -0.406  1.00  0.00     0.073 A 
HETATM   19  C   UNL     1      40.772 -15.942   0.904  1.00  0.00     0.071 A 
HETATM   20  C   UNL     1      39.809 -15.020   1.303  1.00  0.00     0.054 A 
BRANCH  17  21
HETATM   21  O   UNL     1      41.194 -14.834  -2.609  1.00  0.00    -0.356 OA
HETATM   22  C   UNL     1      41.056 -13.549  -3.208  1.00  0.00     0.210 C 
ENDBRANCH  17  21
BRANCH  19  23
HETATM   23  O   UNL     1      41.163 -16.853   1.847  1.00  0.00    -0.356 OA
HETATM   24  C   UNL     1      42.020 -17.875   1.337  1.00  0.00     0.210 C 
ENDBRANCH  19  23
ENDBRANCH  12  15
ENDBRANCH   9  11
ENDBRANCH   7   9
ENDBRANCH   1   7
BRANCH   4  25
HETATM   25  N   UNL     1      41.611 -16.440   6.153  1.00  0.00    -0.378 N 
HETATM   26  C   UNL     1      42.724 -16.497   7.122  1.00  0.00     0.150 C 
HETATM   27  C   UNL     1      44.027 -16.998   6.458  1.00  0.00     0.255 C 
HETATM   28  N   UNL     1      43.785 -18.331   5.752  1.00  0.00    -0.064 N 
HETATM   29  H   UNL     1      43.479 -19.004   6.472  1.00  0.00     0.280 HD
HETATM   30  C   UNL     1      42.641 -18.205   4.742  1.00  0.00     0.255 C 
HETATM   31  C   UNL     1      41.360 -17.716   5.451  1.00  0.00     0.150 C 
BRANCH  28  32
HETATM   32  C   UNL     1      45.047 -18.905   5.157  1.00  0.00     0.276 C 
BRANCH  32  33
HETATM   33  C   UNL     1      44.861 -20.242   4.498  1.00  0.00     0.006 A 
HETATM   34  C   UNL     1      44.728 -20.328   3.108  1.00  0.00     0.124 A 
HETATM   35  F   UNL     1      44.808 -19.203   2.379  1.00  0.00    -0.206 F 
HETATM   36  C   UNL     1      44.566 -21.548   2.462  1.00  0.00     0.043 A 
HETATM   37  C   UNL     1      44.522 -22.717   3.218  1.00  0.00     0.003 A 
HETATM   38  C   UNL     1      44.634 -22.655   4.607  1.00  0.00     0.001 A 
HETATM   39  C   UNL     1      44.799 -21.423   5.249  1.00  0.00     0.012 A 
ENDBRANCH  32  33
ENDBRANCH  28  32
ENDBRANCH   4  25
TORSDOF 9
ENDMDL
MODEL 8
REMARK VINA RESULT:      -8.6      5.061      7.305
REMARK  9 active torsions:
REMARK  status: ('A' for Active; 'I' for Inactive)
REMARK    1  A    between atoms: O_2  and  C_3 
REMARK    2  A    between atoms: C_5  and  O_6 
REMARK    3  A    between atoms: C_9  and  C_10 
REMARK       I    between atoms: C_10  and  N_11 
REMARK    4  A    between atoms: N_11  and  C_12 
REMARK    5  A    between atoms: C_12  and  N_13 
REMARK    6  A    between atoms: N_13  and  C_14 
REMARK    7  A    between atoms: C_17  and  N_18 
REMARK    8  A    between atoms: N_21  and  C_23 
REMARK    9  A    between atoms: C_23  and  C_24 
ROOT
HETATM    1  C   UNL     1      40.798 -12.822   4.318  1.00  0.00     0.034 A 
HETATM    2  C   UNL     1      42.064 -13.400   4.237  1.00  0.00     0.032 A 
HETATM    3  C   UNL     1      42.342 -14.642   4.837  1.00  0.00     0.031 A 
HETATM    4  C   UNL     1      41.374 -15.350   5.554  1.00  0.00     0.030 A 
HETATM    5  C   UNL     1      40.123 -14.720   5.680  1.00  0.00     0.031 A 
HETATM    6  C   UNL     1      39.835 -13.482   5.076  1.00  0.00     0.032 A 
ENDROOT
BRANCH   1   7
HETATM    7  N   UNL     1      40.468 -11.564   3.757  1.00  0.00    -0.333 N 
HETATM    8  H   UNL     1      40.324 -10.813   4.421  1.00  0.00     0.168 HD
BRANCH   7   9
HETATM    9  C   UNL     1      40.134 -11.268   2.465  1.00  0.00     0.179 C 
HETATM   10  S   UNL     1      40.897 -10.163   1.456  1.00  0.00    -0.040 SA
BRANCH   9  11
HETATM   11  N   UNL     1      39.049 -11.937   1.910  1.00  0.00    -0.299 N 
HETATM   12  C   UNL     1      38.671 -13.111   1.251  1.00  0.00     0.258 C 
HETATM   13  O   UNL     1      37.468 -13.328   1.093  1.00  0.00    -0.267 OA
HETATM   14  H   UNL     1      38.201 -11.406   2.081  1.00  0.00     0.171 HD
BRANCH  12  15
HETATM   15  C   UNL     1      39.627 -14.054   0.647  1.00  0.00     0.037 A 
HETATM   16  C   UNL     1      40.323 -15.023   1.370  1.00  0.00     0.054 A 
HETATM   17  C   UNL     1      41.188 -15.903   0.706  1.00  0.00     0.071 A 
HETATM   18  C   UNL     1      41.278 -15.874  -0.689  1.00  0.00     0.073 A 
HETATM   19  C   UNL     1      40.513 -14.962  -1.415  1.00  0.00     0.071 A 
HETATM   20  C   UNL     1      39.717 -14.035  -0.750  1.00  0.00     0.054 A 
BRANCH  17  21
HETATM   21  O   UNL     1      41.893 -16.740   1.531  1.00  0.00    -0.356 OA
HETATM   22  C   UNL     1      43.309 -16.586   1.540  1.00  0.00     0.210 C 
ENDBRANCH  17  21
BRANCH  19  23
HETATM   23  O   UNL     1      40.522 -14.881  -2.781  1.00  0.00    -0.356 OA
HETATM   24  C   UNL     1      40.349 -13.555  -3.280  1.00  0.00     0.210 C 
ENDBRANCH  19  23
ENDBRANCH  12  15
ENDBRANCH   9  11
ENDBRANCH   7   9
ENDBRANCH   1   7
BRANCH   4  25
HETATM   25  N   UNL     1      41.623 -16.576   6.171  1.00  0.00    -0.378 N 
HETATM   26  C   UNL     1      42.688 -16.728   7.182  1.00  0.00     0.150 C 
HETATM   27  C   UNL     1      43.994 -17.263   6.553  1.00  0.00     0.255 C 
HETATM   28  N   UNL     1      43.721 -18.552   5.779  1.00  0.00    -0.064 N 
HETATM   29  H   UNL     1      43.352 -19.238   6.455  1.00  0.00     0.280 HD
HETATM   30  C   UNL     1      42.632 -18.328   4.728  1.00  0.00     0.255 C 
HETATM   31  C   UNL     1      41.344 -17.807   5.402  1.00  0.00     0.150 C 
BRANCH  28  32
HETATM   32  C   UNL     1      44.981 -19.161   5.214  1.00  0.00     0.276 C 
BRANCH  32  33
HETATM   33  C   UNL     1      44.737 -20.212   4.168  1.00  0.00     0.006 A 
HETATM   34  C   UNL     1      44.758 -21.567   4.515  1.00  0.00     0.124 A 
HETATM   35  F   UNL     1      44.963 -21.904   5.798  1.00  0.00    -0.206 F 
HETATM   36  C   UNL     1      44.526 -22.566   3.576  1.00  0.00     0.043 A 
HETATM   37  C   UNL     1      44.277 -22.212   2.253  1.00  0.00     0.003 A 
HETATM   38  C   UNL     1      44.268 -20.867   1.880  1.00  0.00     0.001 A 
HETATM   39  C   UNL     1      44.501 -19.868   2.830  1.00  0.00     0.012 A 
ENDBRANCH  32  33
ENDBRANCH  28  32
ENDBRANCH   4  25
TORSDOF 9
ENDMDL
MODEL 9
REMARK VINA RESULT:      -8.6      4.744      6.860
REMARK  9 active torsions:
REMARK  status: ('A' for Active; 'I' for Inactive)
REMARK    1  A    between atoms: O_2  and  C_3 
REMARK    2  A    between atoms: C_5  and  O_6 
REMARK    3  A    between atoms: C_9  and  C_10 
REMARK       I    between atoms: C_10  and  N_11 
REMARK    4  A    between atoms: N_11  and  C_12 
REMARK    5  A    between atoms: C_12  and  N_13 
REMARK    6  A    between atoms: N_13  and  C_14 
REMARK    7  A    between atoms: C_17  and  N_18 
REMARK    8  A    between atoms: N_21  and  C_23 
REMARK    9  A    between atoms: C_23  and  C_24 
ROOT
HETATM    1  C   UNL     1      41.261 -12.026   4.339  1.00  0.00     0.034 A 
HETATM    2  C   UNL     1      42.434 -12.665   4.735  1.00  0.00     0.032 A 
HETATM    3  C   UNL     1      42.445 -14.028   5.084  1.00  0.00     0.031 A 
HETATM    4  C   UNL     1      41.283 -14.804   5.066  1.00  0.00     0.030 A 
HETATM    5  C   UNL     1      40.099 -14.126   4.727  1.00  0.00     0.031 A 
HETATM    6  C   UNL     1      40.082 -12.765   4.370  1.00  0.00     0.032 A 
ENDROOT
BRANCH   1   7
HETATM    7  N   UNL     1      41.186 -10.652   4.002  1.00  0.00    -0.333 N 
HETATM    8  H   UNL     1      41.390 -10.006   4.754  1.00  0.00     0.168 HD
BRANCH   7   9
HETATM    9  C   UNL     1      40.695 -10.079   2.862  1.00  0.00     0.179 C 
HETATM   10  S   UNL     1      39.252  -9.235   2.702  1.00  0.00    -0.040 SA
BRANCH   9  11
HETATM   11  N   UNL     1      41.453 -10.198   1.703  1.00  0.00    -0.299 N 
HETATM   12  C   UNL     1      41.730 -11.042   0.622  1.00  0.00     0.258 C 
HETATM   13  O   UNL     1      42.412 -10.597  -0.302  1.00  0.00    -0.267 OA
HETATM   14  H   UNL     1      41.968  -9.336   1.547  1.00  0.00     0.171 HD
BRANCH  12  15
HETATM   15  C   UNL     1      41.338 -12.460   0.572  1.00  0.00     0.037 A 
HETATM   16  C   UNL     1      42.130 -13.502   1.053  1.00  0.00     0.054 A 
HETATM   17  C   UNL     1      41.661 -14.821   0.996  1.00  0.00     0.071 A 
HETATM   18  C   UNL     1      40.361 -15.080   0.549  1.00  0.00     0.073 A 
HETATM   19  C   UNL     1      39.539 -14.026   0.152  1.00  0.00     0.071 A 
HETATM   20  C   UNL     1      40.035 -12.726   0.131  1.00  0.00     0.054 A 
BRANCH  17  21
HETATM   21  O   UNL     1      42.566 -15.766   1.401  1.00  0.00    -0.356 OA
HETATM   22  C   UNL     1      42.692 -16.924   0.580  1.00  0.00     0.210 C 
ENDBRANCH  17  21
BRANCH  19  23
HETATM   23  O   UNL     1      38.250 -14.188  -0.276  1.00  0.00    -0.356 OA
HETATM   24  C   UNL     1      37.275 -13.991   0.749  1.00  0.00     0.210 C 
ENDBRANCH  19  23
ENDBRANCH  12  15
ENDBRANCH   9  11
ENDBRANCH   7   9
ENDBRANCH   1   7
BRANCH   4  25
HETATM   25  N   UNL     1      41.259 -16.154   5.419  1.00  0.00    -0.378 N 
HETATM   26  C   UNL     1      41.868 -16.633   6.676  1.00  0.00     0.150 C 
HETATM   27  C   UNL     1      43.302 -17.158   6.446  1.00  0.00     0.255 C 
HETATM   28  N   UNL     1      43.311 -18.214   5.342  1.00  0.00    -0.064 N 
HETATM   29  H   UNL     1      42.703 -18.986   5.657  1.00  0.00     0.280 HD
HETATM   30  C   UNL     1      42.695 -17.654   4.057  1.00  0.00     0.255 C 
HETATM   31  C   UNL     1      41.260 -17.154   4.331  1.00  0.00     0.150 C 
BRANCH  28  32
HETATM   32  C   UNL     1      44.677 -18.820   5.135  1.00  0.00     0.276 C 
BRANCH  32  33
HETATM   33  C   UNL     1      44.652 -20.190   4.519  1.00  0.00     0.006 A 
HETATM   34  C   UNL     1      44.619 -20.335   3.128  1.00  0.00     0.124 A 
HETATM   35  F   UNL     1      44.646 -19.233   2.361  1.00  0.00    -0.206 F 
HETATM   36  C   UNL     1      44.607 -21.586   2.523  1.00  0.00     0.043 A 
HETATM   37  C   UNL     1      44.617 -22.728   3.320  1.00  0.00     0.003 A 
HETATM   38  C   UNL     1      44.632 -22.609   4.710  1.00  0.00     0.001 A 
HETATM   39  C   UNL     1      44.646 -21.346   5.311  1.00  0.00     0.012 A 
ENDBRANCH  32  33
ENDBRANCH  28  32
ENDBRANCH   4  25
TORSDOF 9
ENDMDL
MODEL 10
REMARK VINA RESULT:      -8.6      5.379      9.078
REMARK  9 active torsions:
REMARK  status: ('A' for Active; 'I' for Inactive)
REMARK    1  A    between atoms: O_2  and  C_3 
REMARK    2  A    between atoms: C_5  and  O_6 
REMARK    3  A    between atoms: C_9  and  C_10 
REMARK       I    between atoms: C_10  and  N_11 
REMARK    4  A    between atoms: N_11  and  C_12 
REMARK    5  A    between atoms: C_12  and  N_13 
REMARK    6  A    between atoms: N_13  and  C_14 
REMARK    7  A    between atoms: C_17  and  N_18 
REMARK    8  A    between atoms: N_21  and  C_23 
REMARK    9  A    between atoms: C_23  and  C_24 
ROOT
HETATM    1  C   UNL     1      41.476 -14.811   5.521  1.00  0.00     0.034 A 
HETATM    2  C   UNL     1      40.812 -15.534   4.531  1.00  0.00     0.032 A 
HETATM    3  C   UNL     1      40.145 -14.887   3.475  1.00  0.00     0.031 A 
HETATM    4  C   UNL     1      40.098 -13.494   3.373  1.00  0.00     0.030 A 
HETATM    5  C   UNL     1      40.717 -12.783   4.416  1.00  0.00     0.031 A 
HETATM    6  C   UNL     1      41.394 -13.423   5.471  1.00  0.00     0.032 A 
ENDROOT
BRANCH   1   7
HETATM    7  N   UNL     1      42.142 -15.408   6.620  1.00  0.00    -0.333 N 
HETATM    8  H   UNL     1      41.578 -15.547   7.450  1.00  0.00     0.168 HD
BRANCH   7   9
HETATM    9  C   UNL     1      43.478 -15.646   6.780  1.00  0.00     0.179 C 
HETATM   10  S   UNL     1      44.711 -14.505   6.779  1.00  0.00    -0.040 SA
BRANCH   9  11
HETATM   11  N   UNL     1      43.881 -16.964   6.963  1.00  0.00    -0.299 N 
HETATM   12  C   UNL     1      44.267 -18.126   6.286  1.00  0.00     0.258 C 
HETATM   13  O   UNL     1      44.716 -19.062   6.948  1.00  0.00    -0.267 OA
HETATM   14  H   UNL     1      43.979 -17.152   7.956  1.00  0.00     0.171 HD
BRANCH  12  15
HETATM   15  C   UNL     1      44.075 -18.331   4.841  1.00  0.00     0.037 A 
HETATM   16  C   UNL     1      43.709 -17.318   3.955  1.00  0.00     0.054 A 
HETATM   17  C   UNL     1      43.583 -17.596   2.587  1.00  0.00     0.071 A 
HETATM   18  C   UNL     1      43.922 -18.863   2.099  1.00  0.00     0.073 A 
HETATM   19  C   UNL     1      44.374 -19.847   2.977  1.00  0.00     0.071 A 
HETATM   20  C   UNL     1      44.418 -19.595   4.344  1.00  0.00     0.054 A 
BRANCH  17  21
HETATM   21  O   UNL     1      43.118 -16.551   1.833  1.00  0.00    -0.356 OA
HETATM   22  C   UNL     1      42.255 -16.880   0.748  1.00  0.00     0.210 C 
ENDBRANCH  17  21
BRANCH  19  23
HETATM   23  O   UNL     1      44.747 -21.103   2.582  1.00  0.00    -0.356 OA
HETATM   24  C   UNL     1      43.810 -21.733   1.708  1.00  0.00     0.210 C 
ENDBRANCH  19  23
ENDBRANCH  12  15
ENDBRANCH   9  11
ENDBRANCH   7   9
ENDBRANCH   1   7
BRANCH   4  25
HETATM   25  N   UNL     1      39.434 -12.823   2.346  1.00  0.00    -0.378 N 
HETATM   26  C   UNL     1      38.504 -13.528   1.440  1.00  0.00     0.150 C 
HETATM   27  C   UNL     1      39.205 -13.955   0.131  1.00  0.00     0.255 C 
HETATM   28  N   UNL     1      39.879 -12.752  -0.528  1.00  0.00    -0.064 N 
HETATM   29  H   UNL     1      39.137 -12.066  -0.736  1.00  0.00     0.280 HD
HETATM   30  C   UNL     1      40.850 -12.080   0.446  1.00  0.00     0.255 C 
HETATM   31  C   UNL     1      40.105 -11.659   1.731  1.00  0.00     0.150 C 
BRANCH  28  32
HETATM   32  C   UNL     1      40.507 -13.099  -1.855  1.00  0.00     0.276 C 
BRANCH  32  33
HETATM   33  C   UNL     1      39.675 -14.016  -2.706  1.00  0.00     0.006 A 
HETATM   34  C   UNL     1      40.183 -15.254  -3.111  1.00  0.00     0.124 A 
HETATM   35  F   UNL     1      41.407 -15.618  -2.697  1.00  0.00    -0.206 F 
HETATM   36  C   UNL     1      39.438 -16.132  -3.889  1.00  0.00     0.043 A 
HETATM   37  C   UNL     1      38.154 -15.768  -4.286  1.00  0.00     0.003 A 
HETATM   38  C   UNL     1      37.631 -14.530  -3.908  1.00  0.00     0.001 A 
HETATM   39  C   UNL     1      38.388 -13.653  -3.124  1.00  0.00     0.012 A 
ENDBRANCH  32  33
ENDBRANCH  28  32
ENDBRANCH   4  25
TORSDOF 9
ENDMDL
