MODEL 1
REMARK VINA RESULT:      -8.9      0.000      0.000
REMARK  6 active torsions:
REMARK  status: ('A' for Active; 'I' for Inactive)
REMARK    1  A    between atoms: O_2  and  C_3 
REMARK    2  A    between atoms: C_6  and  C_7 
REMARK    3  A    between atoms: C_11  and  C_12 
REMARK       I    between atoms: C_12  and  N_13 
REMARK    4  A    between atoms: N_13  and  N_14 
REMARK       I    between atoms: N_14  and  C_15 
REMARK    5  A    between atoms: C_15  and  C_16 
REMARK    6  A    between atoms: C_16  and  C_17 
ROOT
HETATM    1  C   UNL     1      42.777 -13.330   6.214  1.00  0.00     0.288 C 
HETATM    2  N   UNL     1      43.558 -13.346   7.352  1.00  0.00    -0.262 N 
HETATM    3  O   UNL     1      41.934 -12.457   6.016  1.00  0.00    -0.264 OA
HETATM    4  H   UNL     1      44.360 -13.967   7.444  1.00  0.00     0.190 HD
ENDROOT
BRANCH   1   5
HETATM    5  C   UNL     1      43.039 -14.390   5.280  1.00  0.00     0.121 A 
HETATM    6  N   UNL     1      43.173 -14.164   3.939  1.00  0.00    -0.272 N 
HETATM    7  N   UNL     1      43.420 -15.267   3.216  1.00  0.00    -0.174 NA
HETATM    8  H   UNL     1      43.103 -13.270   3.461  1.00  0.00     0.189 HD
HETATM    9  C   UNL     1      43.484 -16.258   4.119  1.00  0.00     0.089 A 
HETATM   10  C   UNL     1      43.228 -15.750   5.424  1.00  0.00     0.071 A 
BRANCH   9  11
HETATM   11  C   UNL     1      43.780 -17.642   3.738  1.00  0.00    -0.005 A 
HETATM   12  C   UNL     1      43.567 -18.090   2.428  1.00  0.00     0.016 A 
HETATM   13  C   UNL     1      43.862 -19.410   2.073  1.00  0.00     0.037 A 
HETATM   14  C   UNL     1      44.376 -20.305   3.012  1.00  0.00     0.068 A 
HETATM   15  C   UNL     1      44.581 -19.872   4.321  1.00  0.00     0.037 A 
HETATM   16  C   UNL     1      44.283 -18.550   4.681  1.00  0.00     0.016 A 
BRANCH  14  17
HETATM   17  O   UNL     1      44.624 -21.559   2.527  1.00  0.00    -0.356 OA
HETATM   18  C   UNL     1      43.897 -21.954   1.372  1.00  0.00     0.210 C 
ENDBRANCH  14  17
ENDBRANCH   9  11
ENDBRANCH   1   5
BRANCH   2  19
HETATM   19  N   UNL     1      43.591 -12.203   8.166  1.00  0.00    -0.267 N 
HETATM   20  C   UNL     1      44.629 -12.121   9.075  1.00  0.00     0.240 C 
HETATM   21  O   UNL     1      45.375 -13.075   9.304  1.00  0.00    -0.272 OA
HETATM   22  H   UNL     1      43.091 -11.384   7.823  1.00  0.00     0.190 HD
BRANCH  20  23
HETATM   23  C   UNL     1      44.765 -10.784   9.771  1.00  0.00     0.143 C 
BRANCH  23  24
HETATM   24  C   UNL     1      43.939 -10.634  11.027  1.00  0.00    -0.049 A 
HETATM   25  C   UNL     1      43.545 -11.741  11.794  1.00  0.00     0.009 A 
HETATM   26  C   UNL     1      42.822 -11.565  12.978  1.00  0.00     0.024 A 
HETATM   27  C   UNL     1      42.505 -10.282  13.414  1.00  0.00     0.034 A 
HETATM   28 CL   UNL     1      41.624 -10.067  14.875  1.00  0.00    -0.084 Cl
HETATM   29  C   UNL     1      42.907  -9.172  12.677  1.00  0.00     0.024 A 
HETATM   30  C   UNL     1      43.624  -9.347  11.491  1.00  0.00     0.009 A 
ENDBRANCH  23  24
ENDBRANCH  20  23
ENDBRANCH   2  19
TORSDOF 6
ENDMDL
MODEL 2
REMARK VINA RESULT:      -8.8      3.864     10.756
REMARK  6 active torsions:
REMARK  status: ('A' for Active; 'I' for Inactive)
REMARK    1  A    between atoms: O_2  and  C_3 
REMARK    2  A    between atoms: C_6  and  C_7 
REMARK    3  A    between atoms: C_11  and  C_12 
REMARK       I    between atoms: C_12  and  N_13 
REMARK    4  A    between atoms: N_13  and  N_14 
REMARK       I    between atoms: N_14  and  C_15 
REMARK    5  A    between atoms: C_15  and  C_16 
REMARK    6  A    between atoms: C_16  and  C_17 
ROOT
HETATM    1  C   UNL     1      45.267 -13.489   7.406  1.00  0.00     0.288 C 
HETATM    2  N   UNL     1      44.403 -14.563   7.479  1.00  0.00    -0.262 N 
HETATM    3  O   UNL     1      46.142 -13.414   6.545  1.00  0.00    -0.264 OA
HETATM    4  H   UNL     1      43.583 -14.552   8.082  1.00  0.00     0.190 HD
ENDROOT
BRANCH   1   5
HETATM    5  C   UNL     1      45.053 -12.465   8.392  1.00  0.00     0.121 A 
HETATM    6  N   UNL     1      46.011 -11.544   8.707  1.00  0.00    -0.272 N 
HETATM    7  N   UNL     1      45.638 -10.660   9.644  1.00  0.00    -0.174 NA
HETATM    8  H   UNL     1      46.944 -11.475   8.312  1.00  0.00     0.189 HD
HETATM    9  C   UNL     1      44.371 -10.989   9.938  1.00  0.00     0.089 A 
HETATM   10  C   UNL     1      43.975 -12.131   9.187  1.00  0.00     0.071 A 
BRANCH   9  11
HETATM   11  C   UNL     1      43.572 -10.231  10.905  1.00  0.00    -0.005 A 
HETATM   12  C   UNL     1      42.441  -9.512  10.499  1.00  0.00     0.016 A 
HETATM   13  C   UNL     1      41.680  -8.799  11.432  1.00  0.00     0.037 A 
HETATM   14  C   UNL     1      42.029  -8.794  12.783  1.00  0.00     0.068 A 
HETATM   15  C   UNL     1      43.158  -9.499  13.195  1.00  0.00     0.037 A 
HETATM   16  C   UNL     1      43.924 -10.210  12.262  1.00  0.00     0.016 A 
BRANCH  14  17
HETATM   17  O   UNL     1      41.195  -8.063  13.583  1.00  0.00    -0.356 OA
HETATM   18  C   UNL     1      39.802  -8.323  13.464  1.00  0.00     0.210 C 
ENDBRANCH  14  17
ENDBRANCH   9  11
ENDBRANCH   1   5
BRANCH   2  19
HETATM   19  N   UNL     1      44.334 -15.450   6.394  1.00  0.00    -0.267 N 
HETATM   20  C   UNL     1      43.081 -15.934   6.069  1.00  0.00     0.240 C 
HETATM   21  O   UNL     1      42.104 -15.760   6.799  1.00  0.00    -0.272 OA
HETATM   22  H   UNL     1      45.103 -15.414   5.725  1.00  0.00     0.190 HD
BRANCH  20  23
HETATM   23  C   UNL     1      43.009 -16.701   4.766  1.00  0.00     0.143 C 
BRANCH  23  24
HETATM   24  C   UNL     1      43.519 -18.122   4.835  1.00  0.00    -0.049 A 
HETATM   25  C   UNL     1      44.058 -18.774   3.715  1.00  0.00     0.009 A 
HETATM   26  C   UNL     1      44.565 -20.072   3.824  1.00  0.00     0.024 A 
HETATM   27  C   UNL     1      44.558 -20.719   5.057  1.00  0.00     0.034 A 
HETATM   28 CL   UNL     1      45.193 -22.312   5.191  1.00  0.00    -0.084 Cl
HETATM   29  C   UNL     1      44.048 -20.079   6.182  1.00  0.00     0.024 A 
HETATM   30  C   UNL     1      43.535 -18.785   6.073  1.00  0.00     0.009 A 
ENDBRANCH  23  24
ENDBRANCH  20  23
ENDBRANCH   2  19
TORSDOF 6
ENDMDL
MODEL 3
REMARK VINA RESULT:      -8.3      1.810      2.478
REMARK  6 active torsions:
REMARK  status: ('A' for Active; 'I' for Inactive)
REMARK    1  A    between atoms: O_2  and  C_3 
REMARK    2  A    between atoms: C_6  and  C_7 
REMARK    3  A    between atoms: C_11  and  C_12 
REMARK       I    between atoms: C_12  and  N_13 
REMARK    4  A    between atoms: N_13  and  N_14 
REMARK       I    between atoms: N_14  and  C_15 
REMARK    5  A    between atoms: C_15  and  C_16 
REMARK    6  A    between atoms: C_16  and  C_17 
ROOT
HETATM    1  C   UNL     1      44.316 -13.807   7.605  1.00  0.00     0.288 C 
HETATM    2  N   UNL     1      43.273 -12.971   7.261  1.00  0.00    -0.262 N 
HETATM    3  O   UNL     1      45.298 -13.403   8.225  1.00  0.00    -0.264 OA
HETATM    4  H   UNL     1      42.395 -13.331   6.894  1.00  0.00     0.190 HD
ENDROOT
BRANCH   1   5
HETATM    5  C   UNL     1      44.157 -15.178   7.202  1.00  0.00     0.121 A 
HETATM    6  N   UNL     1      43.453 -16.080   7.949  1.00  0.00    -0.272 N 
HETATM    7  N   UNL     1      43.402 -17.312   7.420  1.00  0.00    -0.174 NA
HETATM    8  H   UNL     1      42.986 -15.908   8.834  1.00  0.00     0.189 HD
HETATM    9  C   UNL     1      44.073 -17.212   6.261  1.00  0.00     0.089 A 
HETATM   10  C   UNL     1      44.580 -15.893   6.100  1.00  0.00     0.071 A 
BRANCH   9  11
HETATM   11  C   UNL     1      44.218 -18.347   5.344  1.00  0.00    -0.005 A 
HETATM   12  C   UNL     1      43.972 -18.202   3.973  1.00  0.00     0.016 A 
HETATM   13  C   UNL     1      44.122 -19.289   3.106  1.00  0.00     0.037 A 
HETATM   14  C   UNL     1      44.525 -20.536   3.586  1.00  0.00     0.068 A 
HETATM   15  C   UNL     1      44.763 -20.693   4.951  1.00  0.00     0.037 A 
HETATM   16  C   UNL     1      44.608 -19.606   5.823  1.00  0.00     0.016 A 
BRANCH  14  17
HETATM   17  O   UNL     1      44.638 -21.505   2.629  1.00  0.00    -0.356 OA
HETATM   18  C   UNL     1      43.556 -21.632   1.715  1.00  0.00     0.210 C 
ENDBRANCH  14  17
ENDBRANCH   9  11
ENDBRANCH   1   5
BRANCH   2  19
HETATM   19  N   UNL     1      43.194 -11.706   7.864  1.00  0.00    -0.267 N 
HETATM   20  C   UNL     1      41.991 -11.038   7.744  1.00  0.00     0.240 C 
HETATM   21  O   UNL     1      41.098 -11.429   6.990  1.00  0.00    -0.272 OA
HETATM   22  H   UNL     1      43.860 -11.515   8.613  1.00  0.00     0.190 HD
BRANCH  20  23
HETATM   23  C   UNL     1      41.864  -9.790   8.591  1.00  0.00     0.143 C 
BRANCH  23  24
HETATM   24  C   UNL     1      42.042 -10.010  10.076  1.00  0.00    -0.049 A 
HETATM   25  C   UNL     1      43.254  -9.737  10.728  1.00  0.00     0.009 A 
HETATM   26  C   UNL     1      43.371  -9.904  12.111  1.00  0.00     0.024 A 
HETATM   27  C   UNL     1      42.273 -10.326  12.855  1.00  0.00     0.034 A 
HETATM   28 CL   UNL     1      42.416 -10.522  14.558  1.00  0.00    -0.084 Cl
HETATM   29  C   UNL     1      41.057 -10.580  12.228  1.00  0.00     0.024 A 
HETATM   30  C   UNL     1      40.941 -10.419  10.845  1.00  0.00     0.009 A 
ENDBRANCH  23  24
ENDBRANCH  20  23
ENDBRANCH   2  19
TORSDOF 6
ENDMDL
MODEL 4
REMARK VINA RESULT:      -8.2      8.266     11.594
REMARK  6 active torsions:
REMARK  status: ('A' for Active; 'I' for Inactive)
REMARK    1  A    between atoms: O_2  and  C_3 
REMARK    2  A    between atoms: C_6  and  C_7 
REMARK    3  A    between atoms: C_11  and  C_12 
REMARK       I    between atoms: C_12  and  N_13 
REMARK    4  A    between atoms: N_13  and  N_14 
REMARK       I    between atoms: N_14  and  C_15 
REMARK    5  A    between atoms: C_15  and  C_16 
REMARK    6  A    between atoms: C_16  and  C_17 
ROOT
HETATM    1  C   UNL     1      41.227 -14.820  -0.560  1.00  0.00     0.288 C 
HETATM    2  N   UNL     1      41.595 -16.097  -0.186  1.00  0.00    -0.262 N 
HETATM    3  O   UNL     1      41.728 -13.821  -0.048  1.00  0.00    -0.264 OA
HETATM    4  H   UNL     1      41.303 -16.916  -0.714  1.00  0.00     0.190 HD
ENDROOT
BRANCH   1   5
HETATM    5  C   UNL     1      40.237 -14.751  -1.600  1.00  0.00     0.121 A 
HETATM    6  N   UNL     1      40.231 -15.613  -2.660  1.00  0.00    -0.272 N 
HETATM    7  N   UNL     1      39.231 -15.407  -3.531  1.00  0.00    -0.174 NA
HETATM    8  H   UNL     1      40.890 -16.364  -2.840  1.00  0.00     0.189 HD
HETATM    9  C   UNL     1      38.530 -14.389  -3.010  1.00  0.00     0.089 A 
HETATM   10  C   UNL     1      39.142 -13.936  -1.808  1.00  0.00     0.071 A 
BRANCH   9  11
HETATM   11  C   UNL     1      37.315 -13.872  -3.647  1.00  0.00    -0.005 A 
HETATM   12  C   UNL     1      36.502 -14.703  -4.428  1.00  0.00     0.016 A 
HETATM   13  C   UNL     1      35.340 -14.203  -5.024  1.00  0.00     0.037 A 
HETATM   14  C   UNL     1      34.964 -12.870  -4.849  1.00  0.00     0.068 A 
HETATM   15  C   UNL     1      35.772 -12.033  -4.081  1.00  0.00     0.037 A 
HETATM   16  C   UNL     1      36.939 -12.531  -3.486  1.00  0.00     0.016 A 
BRANCH  14  17
HETATM   17  O   UNL     1      33.804 -12.518  -5.481  1.00  0.00    -0.356 OA
HETATM   18  C   UNL     1      32.761 -12.001  -4.665  1.00  0.00     0.210 C 
ENDBRANCH  14  17
ENDBRANCH   9  11
ENDBRANCH   1   5
BRANCH   2  19
HETATM   19  N   UNL     1      42.753 -16.267   0.589  1.00  0.00    -0.267 N 
HETATM   20  C   UNL     1      42.569 -16.690   1.892  1.00  0.00     0.240 C 
HETATM   21  O   UNL     1      41.453 -16.731   2.414  1.00  0.00    -0.272 OA
HETATM   22  H   UNL     1      43.625 -16.407   0.081  1.00  0.00     0.190 HD
BRANCH  20  23
HETATM   23  C   UNL     1      43.836 -17.081   2.622  1.00  0.00     0.143 C 
BRANCH  23  24
HETATM   24  C   UNL     1      43.989 -18.562   2.880  1.00  0.00    -0.049 A 
HETATM   25  C   UNL     1      43.722 -19.520   1.890  1.00  0.00     0.009 A 
HETATM   26  C   UNL     1      43.921 -20.880   2.144  1.00  0.00     0.024 A 
HETATM   27  C   UNL     1      44.408 -21.291   3.381  1.00  0.00     0.034 A 
HETATM   28 CL   UNL     1      44.662 -22.964   3.689  1.00  0.00    -0.084 Cl
HETATM   29  C   UNL     1      44.700 -20.353   4.367  1.00  0.00     0.024 A 
HETATM   30  C   UNL     1      44.496 -18.994   4.115  1.00  0.00     0.009 A 
ENDBRANCH  23  24
ENDBRANCH  20  23
ENDBRANCH   2  19
TORSDOF 6
ENDMDL
MODEL 5
REMARK VINA RESULT:      -8.1      1.967      2.323
REMARK  6 active torsions:
REMARK  status: ('A' for Active; 'I' for Inactive)
REMARK    1  A    between atoms: O_2  and  C_3 
REMARK    2  A    between atoms: C_6  and  C_7 
REMARK    3  A    between atoms: C_11  and  C_12 
REMARK       I    between atoms: C_12  and  N_13 
REMARK    4  A    between atoms: N_13  and  N_14 
REMARK       I    between atoms: N_14  and  C_15 
REMARK    5  A    between atoms: C_15  and  C_16 
REMARK    6  A    between atoms: C_16  and  C_17 
ROOT
HETATM    1  C   UNL     1      41.909 -13.116   5.377  1.00  0.00     0.288 C 
HETATM    2  N   UNL     1      41.494 -12.718   6.632  1.00  0.00    -0.262 N 
HETATM    3  O   UNL     1      42.176 -12.305   4.492  1.00  0.00    -0.264 OA
HETATM    4  H   UNL     1      41.428 -13.373   7.408  1.00  0.00     0.190 HD
ENDROOT
BRANCH   1   5
HETATM    5  C   UNL     1      42.024 -14.536   5.194  1.00  0.00     0.121 A 
HETATM    6  N   UNL     1      41.091 -15.412   5.673  1.00  0.00    -0.272 N 
HETATM    7  N   UNL     1      41.355 -16.700   5.406  1.00  0.00    -0.174 NA
HETATM    8  H   UNL     1      40.250 -15.182   6.194  1.00  0.00     0.189 HD
HETATM    9  C   UNL     1      42.492 -16.673   4.694  1.00  0.00     0.089 A 
HETATM   10  C   UNL     1      42.955 -15.334   4.558  1.00  0.00     0.071 A 
BRANCH   9  11
HETATM   11  C   UNL     1      43.110 -17.893   4.165  1.00  0.00    -0.005 A 
HETATM   12  C   UNL     1      42.845 -18.325   2.859  1.00  0.00     0.016 A 
HETATM   13  C   UNL     1      43.447 -19.486   2.361  1.00  0.00     0.037 A 
HETATM   14  C   UNL     1      44.324 -20.231   3.150  1.00  0.00     0.068 A 
HETATM   15  C   UNL     1      44.585 -19.814   4.454  1.00  0.00     0.037 A 
HETATM   16  C   UNL     1      43.980 -18.654   4.957  1.00  0.00     0.016 A 
BRANCH  14  17
HETATM   17  O   UNL     1      44.844 -21.337   2.535  1.00  0.00    -0.356 OA
HETATM   18  C   UNL     1      44.041 -21.950   1.534  1.00  0.00     0.210 C 
ENDBRANCH  14  17
ENDBRANCH   9  11
ENDBRANCH   1   5
BRANCH   2  19
HETATM   19  N   UNL     1      41.642 -11.371   6.998  1.00  0.00    -0.267 N 
HETATM   20  C   UNL     1      40.724 -10.872   7.902  1.00  0.00     0.240 C 
HETATM   21  O   UNL     1      39.716 -11.502   8.226  1.00  0.00    -0.272 OA
HETATM   22  H   UNL     1      42.566 -10.961   6.864  1.00  0.00     0.190 HD
BRANCH  20  23
HETATM   23  C   UNL     1      41.046  -9.496   8.446  1.00  0.00     0.143 C 
BRANCH  23  24
HETATM   24  C   UNL     1      41.646  -9.486   9.832  1.00  0.00    -0.049 A 
HETATM   25  C   UNL     1      42.730 -10.308  10.180  1.00  0.00     0.009 A 
HETATM   26  C   UNL     1      43.294 -10.239  11.457  1.00  0.00     0.024 A 
HETATM   27  C   UNL     1      42.794  -9.334  12.389  1.00  0.00     0.034 A 
HETATM   28 CL   UNL     1      43.496  -9.244  13.957  1.00  0.00    -0.084 Cl
HETATM   29  C   UNL     1      41.735  -8.496  12.055  1.00  0.00     0.024 A 
HETATM   30  C   UNL     1      41.166  -8.569  10.781  1.00  0.00     0.009 A 
ENDBRANCH  23  24
ENDBRANCH  20  23
ENDBRANCH   2  19
TORSDOF 6
ENDMDL
MODEL 6
REMARK VINA RESULT:      -8.0      2.318      2.870
REMARK  6 active torsions:
REMARK  status: ('A' for Active; 'I' for Inactive)
REMARK    1  A    between atoms: O_2  and  C_3 
REMARK    2  A    between atoms: C_6  and  C_7 
REMARK    3  A    between atoms: C_11  and  C_12 
REMARK       I    between atoms: C_12  and  N_13 
REMARK    4  A    between atoms: N_13  and  N_14 
REMARK       I    between atoms: N_14  and  C_15 
REMARK    5  A    between atoms: C_15  and  C_16 
REMARK    6  A    between atoms: C_16  and  C_17 
ROOT
HETATM    1  C   UNL     1      40.763 -13.121   5.026  1.00  0.00     0.288 C 
HETATM    2  N   UNL     1      41.030 -13.000   6.375  1.00  0.00    -0.262 N 
HETATM    3  O   UNL     1      40.358 -12.174   4.355  1.00  0.00    -0.264 OA
HETATM    4  H   UNL     1      41.514 -13.729   6.895  1.00  0.00     0.190 HD
ENDROOT
BRANCH   1   5
HETATM    5  C   UNL     1      41.013 -14.423   4.470  1.00  0.00     0.121 A 
HETATM    6  N   UNL     1      40.105 -15.062   3.674  1.00  0.00    -0.272 N 
HETATM    7  N   UNL     1      40.506 -16.266   3.238  1.00  0.00    -0.174 NA
HETATM    8  H   UNL     1      39.190 -14.720   3.396  1.00  0.00     0.189 HD
HETATM    9  C   UNL     1      41.742 -16.415   3.740  1.00  0.00     0.089 A 
HETATM   10  C   UNL     1      42.087 -15.288   4.537  1.00  0.00     0.071 A 
BRANCH   9  11
HETATM   11  C   UNL     1      42.559 -17.600   3.462  1.00  0.00    -0.005 A 
HETATM   12  C   UNL     1      43.424 -18.123   4.432  1.00  0.00     0.016 A 
HETATM   13  C   UNL     1      44.192 -19.259   4.159  1.00  0.00     0.037 A 
HETATM   14  C   UNL     1      44.110 -19.897   2.920  1.00  0.00     0.068 A 
HETATM   15  C   UNL     1      43.260 -19.378   1.945  1.00  0.00     0.037 A 
HETATM   16  C   UNL     1      42.492 -18.237   2.214  1.00  0.00     0.016 A 
BRANCH  14  17
HETATM   17  O   UNL     1      44.910 -20.998   2.792  1.00  0.00    -0.356 OA
HETATM   18  C   UNL     1      44.463 -22.015   1.906  1.00  0.00     0.210 C 
ENDBRANCH  14  17
ENDBRANCH   9  11
ENDBRANCH   1   5
BRANCH   2  19
HETATM   19  N   UNL     1      41.109 -11.715   6.936  1.00  0.00    -0.267 N 
HETATM   20  C   UNL     1      40.048 -11.319   7.726  1.00  0.00     0.240 C 
HETATM   21  O   UNL     1      39.000 -11.965   7.786  1.00  0.00    -0.272 OA
HETATM   22  H   UNL     1      42.041 -11.310   7.018  1.00  0.00     0.190 HD
BRANCH  20  23
HETATM   23  C   UNL     1      40.267 -10.033   8.494  1.00  0.00     0.143 C 
BRANCH  23  24
HETATM   24  C   UNL     1      40.868 -10.208   9.869  1.00  0.00    -0.049 A 
HETATM   25  C   UNL     1      42.248 -10.087  10.098  1.00  0.00     0.009 A 
HETATM   26  C   UNL     1      42.767 -10.206  11.390  1.00  0.00     0.024 A 
HETATM   27  C   UNL     1      41.911 -10.427  12.465  1.00  0.00     0.034 A 
HETATM   28 CL   UNL     1      42.551 -10.564  14.056  1.00  0.00    -0.084 Cl
HETATM   29  C   UNL     1      40.539 -10.529  12.260  1.00  0.00     0.024 A 
HETATM   30  C   UNL     1      40.019 -10.415  10.968  1.00  0.00     0.009 A 
ENDBRANCH  23  24
ENDBRANCH  20  23
ENDBRANCH   2  19
TORSDOF 6
ENDMDL
MODEL 7
REMARK VINA RESULT:      -7.9      6.652      9.867
REMARK  6 active torsions:
REMARK  status: ('A' for Active; 'I' for Inactive)
REMARK    1  A    between atoms: O_2  and  C_3 
REMARK    2  A    between atoms: C_6  and  C_7 
REMARK    3  A    between atoms: C_11  and  C_12 
REMARK       I    between atoms: C_12  and  N_13 
REMARK    4  A    between atoms: N_13  and  N_14 
REMARK       I    between atoms: N_14  and  C_15 
REMARK    5  A    between atoms: C_15  and  C_16 
REMARK    6  A    between atoms: C_16  and  C_17 
ROOT
HETATM    1  C   UNL     1      41.588 -15.335   0.782  1.00  0.00     0.288 C 
HETATM    2  N   UNL     1      42.256 -16.411   0.233  1.00  0.00    -0.262 N 
HETATM    3  O   UNL     1      40.854 -15.455   1.761  1.00  0.00    -0.264 OA
HETATM    4  H   UNL     1      42.983 -16.290  -0.469  1.00  0.00     0.190 HD
ENDROOT
BRANCH   1   5
HETATM    5  C   UNL     1      41.831 -14.073   0.138  1.00  0.00     0.121 A 
HETATM    6  N   UNL     1      42.233 -12.966   0.831  1.00  0.00    -0.272 N 
HETATM    7  N   UNL     1      42.418 -11.877   0.070  1.00  0.00    -0.174 NA
HETATM    8  H   UNL     1      42.394 -12.898   1.831  1.00  0.00     0.189 HD
HETATM    9  C   UNL     1      42.160 -12.289  -1.181  1.00  0.00     0.089 A 
HETATM   10  C   UNL     1      41.767 -13.657  -1.176  1.00  0.00     0.071 A 
BRANCH   9  11
HETATM   11  C   UNL     1      42.287 -11.397  -2.338  1.00  0.00    -0.005 A 
HETATM   12  C   UNL     1      42.232 -11.899  -3.644  1.00  0.00     0.016 A 
HETATM   13  C   UNL     1      42.345 -11.038  -4.740  1.00  0.00     0.037 A 
HETATM   14  C   UNL     1      42.510  -9.664  -4.556  1.00  0.00     0.068 A 
HETATM   15  C   UNL     1      42.576  -9.157  -3.260  1.00  0.00     0.037 A 
HETATM   16  C   UNL     1      42.467 -10.018  -2.159  1.00  0.00     0.016 A 
BRANCH  14  17
HETATM   17  O   UNL     1      42.600  -8.941  -5.713  1.00  0.00    -0.356 OA
HETATM   18  C   UNL     1      41.912  -9.456  -6.846  1.00  0.00     0.210 C 
ENDBRANCH  14  17
ENDBRANCH   9  11
ENDBRANCH   1   5
BRANCH   2  19
HETATM   19  N   UNL     1      42.324 -17.608   0.963  1.00  0.00    -0.267 N 
HETATM   20  C   UNL     1      43.534 -17.900   1.562  1.00  0.00     0.240 C 
HETATM   21  O   UNL     1      44.557 -17.256   1.317  1.00  0.00    -0.272 OA
HETATM   22  H   UNL     1      41.438 -17.995   1.289  1.00  0.00     0.190 HD
BRANCH  20  23
HETATM   23  C   UNL     1      43.508 -19.071   2.521  1.00  0.00     0.143 C 
BRANCH  23  24
HETATM   24  C   UNL     1      43.475 -18.693   3.983  1.00  0.00    -0.049 A 
HETATM   25  C   UNL     1      44.586 -18.871   4.823  1.00  0.00     0.009 A 
HETATM   26  C   UNL     1      44.539 -18.466   6.160  1.00  0.00     0.024 A 
HETATM   27  C   UNL     1      43.390 -17.862   6.663  1.00  0.00     0.034 A 
HETATM   28 CL   UNL     1      43.338 -17.355   8.306  1.00  0.00    -0.084 Cl
HETATM   29  C   UNL     1      42.287 -17.657   5.839  1.00  0.00     0.024 A 
HETATM   30  C   UNL     1      42.331 -18.067   4.504  1.00  0.00     0.009 A 
ENDBRANCH  23  24
ENDBRANCH  20  23
ENDBRANCH   2  19
TORSDOF 6
ENDMDL
MODEL 8
REMARK VINA RESULT:      -7.8      8.173     11.388
REMARK  6 active torsions:
REMARK  status: ('A' for Active; 'I' for Inactive)
REMARK    1  A    between atoms: O_2  and  C_3 
REMARK    2  A    between atoms: C_6  and  C_7 
REMARK    3  A    between atoms: C_11  and  C_12 
REMARK       I    between atoms: C_12  and  N_13 
REMARK    4  A    between atoms: N_13  and  N_14 
REMARK       I    between atoms: N_14  and  C_15 
REMARK    5  A    between atoms: C_15  and  C_16 
REMARK    6  A    between atoms: C_16  and  C_17 
ROOT
HETATM    1  C   UNL     1      41.127 -14.837  -0.919  1.00  0.00     0.288 C 
HETATM    2  N   UNL     1      41.420 -16.121  -0.507  1.00  0.00    -0.262 N 
HETATM    3  O   UNL     1      41.745 -13.860  -0.499  1.00  0.00    -0.264 OA
HETATM    4  H   UNL     1      41.023 -16.937  -0.969  1.00  0.00     0.190 HD
ENDROOT
BRANCH   1   5
HETATM    5  C   UNL     1      40.067 -14.732  -1.884  1.00  0.00     0.121 A 
HETATM    6  N   UNL     1      39.839 -15.697  -2.825  1.00  0.00    -0.272 N 
HETATM    7  N   UNL     1      38.805 -15.438  -3.639  1.00  0.00    -0.174 NA
HETATM    8  H   UNL     1      40.364 -16.556  -2.958  1.00  0.00     0.189 HD
HETATM    9  C   UNL     1      38.309 -14.271  -3.199  1.00  0.00     0.089 A 
HETATM   10  C   UNL     1      39.087 -13.787  -2.111  1.00  0.00     0.071 A 
BRANCH   9  11
HETATM   11  C   UNL     1      37.128 -13.648  -3.805  1.00  0.00    -0.005 A 
HETATM   12  C   UNL     1      36.896 -12.273  -3.680  1.00  0.00     0.016 A 
HETATM   13  C   UNL     1      35.771 -11.686  -4.269  1.00  0.00     0.037 A 
HETATM   14  C   UNL     1      34.861 -12.457  -4.996  1.00  0.00     0.068 A 
HETATM   15  C   UNL     1      35.079 -13.828  -5.117  1.00  0.00     0.037 A 
HETATM   16  C   UNL     1      36.203 -14.419  -4.523  1.00  0.00     0.016 A 
BRANCH  14  17
HETATM   17  O   UNL     1      33.813 -11.755  -5.522  1.00  0.00    -0.356 OA
HETATM   18  C   UNL     1      32.556 -11.897  -4.873  1.00  0.00     0.210 C 
ENDBRANCH  14  17
ENDBRANCH   9  11
ENDBRANCH   1   5
BRANCH   2  19
HETATM   19  N   UNL     1      42.618 -16.352   0.187  1.00  0.00    -0.267 N 
HETATM   20  C   UNL     1      42.637 -17.434   1.045  1.00  0.00     0.240 C 
HETATM   21  O   UNL     1      41.612 -18.051   1.342  1.00  0.00    -0.272 OA
HETATM   22  H   UNL     1      43.464 -15.953  -0.219  1.00  0.00     0.190 HD
BRANCH  20  23
HETATM   23  C   UNL     1      44.001 -17.788   1.599  1.00  0.00     0.143 C 
BRANCH  23  24
HETATM   24  C   UNL     1      43.984 -18.434   2.964  1.00  0.00    -0.049 A 
HETATM   25  C   UNL     1      43.421 -17.797   4.082  1.00  0.00     0.009 A 
HETATM   26  C   UNL     1      43.377 -18.442   5.321  1.00  0.00     0.024 A 
HETATM   27  C   UNL     1      43.876 -19.735   5.449  1.00  0.00     0.034 A 
HETATM   28 CL   UNL     1      43.813 -20.531   6.972  1.00  0.00    -0.084 Cl
HETATM   29  C   UNL     1      44.418 -20.390   4.347  1.00  0.00     0.024 A 
HETATM   30  C   UNL     1      44.467 -19.744   3.109  1.00  0.00     0.009 A 
ENDBRANCH  23  24
ENDBRANCH  20  23
ENDBRANCH   2  19
TORSDOF 6
ENDMDL
MODEL 9
REMARK VINA RESULT:      -7.8      8.214     11.063
REMARK  6 active torsions:
REMARK  status: ('A' for Active; 'I' for Inactive)
REMARK    1  A    between atoms: O_2  and  C_3 
REMARK    2  A    between atoms: C_6  and  C_7 
REMARK    3  A    between atoms: C_11  and  C_12 
REMARK       I    between atoms: C_12  and  N_13 
REMARK    4  A    between atoms: N_13  and  N_14 
REMARK       I    between atoms: N_14  and  C_15 
REMARK    5  A    between atoms: C_15  and  C_16 
REMARK    6  A    between atoms: C_16  and  C_17 
ROOT
HETATM    1  C   UNL     1      41.439 -14.769  -0.396  1.00  0.00     0.288 C 
HETATM    2  N   UNL     1      40.368 -14.811  -1.265  1.00  0.00    -0.262 N 
HETATM    3  O   UNL     1      42.161 -13.778  -0.299  1.00  0.00    -0.264 OA
HETATM    4  H   UNL     1      39.679 -15.559  -1.232  1.00  0.00     0.190 HD
ENDROOT
BRANCH   1   5
HETATM    5  C   UNL     1      41.630 -15.955   0.393  1.00  0.00     0.121 A 
HETATM    6  N   UNL     1      40.663 -16.912   0.518  1.00  0.00    -0.272 N 
HETATM    7  N   UNL     1      41.015 -17.953   1.288  1.00  0.00    -0.174 NA
HETATM    8  H   UNL     1      39.739 -16.904   0.099  1.00  0.00     0.189 HD
HETATM    9  C   UNL     1      42.277 -17.690   1.661  1.00  0.00     0.089 A 
HETATM   10  C   UNL     1      42.691 -16.433   1.136  1.00  0.00     0.071 A 
BRANCH   9  11
HETATM   11  C   UNL     1      43.054 -18.614   2.491  1.00  0.00    -0.005 A 
HETATM   12  C   UNL     1      43.555 -19.811   1.962  1.00  0.00     0.016 A 
HETATM   13  C   UNL     1      44.303 -20.682   2.761  1.00  0.00     0.037 A 
HETATM   14  C   UNL     1      44.569 -20.376   4.096  1.00  0.00     0.068 A 
HETATM   15  C   UNL     1      44.067 -19.192   4.634  1.00  0.00     0.037 A 
HETATM   16  C   UNL     1      43.313 -18.320   3.837  1.00  0.00     0.016 A 
BRANCH  14  17
HETATM   17  O   UNL     1      45.316 -21.312   4.757  1.00  0.00    -0.356 OA
HETATM   18  C   UNL     1      44.819 -22.643   4.758  1.00  0.00     0.210 C 
ENDBRANCH  14  17
ENDBRANCH   9  11
ENDBRANCH   1   5
BRANCH   2  19
HETATM   19  N   UNL     1      39.922 -13.613  -1.846  1.00  0.00    -0.267 N 
HETATM   20  C   UNL     1      40.100 -13.484  -3.210  1.00  0.00     0.240 C 
HETATM   21  O   UNL     1      40.784 -14.278  -3.859  1.00  0.00    -0.272 OA
HETATM   22  H   UNL     1      39.215 -13.091  -1.329  1.00  0.00     0.190 HD
BRANCH  20  23
HETATM   23  C   UNL     1      39.408 -12.292  -3.836  1.00  0.00     0.143 C 
BRANCH  23  24
HETATM   24  C   UNL     1      40.336 -11.255  -4.424  1.00  0.00    -0.049 A 
HETATM   25  C   UNL     1      41.669 -11.125  -4.001  1.00  0.00     0.009 A 
HETATM   26  C   UNL     1      42.516 -10.188  -4.600  1.00  0.00     0.024 A 
HETATM   27  C   UNL     1      42.045  -9.389  -5.638  1.00  0.00     0.034 A 
HETATM   28 CL   UNL     1      43.093  -8.244  -6.380  1.00  0.00    -0.084 Cl
HETATM   29  C   UNL     1      40.734  -9.520  -6.084  1.00  0.00     0.024 A 
HETATM   30  C   UNL     1      39.885 -10.451  -5.483  1.00  0.00     0.009 A 
ENDBRANCH  23  24
ENDBRANCH  20  23
ENDBRANCH   2  19
TORSDOF 6
ENDMDL
MODEL 10
REMARK VINA RESULT:      -7.6      7.304      8.555
REMARK  6 active torsions:
REMARK  status: ('A' for Active; 'I' for Inactive)
REMARK    1  A    between atoms: O_2  and  C_3 
REMARK    2  A    between atoms: C_6  and  C_7 
REMARK    3  A    between atoms: C_11  and  C_12 
REMARK       I    between atoms: C_12  and  N_13 
REMARK    4  A    between atoms: N_13  and  N_14 
REMARK       I    between atoms: N_14  and  C_15 
REMARK    5  A    between atoms: C_15  and  C_16 
REMARK    6  A    between atoms: C_16  and  C_17 
ROOT
HETATM    1  C   UNL     1      41.281 -14.760   0.021  1.00  0.00     0.288 C 
HETATM    2  N   UNL     1      39.947 -15.077  -0.143  1.00  0.00    -0.262 N 
HETATM    3  O   UNL     1      41.797 -13.801  -0.550  1.00  0.00    -0.264 OA
HETATM    4  H   UNL     1      39.483 -15.765   0.447  1.00  0.00     0.190 HD
ENDROOT
BRANCH   1   5
HETATM    5  C   UNL     1      42.006 -15.618   0.917  1.00  0.00     0.121 A 
HETATM    6  N   UNL     1      42.590 -15.151   2.061  1.00  0.00    -0.272 N 
HETATM    7  N   UNL     1      43.220 -16.091   2.781  1.00  0.00    -0.174 NA
HETATM    8  H   UNL     1      42.590 -14.193   2.399  1.00  0.00     0.189 HD
HETATM    9  C   UNL     1      43.018 -17.231   2.103  1.00  0.00     0.089 A 
HETATM   10  C   UNL     1      42.278 -16.971   0.915  1.00  0.00     0.071 A 
BRANCH   9  11
HETATM   11  C   UNL     1      43.520 -18.523   2.581  1.00  0.00    -0.005 A 
HETATM   12  C   UNL     1      43.448 -19.667   1.776  1.00  0.00     0.016 A 
HETATM   13  C   UNL     1      43.938 -20.892   2.239  1.00  0.00     0.037 A 
HETATM   14  C   UNL     1      44.511 -21.000   3.507  1.00  0.00     0.068 A 
HETATM   15  C   UNL     1      44.578 -19.869   4.319  1.00  0.00     0.037 A 
HETATM   16  C   UNL     1      44.084 -18.641   3.860  1.00  0.00     0.016 A 
BRANCH  14  17
HETATM   17  O   UNL     1      44.954 -22.253   3.828  1.00  0.00    -0.356 OA
HETATM   18  C   UNL     1      45.144 -22.532   5.208  1.00  0.00     0.210 C 
ENDBRANCH  14  17
ENDBRANCH   9  11
ENDBRANCH   1   5
BRANCH   2  19
HETATM   19  N   UNL     1      39.098 -14.136  -0.746  1.00  0.00    -0.267 N 
HETATM   20  C   UNL     1      37.967 -13.779  -0.037  1.00  0.00     0.240 C 
HETATM   21  O   UNL     1      37.612 -14.386   0.976  1.00  0.00    -0.272 OA
HETATM   22  H   UNL     1      39.512 -13.540  -1.462  1.00  0.00     0.190 HD
BRANCH  20  23
HETATM   23  C   UNL     1      37.199 -12.605  -0.605  1.00  0.00     0.143 C 
BRANCH  23  24
HETATM   24  C   UNL     1      36.706 -11.612   0.421  1.00  0.00    -0.049 A 
HETATM   25  C   UNL     1      37.573 -10.997   1.338  1.00  0.00     0.009 A 
HETATM   26  C   UNL     1      37.093 -10.046   2.242  1.00  0.00     0.024 A 
HETATM   27  C   UNL     1      35.748  -9.687   2.224  1.00  0.00     0.034 A 
HETATM   28 CL   UNL     1      35.161  -8.509   3.332  1.00  0.00    -0.084 Cl
HETATM   29  C   UNL     1      34.879 -10.270   1.308  1.00  0.00     0.024 A 
HETATM   30  C   UNL     1      35.356 -11.225   0.408  1.00  0.00     0.009 A 
ENDBRANCH  23  24
ENDBRANCH  20  23
ENDBRANCH   2  19
TORSDOF 6
ENDMDL
