MODEL 1
REMARK VINA RESULT:      -9.4      0.000      0.000
REMARK  4 active torsions:
REMARK  status: ('A' for Active; 'I' for Inactive)
REMARK    1  A    between atoms: C_6  and  C_7 
REMARK       I    between atoms: C_7  and  N_8 
REMARK    2  A    between atoms: N_8  and  C_9 
REMARK    3  A    between atoms: C_10  and  C_11 
REMARK    4  A    between atoms: C_11  and  C_12 
ROOT
HETATM    1  C   UNL     1      42.321 -15.233   3.948  1.00  0.00     0.259 C 
HETATM    2  N   UNL     1      41.931 -16.362   4.639  1.00  0.00    -0.322 N 
HETATM    3  O   UNL     1      43.314 -14.556   4.193  1.00  0.00    -0.267 OA
HETATM    4  H   UNL     1      41.014 -16.733   4.430  1.00  0.00     0.169 HD
ENDROOT
BRANCH   2   5
HETATM    5  C   UNL     1      42.677 -17.056   5.619  1.00  0.00     0.041 A 
HETATM    6  C   UNL     1      43.798 -17.822   5.232  1.00  0.00    -0.027 A 
HETATM    7  C   UNL     1      44.601 -18.413   6.228  1.00  0.00     0.010 A 
HETATM    8  C   UNL     1      44.290 -18.271   7.578  1.00  0.00     0.001 A 
HETATM    9  C   UNL     1      43.167 -17.545   7.953  1.00  0.00     0.002 A 
HETATM   10  C   UNL     1      42.366 -16.943   6.980  1.00  0.00     0.030 A 
BRANCH   6  11
HETATM   11  C   UNL     1      44.137 -18.127   3.785  1.00  0.00     0.079 C 
BRANCH  11  12
HETATM   12  C   UNL     1      44.144 -19.586   3.386  1.00  0.00    -0.054 A 
HETATM   13  C   UNL     1      43.616 -19.955   2.138  1.00  0.00     0.007 A 
HETATM   14  C   UNL     1      43.652 -21.284   1.711  1.00  0.00     0.001 A 
HETATM   15  C   UNL     1      44.225 -22.259   2.522  1.00  0.00     0.000 A 
HETATM   16  C   UNL     1      44.765 -21.906   3.756  1.00  0.00     0.001 A 
HETATM   17  C   UNL     1      44.729 -20.577   4.185  1.00  0.00     0.007 A 
ENDBRANCH  11  12
ENDBRANCH   6  11
ENDBRANCH   2   5
BRANCH   1  18
HETATM   18  C   UNL     1      41.380 -14.815   2.918  1.00  0.00     0.081 A 
HETATM   19  C   UNL     1      40.318 -13.949   3.130  1.00  0.00     0.068 A 
HETATM   20  C   UNL     1      39.793 -13.269   4.335  1.00  0.00     0.078 C 
HETATM   21  O   UNL     1      39.646 -13.712   1.968  1.00  0.00    -0.295 OA
HETATM   22  C   UNL     1      40.274 -14.405   0.982  1.00  0.00     0.187 A 
HETATM   23  C   UNL     1      41.332 -15.105   1.527  1.00  0.00     0.103 A 
HETATM   24  N   UNL     1      39.897 -14.367  -0.319  1.00  0.00    -0.219 NA
HETATM   25  C   UNL     1      42.142 -15.889   0.636  1.00  0.00     0.262 A 
HETATM   26  N   UNL     1      41.755 -15.793  -0.683  1.00  0.00    -0.317 N 
HETATM   27  O   UNL     1      43.072 -16.598   0.998  1.00  0.00    -0.267 OA
HETATM   28  C   UNL     1      40.664 -15.060  -1.096  1.00  0.00     0.212 A 
HETATM   29  H   UNL     1      42.299 -16.325  -1.346  1.00  0.00     0.170 HD
ENDBRANCH   1  18
TORSDOF 4
ENDMDL
MODEL 2
REMARK VINA RESULT:      -9.4      1.933      2.975
REMARK  4 active torsions:
REMARK  status: ('A' for Active; 'I' for Inactive)
REMARK    1  A    between atoms: C_6  and  C_7 
REMARK       I    between atoms: C_7  and  N_8 
REMARK    2  A    between atoms: N_8  and  C_9 
REMARK    3  A    between atoms: C_10  and  C_11 
REMARK    4  A    between atoms: C_11  and  C_12 
ROOT
HETATM    1  C   UNL     1      41.657 -14.818   2.654  1.00  0.00     0.259 C 
HETATM    2  N   UNL     1      42.836 -15.304   3.184  1.00  0.00    -0.322 N 
HETATM    3  O   UNL     1      40.716 -14.373   3.301  1.00  0.00    -0.267 OA
HETATM    4  H   UNL     1      43.461 -15.780   2.549  1.00  0.00     0.169 HD
ENDROOT
BRANCH   2   5
HETATM    5  C   UNL     1      43.261 -15.211   4.529  1.00  0.00     0.041 A 
HETATM    6  C   UNL     1      43.205 -16.351   5.360  1.00  0.00    -0.027 A 
HETATM    7  C   UNL     1      43.740 -16.276   6.662  1.00  0.00     0.010 A 
HETATM    8  C   UNL     1      44.295 -15.092   7.143  1.00  0.00     0.001 A 
HETATM    9  C   UNL     1      44.318 -13.963   6.333  1.00  0.00     0.002 A 
HETATM   10  C   UNL     1      43.802 -14.022   5.036  1.00  0.00     0.030 A 
BRANCH   6  11
HETATM   11  C   UNL     1      42.511 -17.639   4.960  1.00  0.00     0.079 C 
BRANCH  11  12
HETATM   12  C   UNL     1      43.369 -18.686   4.286  1.00  0.00    -0.054 A 
HETATM   13  C   UNL     1      44.229 -19.472   5.070  1.00  0.00     0.007 A 
HETATM   14  C   UNL     1      44.998 -20.485   4.492  1.00  0.00     0.001 A 
HETATM   15  C   UNL     1      44.908 -20.732   3.125  1.00  0.00     0.000 A 
HETATM   16  C   UNL     1      44.049 -19.969   2.337  1.00  0.00     0.001 A 
HETATM   17  C   UNL     1      43.280 -18.956   2.913  1.00  0.00     0.007 A 
ENDBRANCH  11  12
ENDBRANCH   6  11
ENDBRANCH   2   5
BRANCH   1  18
HETATM   18  C   UNL     1      41.553 -14.966   1.209  1.00  0.00     0.081 A 
HETATM   19  C   UNL     1      41.183 -16.137   0.565  1.00  0.00     0.068 A 
HETATM   20  C   UNL     1      40.855 -17.497   1.048  1.00  0.00     0.078 C 
HETATM   21  O   UNL     1      41.131 -15.953  -0.785  1.00  0.00    -0.295 OA
HETATM   22  C   UNL     1      41.448 -14.655  -1.034  1.00  0.00     0.187 A 
HETATM   23  C   UNL     1      41.727 -14.022   0.160  1.00  0.00     0.103 A 
HETATM   24  N   UNL     1      41.455 -14.110  -2.275  1.00  0.00    -0.219 NA
HETATM   25  C   UNL     1      42.065 -12.627   0.112  1.00  0.00     0.262 A 
HETATM   26  N   UNL     1      42.021 -12.096  -1.159  1.00  0.00    -0.317 N 
HETATM   27  O   UNL     1      42.388 -11.964   1.090  1.00  0.00    -0.267 OA
HETATM   28  C   UNL     1      41.734 -12.847  -2.278  1.00  0.00     0.212 A 
HETATM   29  H   UNL     1      42.248 -11.116  -1.240  1.00  0.00     0.170 HD
ENDBRANCH   1  18
TORSDOF 4
ENDMDL
MODEL 3
REMARK VINA RESULT:      -9.1      1.555      2.526
REMARK  4 active torsions:
REMARK  status: ('A' for Active; 'I' for Inactive)
REMARK    1  A    between atoms: C_6  and  C_7 
REMARK       I    between atoms: C_7  and  N_8 
REMARK    2  A    between atoms: N_8  and  C_9 
REMARK    3  A    between atoms: C_10  and  C_11 
REMARK    4  A    between atoms: C_11  and  C_12 
ROOT
HETATM    1  C   UNL     1      41.992 -15.311   4.043  1.00  0.00     0.259 C 
HETATM    2  N   UNL     1      41.726 -16.458   4.764  1.00  0.00    -0.322 N 
HETATM    3  O   UNL     1      42.938 -14.555   4.234  1.00  0.00    -0.267 OA
HETATM    4  H   UNL     1      40.832 -16.903   4.603  1.00  0.00     0.169 HD
ENDROOT
BRANCH   2   5
HETATM    5  C   UNL     1      42.570 -17.077   5.714  1.00  0.00     0.041 A 
HETATM    6  C   UNL     1      43.734 -17.750   5.282  1.00  0.00    -0.027 A 
HETATM    7  C   UNL     1      44.627 -18.261   6.245  1.00  0.00     0.010 A 
HETATM    8  C   UNL     1      44.364 -18.134   7.607  1.00  0.00     0.001 A 
HETATM    9  C   UNL     1      43.201 -17.502   8.027  1.00  0.00     0.002 A 
HETATM   10  C   UNL     1      42.310 -16.979   7.087  1.00  0.00     0.030 A 
BRANCH   6  11
HETATM   11  C   UNL     1      44.035 -18.037   3.823  1.00  0.00     0.079 C 
BRANCH  11  12
HETATM   12  C   UNL     1      44.086 -19.494   3.419  1.00  0.00    -0.054 A 
HETATM   13  C   UNL     1      43.606 -19.869   2.154  1.00  0.00     0.007 A 
HETATM   14  C   UNL     1      43.683 -21.195   1.723  1.00  0.00     0.001 A 
HETATM   15  C   UNL     1      44.252 -22.161   2.548  1.00  0.00     0.000 A 
HETATM   16  C   UNL     1      44.744 -21.802   3.800  1.00  0.00     0.001 A 
HETATM   17  C   UNL     1      44.667 -20.476   4.232  1.00  0.00     0.007 A 
ENDBRANCH  11  12
ENDBRANCH   6  11
ENDBRANCH   2   5
BRANCH   1  18
HETATM   18  C   UNL     1      40.974 -14.983   3.056  1.00  0.00     0.081 A 
HETATM   19  C   UNL     1      40.590 -15.819   2.018  1.00  0.00     0.068 A 
HETATM   20  C   UNL     1      41.055 -17.149   1.566  1.00  0.00     0.078 C 
HETATM   21  O   UNL     1      39.584 -15.257   1.289  1.00  0.00    -0.295 OA
HETATM   22  C   UNL     1      39.288 -14.057   1.856  1.00  0.00     0.187 A 
HETATM   23  C   UNL     1      40.128 -13.847   2.931  1.00  0.00     0.103 A 
HETATM   24  N   UNL     1      38.302 -13.241   1.411  1.00  0.00    -0.219 NA
HETATM   25  C   UNL     1      39.957 -12.636   3.683  1.00  0.00     0.262 A 
HETATM   26  N   UNL     1      38.920 -11.851   3.229  1.00  0.00    -0.317 N 
HETATM   27  O   UNL     1      40.671 -12.304   4.621  1.00  0.00    -0.267 OA
HETATM   28  C   UNL     1      38.158 -12.174   2.128  1.00  0.00     0.212 A 
HETATM   29  H   UNL     1      38.761 -10.989   3.731  1.00  0.00     0.170 HD
ENDBRANCH   1  18
TORSDOF 4
ENDMDL
MODEL 4
REMARK VINA RESULT:      -8.9      2.129      3.149
REMARK  4 active torsions:
REMARK  status: ('A' for Active; 'I' for Inactive)
REMARK    1  A    between atoms: C_6  and  C_7 
REMARK       I    between atoms: C_7  and  N_8 
REMARK    2  A    between atoms: N_8  and  C_9 
REMARK    3  A    between atoms: C_10  and  C_11 
REMARK    4  A    between atoms: C_11  and  C_12 
ROOT
HETATM    1  C   UNL     1      41.004 -15.399   1.662  1.00  0.00     0.259 C 
HETATM    2  N   UNL     1      41.992 -15.501   2.621  1.00  0.00    -0.322 N 
HETATM    3  O   UNL     1      39.964 -16.049   1.642  1.00  0.00    -0.267 OA
HETATM    4  H   UNL     1      42.862 -15.020   2.434  1.00  0.00     0.169 HD
ENDROOT
BRANCH   2   5
HETATM    5  C   UNL     1      41.922 -16.215   3.839  1.00  0.00     0.041 A 
HETATM    6  C   UNL     1      42.864 -17.231   4.109  1.00  0.00    -0.027 A 
HETATM    7  C   UNL     1      42.855 -17.854   5.373  1.00  0.00     0.010 A 
HETATM    8  C   UNL     1      41.919 -17.500   6.342  1.00  0.00     0.001 A 
HETATM    9  C   UNL     1      40.973 -16.523   6.060  1.00  0.00     0.002 A 
HETATM   10  C   UNL     1      40.973 -15.886   4.816  1.00  0.00     0.030 A 
BRANCH   6  11
HETATM   11  C   UNL     1      43.836 -17.761   3.072  1.00  0.00     0.079 C 
BRANCH  11  12
HETATM   12  C   UNL     1      43.980 -19.264   2.989  1.00  0.00    -0.054 A 
HETATM   13  C   UNL     1      43.434 -19.943   1.887  1.00  0.00     0.007 A 
HETATM   14  C   UNL     1      43.592 -21.323   1.747  1.00  0.00     0.001 A 
HETATM   15  C   UNL     1      44.307 -22.041   2.701  1.00  0.00     0.000 A 
HETATM   16  C   UNL     1      44.865 -21.380   3.792  1.00  0.00     0.001 A 
HETATM   17  C   UNL     1      44.708 -20.000   3.934  1.00  0.00     0.007 A 
ENDBRANCH  11  12
ENDBRANCH   6  11
ENDBRANCH   2   5
BRANCH   1  18
HETATM   18  C   UNL     1      41.332 -14.498   0.567  1.00  0.00     0.081 A 
HETATM   19  C   UNL     1      41.298 -14.849  -0.774  1.00  0.00     0.068 A 
HETATM   20  C   UNL     1      41.008 -16.115  -1.481  1.00  0.00     0.078 C 
HETATM   21  O   UNL     1      41.610 -13.781  -1.563  1.00  0.00    -0.295 OA
HETATM   22  C   UNL     1      41.830 -12.718  -0.744  1.00  0.00     0.187 A 
HETATM   23  C   UNL     1      41.684 -13.120   0.568  1.00  0.00     0.103 A 
HETATM   24  N   UNL     1      42.124 -11.474  -1.195  1.00  0.00    -0.219 NA
HETATM   25  C   UNL     1      41.856 -12.129   1.592  1.00  0.00     0.262 A 
HETATM   26  N   UNL     1      42.112 -10.868   1.097  1.00  0.00    -0.317 N 
HETATM   27  O   UNL     1      41.809 -12.366   2.792  1.00  0.00    -0.267 OA
HETATM   28  C   UNL     1      42.244 -10.601  -0.248  1.00  0.00     0.212 A 
HETATM   29  H   UNL     1      42.237 -10.138   1.783  1.00  0.00     0.170 HD
ENDBRANCH   1  18
TORSDOF 4
ENDMDL
MODEL 5
REMARK VINA RESULT:      -8.9      1.545      2.173
REMARK  4 active torsions:
REMARK  status: ('A' for Active; 'I' for Inactive)
REMARK    1  A    between atoms: C_6  and  C_7 
REMARK       I    between atoms: C_7  and  N_8 
REMARK    2  A    between atoms: N_8  and  C_9 
REMARK    3  A    between atoms: C_10  and  C_11 
REMARK    4  A    between atoms: C_11  and  C_12 
ROOT
HETATM    1  C   UNL     1      40.686 -14.525   3.419  1.00  0.00     0.259 C 
HETATM    2  N   UNL     1      42.051 -14.721   3.484  1.00  0.00    -0.322 N 
HETATM    3  O   UNL     1      39.895 -14.724   4.334  1.00  0.00    -0.267 OA
HETATM    4  H   UNL     1      42.563 -14.665   2.614  1.00  0.00     0.169 HD
ENDROOT
BRANCH   2   5
HETATM    5  C   UNL     1      42.813 -14.999   4.642  1.00  0.00     0.041 A 
HETATM    6  C   UNL     1      43.010 -16.338   5.043  1.00  0.00    -0.027 A 
HETATM    7  C   UNL     1      43.867 -16.607   6.130  1.00  0.00     0.010 A 
HETATM    8  C   UNL     1      44.495 -15.574   6.822  1.00  0.00     0.001 A 
HETATM    9  C   UNL     1      44.271 -14.256   6.444  1.00  0.00     0.002 A 
HETATM   10  C   UNL     1      43.434 -13.971   5.363  1.00  0.00     0.030 A 
BRANCH   6  11
HETATM   11  C   UNL     1      42.272 -17.509   4.424  1.00  0.00     0.079 C 
BRANCH  11  12
HETATM   12  C   UNL     1      43.126 -18.626   3.867  1.00  0.00    -0.054 A 
HETATM   13  C   UNL     1      44.009 -19.304   4.725  1.00  0.00     0.007 A 
HETATM   14  C   UNL     1      44.776 -20.375   4.261  1.00  0.00     0.001 A 
HETATM   15  C   UNL     1      44.662 -20.789   2.937  1.00  0.00     0.000 A 
HETATM   16  C   UNL     1      43.782 -20.135   2.079  1.00  0.00     0.001 A 
HETATM   17  C   UNL     1      43.014 -19.064   2.541  1.00  0.00     0.007 A 
ENDBRANCH  11  12
ENDBRANCH   6  11
ENDBRANCH   2   5
BRANCH   1  18
HETATM   18  C   UNL     1      40.205 -14.141   2.099  1.00  0.00     0.081 A 
HETATM   19  C   UNL     1      39.392 -13.047   1.848  1.00  0.00     0.068 A 
HETATM   20  C   UNL     1      38.757 -12.037   2.723  1.00  0.00     0.078 C 
HETATM   21  O   UNL     1      39.148 -12.919   0.513  1.00  0.00    -0.295 OA
HETATM   22  C   UNL     1      39.817 -13.918  -0.123  1.00  0.00     0.187 A 
HETATM   23  C   UNL     1      40.463 -14.697   0.816  1.00  0.00     0.103 A 
HETATM   24  N   UNL     1      39.831 -14.072  -1.469  1.00  0.00    -0.219 NA
HETATM   25  C   UNL     1      41.249 -15.800   0.339  1.00  0.00     0.262 A 
HETATM   26  N   UNL     1      41.276 -15.900  -1.035  1.00  0.00    -0.317 N 
HETATM   27  O   UNL     1      41.826 -16.598   1.068  1.00  0.00    -0.267 OA
HETATM   28  C   UNL     1      40.571 -15.056  -1.865  1.00  0.00     0.212 A 
HETATM   29  H   UNL     1      41.820 -16.661  -1.415  1.00  0.00     0.170 HD
ENDBRANCH   1  18
TORSDOF 4
ENDMDL
MODEL 6
REMARK VINA RESULT:      -8.8      1.916      2.590
REMARK  4 active torsions:
REMARK  status: ('A' for Active; 'I' for Inactive)
REMARK    1  A    between atoms: C_6  and  C_7 
REMARK       I    between atoms: C_7  and  N_8 
REMARK    2  A    between atoms: N_8  and  C_9 
REMARK    3  A    between atoms: C_10  and  C_11 
REMARK    4  A    between atoms: C_11  and  C_12 
ROOT
HETATM    1  C   UNL     1      42.103 -13.897   1.954  1.00  0.00     0.259 C 
HETATM    2  N   UNL     1      41.311 -14.890   2.495  1.00  0.00    -0.322 N 
HETATM    3  O   UNL     1      42.945 -13.248   2.565  1.00  0.00    -0.267 OA
HETATM    4  H   UNL     1      40.554 -15.236   1.919  1.00  0.00     0.169 HD
ENDROOT
BRANCH   2   5
HETATM    5  C   UNL     1      41.439 -15.475   3.775  1.00  0.00     0.041 A 
HETATM    6  C   UNL     1      42.528 -16.332   4.046  1.00  0.00    -0.027 A 
HETATM    7  C   UNL     1      42.710 -16.814   5.358  1.00  0.00     0.010 A 
HETATM    8  C   UNL     1      41.820 -16.478   6.376  1.00  0.00     0.001 A 
HETATM    9  C   UNL     1      40.731 -15.662   6.097  1.00  0.00     0.002 A 
HETATM   10  C   UNL     1      40.541 -15.165   4.805  1.00  0.00     0.030 A 
BRANCH   6  11
HETATM   11  C   UNL     1      43.471 -16.843   2.974  1.00  0.00     0.079 C 
BRANCH  11  12
HETATM   12  C   UNL     1      43.743 -18.331   2.968  1.00  0.00    -0.054 A 
HETATM   13  C   UNL     1      43.228 -19.115   1.923  1.00  0.00     0.007 A 
HETATM   14  C   UNL     1      43.501 -20.483   1.854  1.00  0.00     0.001 A 
HETATM   15  C   UNL     1      44.301 -21.082   2.822  1.00  0.00     0.000 A 
HETATM   16  C   UNL     1      44.830 -20.314   3.857  1.00  0.00     0.001 A 
HETATM   17  C   UNL     1      44.557 -18.947   3.928  1.00  0.00     0.007 A 
ENDBRANCH  11  12
ENDBRANCH   6  11
ENDBRANCH   2   5
BRANCH   1  18
HETATM   18  C   UNL     1      41.793 -13.582   0.567  1.00  0.00     0.081 A 
HETATM   19  C   UNL     1      41.820 -12.305   0.028  1.00  0.00     0.068 A 
HETATM   20  C   UNL     1      42.084 -10.968   0.606  1.00  0.00     0.078 C 
HETATM   21  O   UNL     1      41.530 -12.333  -1.303  1.00  0.00    -0.295 OA
HETATM   22  C   UNL     1      41.330 -13.633  -1.651  1.00  0.00     0.187 A 
HETATM   23  C   UNL     1      41.468 -14.426  -0.530  1.00  0.00     0.103 A 
HETATM   24  N   UNL     1      41.061 -14.037  -2.917  1.00  0.00    -0.219 NA
HETATM   25  C   UNL     1      41.316 -15.844  -0.695  1.00  0.00     0.262 A 
HETATM   26  N   UNL     1      41.085 -16.223  -2.000  1.00  0.00    -0.317 N 
HETATM   27  O   UNL     1      41.358 -16.651   0.226  1.00  0.00    -0.267 OA
HETATM   28  C   UNL     1      40.959 -15.321  -3.034  1.00  0.00     0.212 A 
HETATM   29  H   UNL     1      40.975 -17.213  -2.163  1.00  0.00     0.170 HD
ENDBRANCH   1  18
TORSDOF 4
ENDMDL
MODEL 7
REMARK VINA RESULT:      -8.7      2.521      7.159
REMARK  4 active torsions:
REMARK  status: ('A' for Active; 'I' for Inactive)
REMARK    1  A    between atoms: C_6  and  C_7 
REMARK       I    between atoms: C_7  and  N_8 
REMARK    2  A    between atoms: N_8  and  C_9 
REMARK    3  A    between atoms: C_10  and  C_11 
REMARK    4  A    between atoms: C_11  and  C_12 
ROOT
HETATM    1  C   UNL     1      43.564 -17.461   2.943  1.00  0.00     0.259 C 
HETATM    2  N   UNL     1      42.278 -17.638   2.473  1.00  0.00    -0.322 N 
HETATM    3  O   UNL     1      44.332 -16.571   2.594  1.00  0.00    -0.267 OA
HETATM    4  H   UNL     1      41.811 -18.498   2.729  1.00  0.00     0.169 HD
ENDROOT
BRANCH   2   5
HETATM    5  C   UNL     1      41.541 -16.745   1.662  1.00  0.00     0.041 A 
HETATM    6  C   UNL     1      40.659 -15.821   2.263  1.00  0.00    -0.027 A 
HETATM    7  C   UNL     1      40.020 -14.859   1.454  1.00  0.00     0.010 A 
HETATM    8  C   UNL     1      40.227 -14.827   0.077  1.00  0.00     0.001 A 
HETATM    9  C   UNL     1      41.070 -15.760  -0.514  1.00  0.00     0.002 A 
HETATM   10  C   UNL     1      41.721 -16.713   0.273  1.00  0.00     0.030 A 
BRANCH   6  11
HETATM   11  C   UNL     1      40.284 -15.863   3.732  1.00  0.00     0.079 C 
BRANCH  11  12
HETATM   12  C   UNL     1      40.744 -14.698   4.579  1.00  0.00    -0.054 A 
HETATM   13  C   UNL     1      42.111 -14.376   4.613  1.00  0.00     0.007 A 
HETATM   14  C   UNL     1      42.570 -13.277   5.341  1.00  0.00     0.001 A 
HETATM   15  C   UNL     1      41.666 -12.478   6.035  1.00  0.00     0.000 A 
HETATM   16  C   UNL     1      40.306 -12.777   6.001  1.00  0.00     0.001 A 
HETATM   17  C   UNL     1      39.846 -13.876   5.274  1.00  0.00     0.007 A 
ENDBRANCH  11  12
ENDBRANCH   6  11
ENDBRANCH   2   5
BRANCH   1  18
HETATM   18  C   UNL     1      44.011 -18.507   3.852  1.00  0.00     0.081 A 
HETATM   19  C   UNL     1      44.258 -18.318   5.203  1.00  0.00     0.068 A 
HETATM   20  C   UNL     1      44.216 -17.129   6.083  1.00  0.00     0.078 C 
HETATM   21  O   UNL     1      44.618 -19.490   5.799  1.00  0.00    -0.295 OA
HETATM   22  C   UNL     1      44.590 -20.460   4.846  1.00  0.00     0.187 A 
HETATM   23  C   UNL     1      44.238 -19.894   3.637  1.00  0.00     0.103 A 
HETATM   24  N   UNL     1      44.855 -21.765   5.096  1.00  0.00    -0.219 NA
HETATM   25  C   UNL     1      44.130 -20.764   2.500  1.00  0.00     0.262 A 
HETATM   26  N   UNL     1      44.365 -22.089   2.800  1.00  0.00    -0.317 N 
HETATM   27  O   UNL     1      43.881 -20.382   1.364  1.00  0.00    -0.267 OA
HETATM   28  C   UNL     1      44.721 -22.524   4.057  1.00  0.00     0.212 A 
HETATM   29  H   UNL     1      44.296 -22.738   2.030  1.00  0.00     0.170 HD
ENDBRANCH   1  18
TORSDOF 4
ENDMDL
MODEL 8
REMARK VINA RESULT:      -8.7      1.756      4.183
REMARK  4 active torsions:
REMARK  status: ('A' for Active; 'I' for Inactive)
REMARK    1  A    between atoms: C_6  and  C_7 
REMARK       I    between atoms: C_7  and  N_8 
REMARK    2  A    between atoms: N_8  and  C_9 
REMARK    3  A    between atoms: C_10  and  C_11 
REMARK    4  A    between atoms: C_11  and  C_12 
ROOT
HETATM    1  C   UNL     1      41.771 -15.821   1.727  1.00  0.00     0.259 C 
HETATM    2  N   UNL     1      41.560 -17.013   2.392  1.00  0.00    -0.322 N 
HETATM    3  O   UNL     1      42.866 -15.329   1.482  1.00  0.00    -0.267 OA
HETATM    4  H   UNL     1      40.609 -17.225   2.661  1.00  0.00     0.169 HD
ENDROOT
BRANCH   2   5
HETATM    5  C   UNL     1      42.537 -17.972   2.743  1.00  0.00     0.041 A 
HETATM    6  C   UNL     1      42.787 -18.249   4.105  1.00  0.00    -0.027 A 
HETATM    7  C   UNL     1      43.678 -19.288   4.440  1.00  0.00     0.010 A 
HETATM    8  C   UNL     1      44.330 -20.022   3.451  1.00  0.00     0.001 A 
HETATM    9  C   UNL     1      44.107 -19.723   2.113  1.00  0.00     0.002 A 
HETATM   10  C   UNL     1      43.218 -18.704   1.762  1.00  0.00     0.030 A 
BRANCH   6  11
HETATM   11  C   UNL     1      42.214 -17.422   5.240  1.00  0.00     0.079 C 
BRANCH  11  12
HETATM   12  C   UNL     1      43.059 -16.264   5.724  1.00  0.00    -0.054 A 
HETATM   13  C   UNL     1      43.221 -15.144   4.892  1.00  0.00     0.007 A 
HETATM   14  C   UNL     1      43.949 -14.033   5.323  1.00  0.00     0.001 A 
HETATM   15  C   UNL     1      44.514 -14.023   6.595  1.00  0.00     0.000 A 
HETATM   16  C   UNL     1      44.351 -15.121   7.436  1.00  0.00     0.001 A 
HETATM   17  C   UNL     1      43.623 -16.233   7.006  1.00  0.00     0.007 A 
ENDBRANCH  11  12
ENDBRANCH   6  11
ENDBRANCH   2   5
BRANCH   1  18
HETATM   18  C   UNL     1      40.548 -15.099   1.406  1.00  0.00     0.081 A 
HETATM   19  C   UNL     1      39.732 -14.484   2.343  1.00  0.00     0.068 A 
HETATM   20  C   UNL     1      39.773 -14.398   3.820  1.00  0.00     0.078 C 
HETATM   21  O   UNL     1      38.689 -13.849   1.736  1.00  0.00    -0.295 OA
HETATM   22  C   UNL     1      38.826 -14.027   0.395  1.00  0.00     0.187 A 
HETATM   23  C   UNL     1      39.944 -14.799   0.154  1.00  0.00     0.103 A 
HETATM   24  N   UNL     1      37.982 -13.493  -0.522  1.00  0.00    -0.219 NA
HETATM   25  C   UNL     1      40.275 -15.083  -1.213  1.00  0.00     0.262 A 
HETATM   26  N   UNL     1      39.422 -14.490  -2.119  1.00  0.00    -0.317 N 
HETATM   27  O   UNL     1      41.206 -15.800  -1.560  1.00  0.00    -0.267 OA
HETATM   28  C   UNL     1      38.327 -13.744  -1.743  1.00  0.00     0.212 A 
HETATM   29  H   UNL     1      39.620 -14.661  -3.094  1.00  0.00     0.170 HD
ENDBRANCH   1  18
TORSDOF 4
ENDMDL
MODEL 9
REMARK VINA RESULT:      -8.7      1.906      3.100
REMARK  4 active torsions:
REMARK  status: ('A' for Active; 'I' for Inactive)
REMARK    1  A    between atoms: C_6  and  C_7 
REMARK       I    between atoms: C_7  and  N_8 
REMARK    2  A    between atoms: N_8  and  C_9 
REMARK    3  A    between atoms: C_10  and  C_11 
REMARK    4  A    between atoms: C_11  and  C_12 
ROOT
HETATM    1  C   UNL     1      42.102 -14.106   2.737  1.00  0.00     0.259 C 
HETATM    2  N   UNL     1      41.826 -14.765   3.918  1.00  0.00    -0.322 N 
HETATM    3  O   UNL     1      43.095 -13.421   2.520  1.00  0.00    -0.267 OA
HETATM    4  H   UNL     1      40.902 -15.166   4.013  1.00  0.00     0.169 HD
ENDROOT
BRANCH   2   5
HETATM    5  C   UNL     1      42.698 -14.935   5.017  1.00  0.00     0.041 A 
HETATM    6  C   UNL     1      42.971 -16.234   5.498  1.00  0.00    -0.027 A 
HETATM    7  C   UNL     1      43.931 -16.399   6.517  1.00  0.00     0.010 A 
HETATM    8  C   UNL     1      44.588 -15.301   7.069  1.00  0.00     0.001 A 
HETATM    9  C   UNL     1      44.291 -14.022   6.616  1.00  0.00     0.002 A 
HETATM   10  C   UNL     1      43.351 -13.841   5.599  1.00  0.00     0.030 A 
BRANCH   6  11
HETATM   11  C   UNL     1      42.216 -17.467   5.040  1.00  0.00     0.079 C 
BRANCH  11  12
HETATM   12  C   UNL     1      42.996 -18.469   4.218  1.00  0.00    -0.054 A 
HETATM   13  C   UNL     1      42.826 -18.488   2.824  1.00  0.00     0.007 A 
HETATM   14  C   UNL     1      43.567 -19.362   2.025  1.00  0.00     0.001 A 
HETATM   15  C   UNL     1      44.494 -20.220   2.609  1.00  0.00     0.000 A 
HETATM   16  C   UNL     1      44.682 -20.204   3.989  1.00  0.00     0.001 A 
HETATM   17  C   UNL     1      43.942 -19.331   4.789  1.00  0.00     0.007 A 
ENDBRANCH  11  12
ENDBRANCH   6  11
ENDBRANCH   2   5
BRANCH   1  18
HETATM   18  C   UNL     1      41.039 -14.198   1.746  1.00  0.00     0.081 A 
HETATM   19  C   UNL     1      41.006 -15.125   0.715  1.00  0.00     0.068 A 
HETATM   20  C   UNL     1      41.943 -16.182   0.275  1.00  0.00     0.078 C 
HETATM   21  O   UNL     1      39.866 -14.993  -0.020  1.00  0.00    -0.295 OA
HETATM   22  C   UNL     1      39.133 -13.991   0.536  1.00  0.00     0.187 A 
HETATM   23  C   UNL     1      39.826 -13.469   1.610  1.00  0.00     0.103 A 
HETATM   24  N   UNL     1      37.913 -13.614   0.083  1.00  0.00    -0.219 NA
HETATM   25  C   UNL     1      39.205 -12.407   2.350  1.00  0.00     0.262 A 
HETATM   26  N   UNL     1      37.949 -12.079   1.889  1.00  0.00    -0.317 N 
HETATM   27  O   UNL     1      39.735 -11.821   3.286  1.00  0.00    -0.267 OA
HETATM   28  C   UNL     1      37.371 -12.676   0.790  1.00  0.00     0.212 A 
HETATM   29  H   UNL     1      37.473 -11.338   2.383  1.00  0.00     0.170 HD
ENDBRANCH   1  18
TORSDOF 4
ENDMDL
MODEL 10
REMARK VINA RESULT:      -8.6      2.322      6.761
REMARK  4 active torsions:
REMARK  status: ('A' for Active; 'I' for Inactive)
REMARK    1  A    between atoms: C_6  and  C_7 
REMARK       I    between atoms: C_7  and  N_8 
REMARK    2  A    between atoms: N_8  and  C_9 
REMARK    3  A    between atoms: C_10  and  C_11 
REMARK    4  A    between atoms: C_11  and  C_12 
ROOT
HETATM    1  C   UNL     1      43.007 -15.835   3.853  1.00  0.00     0.259 C 
HETATM    2  N   UNL     1      41.823 -15.366   4.387  1.00  0.00    -0.322 N 
HETATM    3  O   UNL     1      43.723 -15.225   3.066  1.00  0.00    -0.267 OA
HETATM    4  H   UNL     1      41.258 -16.029   4.900  1.00  0.00     0.169 HD
ENDROOT
BRANCH   2   5
HETATM    5  C   UNL     1      41.310 -14.052   4.287  1.00  0.00     0.041 A 
HETATM    6  C   UNL     1      40.140 -13.815   3.534  1.00  0.00    -0.027 A 
HETATM    7  C   UNL     1      39.574 -12.524   3.538  1.00  0.00     0.010 A 
HETATM    8  C   UNL     1      40.165 -11.483   4.250  1.00  0.00     0.001 A 
HETATM    9  C   UNL     1      41.335 -11.713   4.963  1.00  0.00     0.002 A 
HETATM   10  C   UNL     1      41.904 -12.989   4.979  1.00  0.00     0.030 A 
BRANCH   6  11
HETATM   11  C   UNL     1      39.502 -14.858   2.636  1.00  0.00     0.079 C 
BRANCH  11  12
HETATM   12  C   UNL     1      40.051 -14.965   1.231  1.00  0.00    -0.054 A 
HETATM   13  C   UNL     1      40.954 -15.997   0.927  1.00  0.00     0.007 A 
HETATM   14  C   UNL     1      41.443 -16.162  -0.370  1.00  0.00     0.001 A 
HETATM   15  C   UNL     1      41.026 -15.303  -1.384  1.00  0.00     0.000 A 
HETATM   16  C   UNL     1      40.121 -14.283  -1.101  1.00  0.00     0.001 A 
HETATM   17  C   UNL     1      39.632 -14.117   0.197  1.00  0.00     0.007 A 
ENDBRANCH  11  12
ENDBRANCH   6  11
ENDBRANCH   2   5
BRANCH   1  18
HETATM   18  C   UNL     1      43.320 -17.207   4.223  1.00  0.00     0.081 A 
HETATM   19  C   UNL     1      43.724 -18.188   3.329  1.00  0.00     0.068 A 
HETATM   20  C   UNL     1      43.907 -18.205   1.861  1.00  0.00     0.078 C 
HETATM   21  O   UNL     1      43.989 -19.357   3.978  1.00  0.00    -0.295 OA
HETATM   22  C   UNL     1      43.779 -19.146   5.305  1.00  0.00     0.187 A 
HETATM   23  C   UNL     1      43.354 -17.846   5.493  1.00  0.00     0.103 A 
HETATM   24  N   UNL     1      43.987 -20.088   6.257  1.00  0.00    -0.219 NA
HETATM   25  C   UNL     1      43.098 -17.417   6.839  1.00  0.00     0.262 A 
HETATM   26  N   UNL     1      43.360 -18.386   7.783  1.00  0.00    -0.317 N 
HETATM   27  O   UNL     1      42.664 -16.311   7.136  1.00  0.00    -0.267 OA
HETATM   28  C   UNL     1      43.775 -19.659   7.458  1.00  0.00     0.212 A 
HETATM   29  H   UNL     1      43.197 -18.126   8.744  1.00  0.00     0.170 HD
ENDBRANCH   1  18
TORSDOF 4
ENDMDL
