MODEL 1
REMARK VINA RESULT:      -8.9      0.000      0.000
REMARK  5 active torsions:
REMARK  status: ('A' for Active; 'I' for Inactive)
REMARK    1  A    between atoms: C_2  and  N_3 
REMARK    2  A    between atoms: C_2  and  C_14 
REMARK       I    between atoms: N_3  and  C_4 
REMARK       I    between atoms: C_4  and  N_5 
REMARK    3  A    between atoms: N_5  and  C_6 
REMARK    4  A    between atoms: C_6  and  C_7 
REMARK    5  A    between atoms: C_16  and  C_17 
ROOT
HETATM    1  C   UNL     1      42.874 -13.316   5.022  1.00  0.00     0.041 C 
HETATM    2  C   UNL     1      43.888 -13.996   5.934  1.00  0.00     0.153 C 
ENDROOT
BRANCH   2   3
HETATM    3  N   UNL     1      43.614 -13.650   7.325  1.00  0.00    -0.332 N 
HETATM    4  C   UNL     1      44.570 -13.075   8.120  1.00  0.00     0.317 C 
HETATM    5  N   UNL     1      44.120 -12.855   9.388  1.00  0.00    -0.339 N 
HETATM    6  O   UNL     1      45.702 -12.826   7.725  1.00  0.00    -0.247 OA
HETATM    7  H   UNL     1      43.123 -12.828   9.531  1.00  0.00     0.164 HD
HETATM    8  H   UNL     1      42.898 -14.182   7.796  1.00  0.00     0.165 HD
BRANCH   5   9
HETATM    9  C   UNL     1      44.940 -12.208  10.389  1.00  0.00     0.162 C 
BRANCH   9  10
HETATM   10  C   UNL     1      44.106 -11.337  11.295  1.00  0.00    -0.040 A 
HETATM   11  C   UNL     1      44.050  -9.949  11.105  1.00  0.00     0.009 A 
HETATM   12  C   UNL     1      43.276  -9.149  11.947  1.00  0.00     0.001 A 
HETATM   13  C   UNL     1      42.554  -9.726  12.991  1.00  0.00     0.000 A 
HETATM   14  C   UNL     1      42.608 -11.104  13.194  1.00  0.00     0.001 A 
HETATM   15  C   UNL     1      43.380 -11.906  12.353  1.00  0.00     0.009 A 
ENDBRANCH   9  10
ENDBRANCH   5   9
ENDBRANCH   2   3
BRANCH   2  16
HETATM   16  C   UNL     1      43.882 -15.483   5.758  1.00  0.00     0.145 A 
HETATM   17  N   UNL     1      43.817 -16.197   4.652  1.00  0.00    -0.210 NA
HETATM   18  C   UNL     1      43.960 -17.499   5.085  1.00  0.00     0.181 A 
HETATM   19  N   UNL     1      44.077 -17.616   6.417  1.00  0.00    -0.152 NA
HETATM   20  N   UNL     1      44.025 -16.336   6.817  1.00  0.00    -0.261 N 
HETATM   21  H   UNL     1      44.075 -16.098   7.806  1.00  0.00     0.190 HD
BRANCH  18  22
HETATM   22  C   UNL     1      44.006 -18.631   4.160  1.00  0.00     0.014 A 
HETATM   23  C   UNL     1      44.645 -19.824   4.531  1.00  0.00     0.017 A 
HETATM   24  C   UNL     1      44.681 -20.915   3.657  1.00  0.00     0.025 A 
HETATM   25  C   UNL     1      44.074 -20.822   2.406  1.00  0.00     0.034 A 
HETATM   26 CL   UNL     1      44.117 -22.165   1.331  1.00  0.00    -0.084 Cl
HETATM   27  C   UNL     1      43.434 -19.647   2.021  1.00  0.00     0.025 A 
HETATM   28  C   UNL     1      43.401 -18.555   2.895  1.00  0.00     0.017 A 
ENDBRANCH  18  22
ENDBRANCH   2  16
TORSDOF 5
ENDMDL
MODEL 2
REMARK VINA RESULT:      -8.6      4.238     10.451
REMARK  5 active torsions:
REMARK  status: ('A' for Active; 'I' for Inactive)
REMARK    1  A    between atoms: C_2  and  N_3 
REMARK    2  A    between atoms: C_2  and  C_14 
REMARK       I    between atoms: N_3  and  C_4 
REMARK       I    between atoms: C_4  and  N_5 
REMARK    3  A    between atoms: N_5  and  C_6 
REMARK    4  A    between atoms: C_6  and  C_7 
REMARK    5  A    between atoms: C_16  and  C_17 
ROOT
HETATM    1  C   UNL     1      46.192 -12.553   8.445  1.00  0.00     0.041 C 
HETATM    2  C   UNL     1      44.747 -12.561   7.957  1.00  0.00     0.153 C 
ENDROOT
BRANCH   2   3
HETATM    3  N   UNL     1      44.325 -13.930   7.679  1.00  0.00    -0.332 N 
HETATM    4  C   UNL     1      43.687 -14.257   6.512  1.00  0.00     0.317 C 
HETATM    5  N   UNL     1      43.356 -15.578   6.460  1.00  0.00    -0.339 N 
HETATM    6  O   UNL     1      43.425 -13.434   5.643  1.00  0.00    -0.247 OA
HETATM    7  H   UNL     1      43.852 -16.208   7.072  1.00  0.00     0.164 HD
HETATM    8  H   UNL     1      44.139 -14.521   8.475  1.00  0.00     0.165 HD
BRANCH   5   9
HETATM    9  C   UNL     1      42.722 -16.164   5.299  1.00  0.00     0.162 C 
BRANCH   9  10
HETATM   10  C   UNL     1      43.378 -17.467   4.919  1.00  0.00    -0.040 A 
HETATM   11  C   UNL     1      44.318 -18.071   5.766  1.00  0.00     0.009 A 
HETATM   12  C   UNL     1      44.923 -19.278   5.408  1.00  0.00     0.001 A 
HETATM   13  C   UNL     1      44.598 -19.890   4.198  1.00  0.00     0.000 A 
HETATM   14  C   UNL     1      43.670 -19.295   3.345  1.00  0.00     0.001 A 
HETATM   15  C   UNL     1      43.064 -18.089   3.701  1.00  0.00     0.009 A 
ENDBRANCH   9  10
ENDBRANCH   5   9
ENDBRANCH   2   3
BRANCH   2  16
HETATM   16  C   UNL     1      43.825 -11.924   8.950  1.00  0.00     0.145 A 
HETATM   17  N   UNL     1      43.954 -11.799  10.256  1.00  0.00    -0.210 NA
HETATM   18  C   UNL     1      42.866 -11.037  10.629  1.00  0.00     0.181 A 
HETATM   19  N   UNL     1      42.055 -10.717   9.608  1.00  0.00    -0.152 NA
HETATM   20  N   UNL     1      42.679 -11.286   8.564  1.00  0.00    -0.261 N 
HETATM   21  H   UNL     1      42.284 -11.226   7.627  1.00  0.00     0.190 HD
BRANCH  18  22
HETATM   22  C   UNL     1      42.648 -10.604  12.008  1.00  0.00     0.014 A 
HETATM   23  C   UNL     1      43.562  -9.742  12.634  1.00  0.00     0.017 A 
HETATM   24  C   UNL     1      43.354  -9.314  13.949  1.00  0.00     0.025 A 
HETATM   25  C   UNL     1      42.227  -9.743  14.648  1.00  0.00     0.034 A 
HETATM   26 CL   UNL     1      41.970  -9.214  16.265  1.00  0.00    -0.084 Cl
HETATM   27  C   UNL     1      41.308 -10.597  14.043  1.00  0.00     0.025 A 
HETATM   28  C   UNL     1      41.519 -11.027  12.728  1.00  0.00     0.017 A 
ENDBRANCH  18  22
ENDBRANCH   2  16
TORSDOF 5
ENDMDL
MODEL 3
REMARK VINA RESULT:      -8.6      1.638      2.747
REMARK  5 active torsions:
REMARK  status: ('A' for Active; 'I' for Inactive)
REMARK    1  A    between atoms: C_2  and  N_3 
REMARK    2  A    between atoms: C_2  and  C_14 
REMARK       I    between atoms: N_3  and  C_4 
REMARK       I    between atoms: C_4  and  N_5 
REMARK    3  A    between atoms: N_5  and  C_6 
REMARK    4  A    between atoms: C_6  and  C_7 
REMARK    5  A    between atoms: C_16  and  C_17 
ROOT
HETATM    1  C   UNL     1      46.127 -12.285   7.998  1.00  0.00     0.041 C 
HETATM    2  C   UNL     1      45.014 -13.225   8.447  1.00  0.00     0.153 C 
ENDROOT
BRANCH   2   3
HETATM    3  N   UNL     1      44.040 -12.492   9.251  1.00  0.00    -0.332 N 
HETATM    4  C   UNL     1      44.114 -12.472  10.618  1.00  0.00     0.317 C 
HETATM    5  N   UNL     1      43.098 -11.755  11.176  1.00  0.00    -0.339 N 
HETATM    6  O   UNL     1      44.981 -13.066  11.247  1.00  0.00    -0.247 OA
HETATM    7  H   UNL     1      42.618 -11.090  10.590  1.00  0.00     0.164 HD
HETATM    8  H   UNL     1      43.126 -12.354   8.846  1.00  0.00     0.165 HD
BRANCH   5   9
HETATM    9  C   UNL     1      43.000 -11.551  12.606  1.00  0.00     0.162 C 
BRANCH   9  10
HETATM   10  C   UNL     1      42.770 -10.098  12.934  1.00  0.00    -0.040 A 
HETATM   11  C   UNL     1      42.833  -9.117  11.934  1.00  0.00     0.009 A 
HETATM   12  C   UNL     1      42.619  -7.773  12.245  1.00  0.00     0.001 A 
HETATM   13  C   UNL     1      42.344  -7.394  13.558  1.00  0.00     0.000 A 
HETATM   14  C   UNL     1      42.285  -8.360  14.561  1.00  0.00     0.001 A 
HETATM   15  C   UNL     1      42.498  -9.704  14.253  1.00  0.00     0.009 A 
ENDBRANCH   9  10
ENDBRANCH   5   9
ENDBRANCH   2   3
BRANCH   2  16
HETATM   16  C   UNL     1      44.339 -13.880   7.282  1.00  0.00     0.145 A 
HETATM   17  N   UNL     1      44.647 -14.997   6.653  1.00  0.00    -0.210 NA
HETATM   18  C   UNL     1      43.622 -15.162   5.743  1.00  0.00     0.181 A 
HETATM   19  N   UNL     1      42.715 -14.172   5.766  1.00  0.00    -0.152 NA
HETATM   20  N   UNL     1      43.188 -13.379   6.740  1.00  0.00    -0.261 N 
HETATM   21  H   UNL     1      42.707 -12.515   6.986  1.00  0.00     0.190 HD
BRANCH  18  22
HETATM   22  C   UNL     1      43.535 -16.327   4.865  1.00  0.00     0.014 A 
HETATM   23  C   UNL     1      43.729 -17.619   5.379  1.00  0.00     0.017 A 
HETATM   24  C   UNL     1      43.635 -18.739   4.547  1.00  0.00     0.025 A 
HETATM   25  C   UNL     1      43.342 -18.575   3.194  1.00  0.00     0.034 A 
HETATM   26 CL   UNL     1      43.224 -19.954   2.171  1.00  0.00    -0.084 Cl
HETATM   27  C   UNL     1      43.145 -17.301   2.666  1.00  0.00     0.025 A 
HETATM   28  C   UNL     1      43.243 -16.182   3.499  1.00  0.00     0.017 A 
ENDBRANCH  18  22
ENDBRANCH   2  16
TORSDOF 5
ENDMDL
MODEL 4
REMARK VINA RESULT:      -8.5      1.755      2.648
REMARK  5 active torsions:
REMARK  status: ('A' for Active; 'I' for Inactive)
REMARK    1  A    between atoms: C_2  and  N_3 
REMARK    2  A    between atoms: C_2  and  C_14 
REMARK       I    between atoms: N_3  and  C_4 
REMARK       I    between atoms: C_4  and  N_5 
REMARK    3  A    between atoms: N_5  and  C_6 
REMARK    4  A    between atoms: C_6  and  C_7 
REMARK    5  A    between atoms: C_16  and  C_17 
ROOT
HETATM    1  C   UNL     1      40.105 -14.680   4.201  1.00  0.00     0.041 C 
HETATM    2  C   UNL     1      41.592 -14.343   4.225  1.00  0.00     0.153 C 
ENDROOT
BRANCH   2   3
HETATM    3  N   UNL     1      42.014 -14.061   5.593  1.00  0.00    -0.332 N 
HETATM    4  C   UNL     1      43.310 -13.732   5.888  1.00  0.00     0.317 C 
HETATM    5  N   UNL     1      43.499 -13.532   7.223  1.00  0.00    -0.339 N 
HETATM    6  O   UNL     1      44.189 -13.664   5.037  1.00  0.00    -0.247 OA
HETATM    7  H   UNL     1      42.686 -13.335   7.786  1.00  0.00     0.164 HD
HETATM    8  H   UNL     1      41.478 -14.489   6.334  1.00  0.00     0.165 HD
BRANCH   5   9
HETATM    9  C   UNL     1      44.778 -13.124   7.762  1.00  0.00     0.162 C 
BRANCH   9  10
HETATM   10  C   UNL     1      44.604 -12.134   8.886  1.00  0.00    -0.040 A 
HETATM   11  C   UNL     1      45.613 -11.948   9.842  1.00  0.00     0.009 A 
HETATM   12  C   UNL     1      45.445 -11.029  10.880  1.00  0.00     0.001 A 
HETATM   13  C   UNL     1      44.266 -10.291  10.976  1.00  0.00     0.000 A 
HETATM   14  C   UNL     1      43.254 -10.473  10.036  1.00  0.00     0.001 A 
HETATM   15  C   UNL     1      43.420 -11.389   8.997  1.00  0.00     0.009 A 
ENDBRANCH   9  10
ENDBRANCH   5   9
ENDBRANCH   2   3
BRANCH   2  16
HETATM   16  C   UNL     1      42.419 -15.448   3.643  1.00  0.00     0.145 A 
HETATM   17  N   UNL     1      42.603 -16.678   4.079  1.00  0.00    -0.210 NA
HETATM   18  C   UNL     1      43.363 -17.272   3.093  1.00  0.00     0.181 A 
HETATM   19  N   UNL     1      43.681 -16.446   2.084  1.00  0.00    -0.152 NA
HETATM   20  N   UNL     1      43.077 -15.306   2.453  1.00  0.00    -0.261 N 
HETATM   21  H   UNL     1      43.152 -14.468   1.878  1.00  0.00     0.190 HD
BRANCH  18  22
HETATM   22  C   UNL     1      43.752 -18.681   3.146  1.00  0.00     0.014 A 
HETATM   23  C   UNL     1      44.307 -19.219   4.317  1.00  0.00     0.017 A 
HETATM   24  C   UNL     1      44.670 -20.568   4.380  1.00  0.00     0.025 A 
HETATM   25  C   UNL     1      44.475 -21.391   3.272  1.00  0.00     0.034 A 
HETATM   26 CL   UNL     1      44.918 -23.052   3.350  1.00  0.00    -0.084 Cl
HETATM   27  C   UNL     1      43.923 -20.875   2.102  1.00  0.00     0.025 A 
HETATM   28  C   UNL     1      43.564 -19.525   2.040  1.00  0.00     0.017 A 
ENDBRANCH  18  22
ENDBRANCH   2  16
TORSDOF 5
ENDMDL
MODEL 5
REMARK VINA RESULT:      -8.4      1.968      2.507
REMARK  5 active torsions:
REMARK  status: ('A' for Active; 'I' for Inactive)
REMARK    1  A    between atoms: C_2  and  N_3 
REMARK    2  A    between atoms: C_2  and  C_14 
REMARK       I    between atoms: N_3  and  C_4 
REMARK       I    between atoms: C_4  and  N_5 
REMARK    3  A    between atoms: N_5  and  C_6 
REMARK    4  A    between atoms: C_6  and  C_7 
REMARK    5  A    between atoms: C_16  and  C_17 
ROOT
HETATM    1  C   UNL     1      39.856 -13.987   4.612  1.00  0.00     0.041 C 
HETATM    2  C   UNL     1      41.305 -13.769   5.032  1.00  0.00     0.153 C 
ENDROOT
BRANCH   2   3
HETATM    3  N   UNL     1      41.351 -13.176   6.365  1.00  0.00    -0.332 N 
HETATM    4  C   UNL     1      41.593 -11.841   6.546  1.00  0.00     0.317 C 
HETATM    5  N   UNL     1      41.619 -11.497   7.864  1.00  0.00    -0.339 N 
HETATM    6  O   UNL     1      41.793 -11.069   5.616  1.00  0.00    -0.247 OA
HETATM    7  H   UNL     1      41.174 -12.121   8.519  1.00  0.00     0.164 HD
HETATM    8  H   UNL     1      41.604 -13.787   7.128  1.00  0.00     0.165 HD
BRANCH   5   9
HETATM    9  C   UNL     1      41.807 -10.128   8.295  1.00  0.00     0.162 C 
BRANCH   9  10
HETATM   10  C   UNL     1      42.467 -10.069   9.649  1.00  0.00    -0.040 A 
HETATM   11  C   UNL     1      41.901  -9.321  10.692  1.00  0.00     0.009 A 
HETATM   12  C   UNL     1      42.517  -9.271  11.944  1.00  0.00     0.001 A 
HETATM   13  C   UNL     1      43.707  -9.963  12.166  1.00  0.00     0.000 A 
HETATM   14  C   UNL     1      44.282 -10.704  11.134  1.00  0.00     0.001 A 
HETATM   15  C   UNL     1      43.667 -10.757   9.883  1.00  0.00     0.009 A 
ENDBRANCH   9  10
ENDBRANCH   5   9
ENDBRANCH   2   3
BRANCH   2  16
HETATM   16  C   UNL     1      42.087 -15.045   5.002  1.00  0.00     0.145 A 
HETATM   17  N   UNL     1      42.006 -16.060   4.166  1.00  0.00    -0.210 NA
HETATM   18  C   UNL     1      43.035 -16.895   4.553  1.00  0.00     0.181 A 
HETATM   19  N   UNL     1      43.723 -16.448   5.615  1.00  0.00    -0.152 NA
HETATM   20  N   UNL     1      43.109 -15.285   5.879  1.00  0.00    -0.261 N 
HETATM   21  H   UNL     1      43.407 -14.706   6.663  1.00  0.00     0.190 HD
BRANCH  18  22
HETATM   22  C   UNL     1      43.347 -18.133   3.841  1.00  0.00     0.014 A 
HETATM   23  C   UNL     1      42.776 -18.393   2.585  1.00  0.00     0.017 A 
HETATM   24  C   UNL     1      43.080 -19.569   1.893  1.00  0.00     0.025 A 
HETATM   25  C   UNL     1      43.962 -20.494   2.450  1.00  0.00     0.034 A 
HETATM   26 CL   UNL     1      44.338 -21.940   1.596  1.00  0.00    -0.084 Cl
HETATM   27  C   UNL     1      44.540 -20.252   3.694  1.00  0.00     0.025 A 
HETATM   28  C   UNL     1      44.233 -19.077   4.386  1.00  0.00     0.017 A 
ENDBRANCH  18  22
ENDBRANCH   2  16
TORSDOF 5
ENDMDL
MODEL 6
REMARK VINA RESULT:      -8.4      1.398      2.037
REMARK  5 active torsions:
REMARK  status: ('A' for Active; 'I' for Inactive)
REMARK    1  A    between atoms: C_2  and  N_3 
REMARK    2  A    between atoms: C_2  and  C_14 
REMARK       I    between atoms: N_3  and  C_4 
REMARK       I    between atoms: C_4  and  N_5 
REMARK    3  A    between atoms: N_5  and  C_6 
REMARK    4  A    between atoms: C_6  and  C_7 
REMARK    5  A    between atoms: C_16  and  C_17 
ROOT
HETATM    1  C   UNL     1      45.847 -13.420   6.584  1.00  0.00     0.041 C 
HETATM    2  C   UNL     1      44.832 -14.026   7.546  1.00  0.00     0.153 C 
ENDROOT
BRANCH   2   3
HETATM    3  N   UNL     1      43.731 -13.091   7.760  1.00  0.00    -0.332 N 
HETATM    4  C   UNL     1      43.882 -11.977   8.541  1.00  0.00     0.317 C 
HETATM    5  N   UNL     1      42.731 -11.253   8.632  1.00  0.00    -0.339 N 
HETATM    6  O   UNL     1      44.931 -11.701   9.111  1.00  0.00    -0.247 OA
HETATM    7  H   UNL     1      42.030 -11.399   7.922  1.00  0.00     0.164 HD
HETATM    8  H   UNL     1      42.796 -13.461   7.678  1.00  0.00     0.165 HD
BRANCH   5   9
HETATM    9  C   UNL     1      42.667 -10.006   9.362  1.00  0.00     0.162 C 
BRANCH   9  10
HETATM   10  C   UNL     1      42.562 -10.249  10.847  1.00  0.00    -0.040 A 
HETATM   11  C   UNL     1      41.532 -11.042  11.374  1.00  0.00     0.009 A 
HETATM   12  C   UNL     1      41.441 -11.263  12.749  1.00  0.00     0.001 A 
HETATM   13  C   UNL     1      42.375 -10.692  13.613  1.00  0.00     0.000 A 
HETATM   14  C   UNL     1      43.399  -9.897  13.100  1.00  0.00     0.001 A 
HETATM   15  C   UNL     1      43.493  -9.675  11.726  1.00  0.00     0.009 A 
ENDBRANCH   9  10
ENDBRANCH   5   9
ENDBRANCH   2   3
BRANCH   2  16
HETATM   16  C   UNL     1      44.310 -15.338   7.046  1.00  0.00     0.145 A 
HETATM   17  N   UNL     1      44.626 -16.005   5.954  1.00  0.00    -0.210 NA
HETATM   18  C   UNL     1      43.921 -17.186   6.068  1.00  0.00     0.181 A 
HETATM   19  N   UNL     1      43.158 -17.256   7.171  1.00  0.00    -0.152 NA
HETATM   20  N   UNL     1      43.420 -16.083   7.768  1.00  0.00    -0.261 N 
HETATM   21  H   UNL     1      42.964 -15.832   8.645  1.00  0.00     0.190 HD
BRANCH  18  22
HETATM   22  C   UNL     1      44.029 -18.261   5.083  1.00  0.00     0.014 A 
HETATM   23  C   UNL     1      43.502 -18.096   3.793  1.00  0.00     0.017 A 
HETATM   24  C   UNL     1      43.614 -19.115   2.841  1.00  0.00     0.025 A 
HETATM   25  C   UNL     1      44.258 -20.306   3.172  1.00  0.00     0.034 A 
HETATM   26 CL   UNL     1      44.397 -21.558   2.001  1.00  0.00    -0.084 Cl
HETATM   27  C   UNL     1      44.788 -20.487   4.447  1.00  0.00     0.025 A 
HETATM   28  C   UNL     1      44.673 -19.468   5.399  1.00  0.00     0.017 A 
ENDBRANCH  18  22
ENDBRANCH   2  16
TORSDOF 5
ENDMDL
MODEL 7
REMARK VINA RESULT:      -8.4      2.316      2.850
REMARK  5 active torsions:
REMARK  status: ('A' for Active; 'I' for Inactive)
REMARK    1  A    between atoms: C_2  and  N_3 
REMARK    2  A    between atoms: C_2  and  C_14 
REMARK       I    between atoms: N_3  and  C_4 
REMARK       I    between atoms: C_4  and  N_5 
REMARK    3  A    between atoms: N_5  and  C_6 
REMARK    4  A    between atoms: C_6  and  C_7 
REMARK    5  A    between atoms: C_16  and  C_17 
ROOT
HETATM    1  C   UNL     1      39.703 -13.124   5.500  1.00  0.00     0.041 C 
HETATM    2  C   UNL     1      41.121 -12.572   5.405  1.00  0.00     0.153 C 
ENDROOT
BRANCH   2   3
HETATM    3  N   UNL     1      41.646 -12.320   6.744  1.00  0.00    -0.332 N 
HETATM    4  C   UNL     1      41.659 -11.060   7.280  1.00  0.00     0.317 C 
HETATM    5  N   UNL     1      42.212 -11.038   8.526  1.00  0.00    -0.339 N 
HETATM    6  O   UNL     1      41.246 -10.076   6.679  1.00  0.00    -0.247 OA
HETATM    7  H   UNL     1      42.256 -11.908   9.033  1.00  0.00     0.164 HD
HETATM    8  H   UNL     1      42.340 -12.965   7.090  1.00  0.00     0.165 HD
BRANCH   5   9
HETATM    9  C   UNL     1      42.285  -9.824   9.310  1.00  0.00     0.162 C 
BRANCH   9  10
HETATM   10  C   UNL     1      42.356 -10.132  10.784  1.00  0.00    -0.040 A 
HETATM   11  C   UNL     1      43.385  -9.606  11.579  1.00  0.00     0.009 A 
HETATM   12  C   UNL     1      43.445  -9.895  12.943  1.00  0.00     0.001 A 
HETATM   13  C   UNL     1      42.481 -10.715  13.527  1.00  0.00     0.000 A 
HETATM   14  C   UNL     1      41.457 -11.249  12.746  1.00  0.00     0.001 A 
HETATM   15  C   UNL     1      41.394 -10.960  11.382  1.00  0.00     0.009 A 
ENDBRANCH   9  10
ENDBRANCH   5   9
ENDBRANCH   2   3
BRANCH   2  16
HETATM   16  C   UNL     1      42.027 -13.500   4.657  1.00  0.00     0.145 A 
HETATM   17  N   UNL     1      42.045 -14.817   4.633  1.00  0.00    -0.210 NA
HETATM   18  C   UNL     1      43.011 -15.122   3.695  1.00  0.00     0.181 A 
HETATM   19  N   UNL     1      43.610 -14.043   3.167  1.00  0.00    -0.152 NA
HETATM   20  N   UNL     1      42.975 -13.036   3.787  1.00  0.00    -0.261 N 
HETATM   21  H   UNL     1      43.228 -12.068   3.599  1.00  0.00     0.190 HD
BRANCH  18  22
HETATM   22  C   UNL     1      43.319 -16.497   3.307  1.00  0.00     0.014 A 
HETATM   23  C   UNL     1      43.226 -17.537   4.245  1.00  0.00     0.017 A 
HETATM   24  C   UNL     1      43.506 -18.857   3.878  1.00  0.00     0.025 A 
HETATM   25  C   UNL     1      43.878 -19.148   2.566  1.00  0.00     0.034 A 
HETATM   26 CL   UNL     1      44.220 -20.772   2.113  1.00  0.00    -0.084 Cl
HETATM   27  C   UNL     1      43.973 -18.129   1.620  1.00  0.00     0.025 A 
HETATM   28  C   UNL     1      43.695 -16.809   1.991  1.00  0.00     0.017 A 
ENDBRANCH  18  22
ENDBRANCH   2  16
TORSDOF 5
ENDMDL
MODEL 8
REMARK VINA RESULT:      -8.1      5.581      9.492
REMARK  5 active torsions:
REMARK  status: ('A' for Active; 'I' for Inactive)
REMARK    1  A    between atoms: C_2  and  N_3 
REMARK    2  A    between atoms: C_2  and  C_14 
REMARK       I    between atoms: N_3  and  C_4 
REMARK       I    between atoms: C_4  and  N_5 
REMARK    3  A    between atoms: N_5  and  C_6 
REMARK    4  A    between atoms: C_6  and  C_7 
REMARK    5  A    between atoms: C_16  and  C_17 
ROOT
HETATM    1  C   UNL     1      39.810 -13.385   4.553  1.00  0.00     0.041 C 
HETATM    2  C   UNL     1      39.878 -14.453   3.468  1.00  0.00     0.153 C 
ENDROOT
BRANCH   2   3
HETATM    3  N   UNL     1      40.120 -13.828   2.171  1.00  0.00    -0.332 N 
HETATM    4  C   UNL     1      39.153 -13.795   1.202  1.00  0.00     0.317 C 
HETATM    5  N   UNL     1      39.589 -13.191   0.061  1.00  0.00    -0.339 N 
HETATM    6  O   UNL     1      38.042 -14.289   1.353  1.00  0.00    -0.247 OA
HETATM    7  H   UNL     1      40.391 -12.584   0.131  1.00  0.00     0.164 HD
HETATM    8  H   UNL     1      41.078 -13.792   1.854  1.00  0.00     0.165 HD
BRANCH   5   9
HETATM    9  C   UNL     1      38.723 -12.994  -1.081  1.00  0.00     0.162 C 
BRANCH   9  10
HETATM   10  C   UNL     1      38.909 -14.089  -2.101  1.00  0.00    -0.040 A 
HETATM   11  C   UNL     1      37.845 -14.498  -2.918  1.00  0.00     0.009 A 
HETATM   12  C   UNL     1      38.024 -15.513  -3.860  1.00  0.00     0.001 A 
HETATM   13  C   UNL     1      39.266 -16.132  -3.992  1.00  0.00     0.000 A 
HETATM   14  C   UNL     1      40.329 -15.739  -3.181  1.00  0.00     0.001 A 
HETATM   15  C   UNL     1      40.152 -14.724  -2.239  1.00  0.00     0.009 A 
ENDBRANCH   9  10
ENDBRANCH   5   9
ENDBRANCH   2   3
BRANCH   2  16
HETATM   16  C   UNL     1      40.935 -15.472   3.760  1.00  0.00     0.145 A 
HETATM   17  N   UNL     1      41.150 -16.644   3.197  1.00  0.00    -0.210 NA
HETATM   18  C   UNL     1      42.315 -17.091   3.787  1.00  0.00     0.181 A 
HETATM   19  N   UNL     1      42.806 -16.254   4.715  1.00  0.00    -0.152 NA
HETATM   20  N   UNL     1      41.922 -15.245   4.679  1.00  0.00    -0.261 N 
HETATM   21  H   UNL     1      42.022 -14.443   5.300  1.00  0.00     0.190 HD
BRANCH  18  22
HETATM   22  C   UNL     1      42.954 -18.348   3.404  1.00  0.00     0.014 A 
HETATM   23  C   UNL     1      42.642 -18.958   2.179  1.00  0.00     0.017 A 
HETATM   24  C   UNL     1      43.260 -20.154   1.799  1.00  0.00     0.025 A 
HETATM   25  C   UNL     1      44.197 -20.748   2.642  1.00  0.00     0.034 A 
HETATM   26 CL   UNL     1      44.958 -22.219   2.175  1.00  0.00    -0.084 Cl
HETATM   27  C   UNL     1      44.521 -20.157   3.861  1.00  0.00     0.025 A 
HETATM   28  C   UNL     1      43.901 -18.962   4.240  1.00  0.00     0.017 A 
ENDBRANCH  18  22
ENDBRANCH   2  16
TORSDOF 5
ENDMDL
MODEL 9
REMARK VINA RESULT:      -8.0      3.435      6.920
REMARK  5 active torsions:
REMARK  status: ('A' for Active; 'I' for Inactive)
REMARK    1  A    between atoms: C_2  and  N_3 
REMARK    2  A    between atoms: C_2  and  C_14 
REMARK       I    between atoms: N_3  and  C_4 
REMARK       I    between atoms: C_4  and  N_5 
REMARK    3  A    between atoms: N_5  and  C_6 
REMARK    4  A    between atoms: C_6  and  C_7 
REMARK    5  A    between atoms: C_16  and  C_17 
ROOT
HETATM    1  C   UNL     1      44.493 -13.819   7.311  1.00  0.00     0.041 C 
HETATM    2  C   UNL     1      43.474 -14.397   6.336  1.00  0.00     0.153 C 
ENDROOT
BRANCH   2   3
HETATM    3  N   UNL     1      43.481 -13.626   5.097  1.00  0.00    -0.332 N 
HETATM    4  C   UNL     1      42.320 -13.330   4.433  1.00  0.00     0.317 C 
HETATM    5  N   UNL     1      42.548 -12.626   3.288  1.00  0.00    -0.339 N 
HETATM    6  O   UNL     1      41.219 -13.697   4.823  1.00  0.00    -0.247 OA
HETATM    7  H   UNL     1      43.429 -12.142   3.205  1.00  0.00     0.164 HD
HETATM    8  H   UNL     1      44.322 -13.664   4.540  1.00  0.00     0.165 HD
BRANCH   5   9
HETATM    9  C   UNL     1      41.466 -12.158   2.450  1.00  0.00     0.162 C 
BRANCH   9  10
HETATM   10  C   UNL     1      41.395 -12.943   1.164  1.00  0.00    -0.040 A 
HETATM   11  C   UNL     1      42.025 -12.476   0.001  1.00  0.00     0.009 A 
HETATM   12  C   UNL     1      41.955 -13.207  -1.186  1.00  0.00     0.001 A 
HETATM   13  C   UNL     1      41.252 -14.410  -1.225  1.00  0.00     0.000 A 
HETATM   14  C   UNL     1      40.616 -14.881  -0.077  1.00  0.00     0.001 A 
HETATM   15  C   UNL     1      40.685 -14.152   1.111  1.00  0.00     0.009 A 
ENDBRANCH   9  10
ENDBRANCH   5   9
ENDBRANCH   2   3
BRANCH   2  16
HETATM   16  C   UNL     1      43.739 -15.843   6.051  1.00  0.00     0.145 A 
HETATM   17  N   UNL     1      43.493 -16.542   4.961  1.00  0.00    -0.210 NA
HETATM   18  C   UNL     1      44.045 -17.779   5.226  1.00  0.00     0.181 A 
HETATM   19  N   UNL     1      44.592 -17.877   6.448  1.00  0.00    -0.152 NA
HETATM   20  N   UNL     1      44.387 -16.648   6.947  1.00  0.00    -0.261 N 
HETATM   21  H   UNL     1      44.688 -16.413   7.891  1.00  0.00     0.190 HD
BRANCH  18  22
HETATM   22  C   UNL     1      44.049 -18.861   4.242  1.00  0.00     0.014 A 
HETATM   23  C   UNL     1      43.414 -18.694   3.001  1.00  0.00     0.017 A 
HETATM   24  C   UNL     1      43.425 -19.719   2.051  1.00  0.00     0.025 A 
HETATM   25  C   UNL     1      44.074 -20.920   2.333  1.00  0.00     0.034 A 
HETATM   26 CL   UNL     1      44.090 -22.180   1.162  1.00  0.00    -0.084 Cl
HETATM   27  C   UNL     1      44.711 -21.103   3.558  1.00  0.00     0.025 A 
HETATM   28  C   UNL     1      44.697 -20.077   4.509  1.00  0.00     0.017 A 
ENDBRANCH  18  22
ENDBRANCH   2  16
TORSDOF 5
ENDMDL
MODEL 10
REMARK VINA RESULT:      -7.9      7.018     10.026
REMARK  5 active torsions:
REMARK  status: ('A' for Active; 'I' for Inactive)
REMARK    1  A    between atoms: C_2  and  N_3 
REMARK    2  A    between atoms: C_2  and  C_14 
REMARK       I    between atoms: N_3  and  C_4 
REMARK       I    between atoms: C_4  and  N_5 
REMARK    3  A    between atoms: N_5  and  C_6 
REMARK    4  A    between atoms: C_6  and  C_7 
REMARK    5  A    between atoms: C_16  and  C_17 
ROOT
HETATM    1  C   UNL     1      40.740 -16.719   1.179  1.00  0.00     0.041 C 
HETATM    2  C   UNL     1      41.572 -15.776   2.040  1.00  0.00     0.153 C 
ENDROOT
BRANCH   2   3
HETATM    3  N   UNL     1      42.795 -16.446   2.469  1.00  0.00    -0.332 N 
HETATM    4  C   UNL     1      42.818 -17.251   3.577  1.00  0.00     0.317 C 
HETATM    5  N   UNL     1      44.060 -17.758   3.818  1.00  0.00    -0.339 N 
HETATM    6  O   UNL     1      41.831 -17.451   4.274  1.00  0.00    -0.247 OA
HETATM    7  H   UNL     1      44.717 -17.769   3.053  1.00  0.00     0.164 HD
HETATM    8  H   UNL     1      43.668 -16.012   2.209  1.00  0.00     0.165 HD
BRANCH   5   9
HETATM    9  C   UNL     1      44.313 -18.678   4.906  1.00  0.00     0.162 C 
BRANCH   9  10
HETATM   10  C   UNL     1      44.433 -20.095   4.404  1.00  0.00    -0.040 A 
HETATM   11  C   UNL     1      44.686 -21.152   5.290  1.00  0.00     0.009 A 
HETATM   12  C   UNL     1      44.796 -22.462   4.818  1.00  0.00     0.001 A 
HETATM   13  C   UNL     1      44.658 -22.728   3.457  1.00  0.00     0.000 A 
HETATM   14  C   UNL     1      44.414 -21.684   2.566  1.00  0.00     0.001 A 
HETATM   15  C   UNL     1      44.303 -20.375   3.035  1.00  0.00     0.009 A 
ENDBRANCH   9  10
ENDBRANCH   5   9
ENDBRANCH   2   3
BRANCH   2  16
HETATM   16  C   UNL     1      41.900 -14.508   1.315  1.00  0.00     0.145 A 
HETATM   17  N   UNL     1      41.953 -14.272   0.019  1.00  0.00    -0.210 NA
HETATM   18  C   UNL     1      42.192 -12.915  -0.064  1.00  0.00     0.181 A 
HETATM   19  N   UNL     1      42.322 -12.315   1.130  1.00  0.00    -0.152 NA
HETATM   20  N   UNL     1      42.134 -13.336   1.980  1.00  0.00    -0.261 N 
HETATM   21  H   UNL     1      42.189 -13.192   2.987  1.00  0.00     0.190 HD
BRANCH  18  22
HETATM   22  C   UNL     1      42.267 -12.211  -1.343  1.00  0.00     0.014 A 
HETATM   23  C   UNL     1      41.752 -12.800  -2.508  1.00  0.00     0.017 A 
HETATM   24  C   UNL     1      41.808 -12.126  -3.733  1.00  0.00     0.025 A 
HETATM   25  C   UNL     1      42.377 -10.856  -3.800  1.00  0.00     0.034 A 
HETATM   26 CL   UNL     1      42.444 -10.026  -5.306  1.00  0.00    -0.084 Cl
HETATM   27  C   UNL     1      42.892 -10.254  -2.654  1.00  0.00     0.025 A 
HETATM   28  C   UNL     1      42.837 -10.930  -1.431  1.00  0.00     0.017 A 
ENDBRANCH  18  22
ENDBRANCH   2  16
TORSDOF 5
ENDMDL
