MODEL 1
REMARK VINA RESULT:      -7.6      0.000      0.000
REMARK  10 active torsions:
REMARK  status: ('A' for Active; 'I' for Inactive)
REMARK    1  A    between atoms: C_2  and  O_3 
REMARK    2  A    between atoms: O_3  and  C_4 
REMARK    3  A    between atoms: C_4  and  O_5 
REMARK    4  A    between atoms: C_4  and  C_8 
REMARK    5  A    between atoms: C_4  and  C_14 
REMARK    6  A    between atoms: O_5  and  C_6 
REMARK    7  A    between atoms: C_14  and  N_15 
REMARK       I    between atoms: N_15  and  C_16 
REMARK    8  A    between atoms: C_16  and  C_17 
REMARK    9  A    between atoms: C_19  and  N_20 
REMARK       I    between atoms: N_20  and  C_21 
REMARK   10  A    between atoms: C_21  and  C_22 
ROOT
HETATM    1  N   UNL     1      40.910 -16.325   4.578  1.00  0.00    -0.351 N 
HETATM    2  C   UNL     1      40.452 -15.086   4.965  1.00  0.00     0.251 C 
HETATM    3  O   UNL     1      40.495 -14.675   6.116  1.00  0.00    -0.268 OA
HETATM    4  H   UNL     1      41.048 -16.516   3.591  1.00  0.00     0.162 HD
ENDROOT
BRANCH   2   5
HETATM    5  C   UNL     1      39.903 -14.237   3.874  1.00  0.00     0.034 A 
HETATM    6  C   UNL     1      39.713 -14.763   2.587  1.00  0.00     0.046 A 
HETATM    7  C   UNL     1      39.217 -13.964   1.557  1.00  0.00     0.035 A 
HETATM    8  C   UNL     1      38.889 -12.632   1.837  1.00  0.00     0.029 A 
HETATM    9  C   UNL     1      39.047 -12.111   3.125  1.00  0.00     0.003 A 
HETATM   10  C   UNL     1      39.551 -12.914   4.147  1.00  0.00     0.017 A 
BRANCH   7  11
HETATM   11  N   UNL     1      39.035 -14.420   0.236  1.00  0.00    -0.322 N 
HETATM   12  C   UNL     1      39.777 -14.095  -0.891  1.00  0.00     0.263 C 
HETATM   13  O   UNL     1      40.770 -13.373  -0.879  1.00  0.00    -0.267 OA
HETATM   14  H   UNL     1      38.262 -15.055   0.077  1.00  0.00     0.169 HD
BRANCH  12  15
HETATM   15  C   UNL     1      39.294 -14.685  -2.139  1.00  0.00     0.072 A 
HETATM   16  S   UNL     1      40.255 -15.724  -3.108  1.00  0.00    -0.097 SA
HETATM   17  C   UNL     1      38.998 -15.944  -4.245  1.00  0.00     0.050 A 
HETATM   18  C   UNL     1      37.867 -15.238  -3.908  1.00  0.00     0.009 A 
HETATM   19  C   UNL     1      38.037 -14.513  -2.694  1.00  0.00     0.025 A 
ENDBRANCH  12  15
ENDBRANCH   7  11
ENDBRANCH   2   5
BRANCH   1  20
HETATM   20  C   UNL     1      41.406 -17.295   5.549  1.00  0.00     0.198 C 
BRANCH  20  21
HETATM   21  C   UNL     1      42.810 -17.929   5.245  1.00  0.00     0.227 C 
BRANCH  21  22
HETATM   22  O   UNL     1      42.930 -19.279   5.737  1.00  0.00    -0.349 OA
BRANCH  22  23
HETATM   23  C   UNL     1      44.220 -19.691   6.174  1.00  0.00     0.167 C 
HETATM   24  C   UNL     1      44.512 -21.052   5.570  1.00  0.00     0.033 C 
ENDBRANCH  22  23
ENDBRANCH  21  22
BRANCH  21  25
HETATM   25  O   UNL     1      43.827 -17.118   5.890  1.00  0.00    -0.349 OA
BRANCH  25  26
HETATM   26  C   UNL     1      43.370 -16.369   7.012  1.00  0.00     0.167 C 
HETATM   27  C   UNL     1      44.144 -15.065   7.048  1.00  0.00     0.033 C 
ENDBRANCH  25  26
ENDBRANCH  21  25
BRANCH  21  28
HETATM   28  C   UNL     1      43.173 -17.826   3.741  1.00  0.00     0.097 A 
HETATM   29  N   UNL     1      43.562 -16.620   3.235  1.00  0.00    -0.260 NA
HETATM   30  C   UNL     1      43.846 -16.537   1.918  1.00  0.00     0.117 A 
HETATM   31  C   UNL     1      43.793 -17.613   1.052  1.00  0.00     0.019 A 
HETATM   32  C   UNL     1      43.410 -18.844   1.563  1.00  0.00     0.004 A 
HETATM   33  C   UNL     1      43.085 -18.953   2.915  1.00  0.00     0.033 A 
ENDBRANCH  21  28
ENDBRANCH  20  21
ENDBRANCH   1  20
TORSDOF 10
ENDMDL
MODEL 2
REMARK VINA RESULT:      -7.5      5.191      8.810
REMARK  10 active torsions:
REMARK  status: ('A' for Active; 'I' for Inactive)
REMARK    1  A    between atoms: C_2  and  O_3 
REMARK    2  A    between atoms: O_3  and  C_4 
REMARK    3  A    between atoms: C_4  and  O_5 
REMARK    4  A    between atoms: C_4  and  C_8 
REMARK    5  A    between atoms: C_4  and  C_14 
REMARK    6  A    between atoms: O_5  and  C_6 
REMARK    7  A    between atoms: C_14  and  N_15 
REMARK       I    between atoms: N_15  and  C_16 
REMARK    8  A    between atoms: C_16  and  C_17 
REMARK    9  A    between atoms: C_19  and  N_20 
REMARK       I    between atoms: N_20  and  C_21 
REMARK   10  A    between atoms: C_21  and  C_22 
ROOT
HETATM    1  N   UNL     1      44.190 -14.601   7.599  1.00  0.00    -0.351 N 
HETATM    2  C   UNL     1      45.047 -13.530   7.476  1.00  0.00     0.251 C 
HETATM    3  O   UNL     1      45.901 -13.440   6.605  1.00  0.00    -0.268 OA
HETATM    4  H   UNL     1      43.373 -14.515   8.194  1.00  0.00     0.162 HD
ENDROOT
BRANCH   2   5
HETATM    5  C   UNL     1      44.862 -12.444   8.476  1.00  0.00     0.034 A 
HETATM    6  C   UNL     1      43.575 -12.003   8.820  1.00  0.00     0.046 A 
HETATM    7  C   UNL     1      43.399 -10.972   9.742  1.00  0.00     0.035 A 
HETATM    8  C   UNL     1      44.530 -10.400  10.338  1.00  0.00     0.029 A 
HETATM    9  C   UNL     1      45.813 -10.858  10.022  1.00  0.00     0.003 A 
HETATM   10  C   UNL     1      45.981 -11.883   9.093  1.00  0.00     0.017 A 
BRANCH   7  11
HETATM   11  N   UNL     1      42.138 -10.458  10.107  1.00  0.00    -0.322 N 
HETATM   12  C   UNL     1      41.390 -10.750  11.239  1.00  0.00     0.263 C 
HETATM   13  O   UNL     1      41.766 -11.492  12.143  1.00  0.00    -0.267 OA
HETATM   14  H   UNL     1      41.711  -9.802   9.463  1.00  0.00     0.169 HD
BRANCH  12  15
HETATM   15  C   UNL     1      40.081 -10.101  11.298  1.00  0.00     0.072 A 
HETATM   16  S   UNL     1      39.192  -9.674   9.895  1.00  0.00    -0.097 SA
HETATM   17  C   UNL     1      37.893  -9.056  10.818  1.00  0.00     0.050 A 
HETATM   18  C   UNL     1      38.125  -9.159  12.170  1.00  0.00     0.009 A 
HETATM   19  C   UNL     1      39.386  -9.762  12.447  1.00  0.00     0.025 A 
ENDBRANCH  12  15
ENDBRANCH   7  11
ENDBRANCH   2   5
BRANCH   1  20
HETATM   20  C   UNL     1      44.302 -15.773   6.737  1.00  0.00     0.198 C 
BRANCH  20  21
HETATM   21  C   UNL     1      42.986 -16.238   6.019  1.00  0.00     0.227 C 
BRANCH  21  22
HETATM   22  O   UNL     1      41.915 -15.280   6.141  1.00  0.00    -0.349 OA
BRANCH  22  23
HETATM   23  C   UNL     1      40.606 -15.735   5.822  1.00  0.00     0.167 C 
HETATM   24  C   UNL     1      39.913 -14.655   5.013  1.00  0.00     0.033 C 
ENDBRANCH  22  23
ENDBRANCH  21  22
BRANCH  21  25
HETATM   25  O   UNL     1      42.551 -17.485   6.623  1.00  0.00    -0.349 OA
BRANCH  25  26
HETATM   26  C   UNL     1      43.283 -17.873   7.780  1.00  0.00     0.167 C 
HETATM   27  C   UNL     1      43.789 -19.287   7.559  1.00  0.00     0.033 C 
ENDBRANCH  25  26
ENDBRANCH  21  25
BRANCH  21  28
HETATM   28  C   UNL     1      43.247 -16.629   4.541  1.00  0.00     0.097 A 
HETATM   29  N   UNL     1      43.372 -15.642   3.608  1.00  0.00    -0.260 NA
HETATM   30  C   UNL     1      43.569 -15.996   2.320  1.00  0.00     0.117 A 
HETATM   31  C   UNL     1      43.679 -17.306   1.893  1.00  0.00     0.019 A 
HETATM   32  C   UNL     1      43.565 -18.313   2.839  1.00  0.00     0.004 A 
HETATM   33  C   UNL     1      43.335 -17.977   4.172  1.00  0.00     0.033 A 
ENDBRANCH  21  28
ENDBRANCH  20  21
ENDBRANCH   1  20
TORSDOF 10
ENDMDL
MODEL 3
REMARK VINA RESULT:      -7.3      5.239      8.991
REMARK  10 active torsions:
REMARK  status: ('A' for Active; 'I' for Inactive)
REMARK    1  A    between atoms: C_2  and  O_3 
REMARK    2  A    between atoms: O_3  and  C_4 
REMARK    3  A    between atoms: C_4  and  O_5 
REMARK    4  A    between atoms: C_4  and  C_8 
REMARK    5  A    between atoms: C_4  and  C_14 
REMARK    6  A    between atoms: O_5  and  C_6 
REMARK    7  A    between atoms: C_14  and  N_15 
REMARK       I    between atoms: N_15  and  C_16 
REMARK    8  A    between atoms: C_16  and  C_17 
REMARK    9  A    between atoms: C_19  and  N_20 
REMARK       I    between atoms: N_20  and  C_21 
REMARK   10  A    between atoms: C_21  and  C_22 
ROOT
HETATM    1  N   UNL     1      44.246 -14.518   7.517  1.00  0.00    -0.351 N 
HETATM    2  C   UNL     1      45.114 -13.450   7.469  1.00  0.00     0.251 C 
HETATM    3  O   UNL     1      46.005 -13.336   6.638  1.00  0.00    -0.268 OA
HETATM    4  H   UNL     1      43.406 -14.448   8.080  1.00  0.00     0.162 HD
ENDROOT
BRANCH   2   5
HETATM    5  C   UNL     1      44.894 -12.399   8.498  1.00  0.00     0.034 A 
HETATM    6  C   UNL     1      43.597 -11.965   8.808  1.00  0.00     0.046 A 
HETATM    7  C   UNL     1      43.389 -10.966   9.759  1.00  0.00     0.035 A 
HETATM    8  C   UNL     1      44.499 -10.421  10.416  1.00  0.00     0.029 A 
HETATM    9  C   UNL     1      45.791 -10.872  10.134  1.00  0.00     0.003 A 
HETATM   10  C   UNL     1      45.991 -11.866   9.176  1.00  0.00     0.017 A 
BRANCH   7  11
HETATM   11  N   UNL     1      42.116 -10.460  10.092  1.00  0.00    -0.322 N 
HETATM   12  C   UNL     1      41.354 -10.737  11.219  1.00  0.00     0.263 C 
HETATM   13  O   UNL     1      41.725 -11.455  12.144  1.00  0.00    -0.267 OA
HETATM   14  H   UNL     1      41.693  -9.822   9.429  1.00  0.00     0.169 HD
BRANCH  12  15
HETATM   15  C   UNL     1      40.037 -10.102  11.244  1.00  0.00     0.072 A 
HETATM   16  S   UNL     1      39.185  -9.674   9.818  1.00  0.00    -0.097 SA
HETATM   17  C   UNL     1      37.853  -9.077  10.707  1.00  0.00     0.050 A 
HETATM   18  C   UNL     1      38.046  -9.188  12.065  1.00  0.00     0.009 A 
HETATM   19  C   UNL     1      39.304  -9.780  12.374  1.00  0.00     0.025 A 
ENDBRANCH  12  15
ENDBRANCH   7  11
ENDBRANCH   2   5
BRANCH   1  20
HETATM   20  C   UNL     1      44.387 -15.660   6.619  1.00  0.00     0.198 C 
BRANCH  20  21
HETATM   21  C   UNL     1      43.080 -16.143   5.897  1.00  0.00     0.227 C 
BRANCH  21  22
HETATM   22  O   UNL     1      42.428 -17.227   6.589  1.00  0.00    -0.349 OA
BRANCH  22  23
HETATM   23  C   UNL     1      43.046 -17.690   7.784  1.00  0.00     0.167 C 
HETATM   24  C   UNL     1      43.665 -19.046   7.501  1.00  0.00     0.033 C 
ENDBRANCH  22  23
ENDBRANCH  21  22
BRANCH  21  25
HETATM   25  O   UNL     1      43.435 -16.602   4.566  1.00  0.00    -0.349 OA
BRANCH  25  26
HETATM   26  C   UNL     1      42.757 -17.779   4.141  1.00  0.00     0.167 C 
HETATM   27  C   UNL     1      41.919 -17.422   2.928  1.00  0.00     0.033 C 
ENDBRANCH  25  26
ENDBRANCH  21  25
BRANCH  21  28
HETATM   28  C   UNL     1      42.108 -14.965   5.620  1.00  0.00     0.097 A 
HETATM   29  N   UNL     1      42.604 -13.809   5.093  1.00  0.00    -0.260 NA
HETATM   30  C   UNL     1      41.754 -12.782   4.885  1.00  0.00     0.117 A 
HETATM   31  C   UNL     1      40.399 -12.841   5.149  1.00  0.00     0.019 A 
HETATM   32  C   UNL     1      39.887 -14.019   5.674  1.00  0.00     0.004 A 
HETATM   33  C   UNL     1      40.747 -15.087   5.923  1.00  0.00     0.033 A 
ENDBRANCH  21  28
ENDBRANCH  20  21
ENDBRANCH   1  20
TORSDOF 10
ENDMDL
MODEL 4
REMARK VINA RESULT:      -7.2      5.298      9.828
REMARK  10 active torsions:
REMARK  status: ('A' for Active; 'I' for Inactive)
REMARK    1  A    between atoms: C_2  and  O_3 
REMARK    2  A    between atoms: O_3  and  C_4 
REMARK    3  A    between atoms: C_4  and  O_5 
REMARK    4  A    between atoms: C_4  and  C_8 
REMARK    5  A    between atoms: C_4  and  C_14 
REMARK    6  A    between atoms: O_5  and  C_6 
REMARK    7  A    between atoms: C_14  and  N_15 
REMARK       I    between atoms: N_15  and  C_16 
REMARK    8  A    between atoms: C_16  and  C_17 
REMARK    9  A    between atoms: C_19  and  N_20 
REMARK       I    between atoms: N_20  and  C_21 
REMARK   10  A    between atoms: C_21  and  C_22 
ROOT
HETATM    1  N   UNL     1      43.870 -14.060   5.585  1.00  0.00    -0.351 N 
HETATM    2  C   UNL     1      44.535 -14.503   6.706  1.00  0.00     0.251 C 
HETATM    3  O   UNL     1      44.694 -15.685   6.980  1.00  0.00    -0.268 OA
HETATM    4  H   UNL     1      43.963 -13.090   5.305  1.00  0.00     0.162 HD
ENDROOT
BRANCH   2   5
HETATM    5  C   UNL     1      45.085 -13.437   7.586  1.00  0.00     0.034 A 
HETATM    6  C   UNL     1      44.410 -13.059   8.756  1.00  0.00     0.046 A 
HETATM    7  C   UNL     1      44.913 -12.046   9.573  1.00  0.00     0.035 A 
HETATM    8  C   UNL     1      46.119 -11.431   9.216  1.00  0.00     0.029 A 
HETATM    9  C   UNL     1      46.813 -11.826   8.069  1.00  0.00     0.003 A 
HETATM   10  C   UNL     1      46.298 -12.833   7.253  1.00  0.00     0.017 A 
BRANCH   7  11
HETATM   11  N   UNL     1      44.268 -11.595  10.742  1.00  0.00    -0.322 N 
HETATM   12  C   UNL     1      43.047 -10.942  10.848  1.00  0.00     0.263 C 
HETATM   13  O   UNL     1      42.307 -10.704   9.897  1.00  0.00    -0.267 OA
HETATM   14  H   UNL     1      44.752 -11.752  11.618  1.00  0.00     0.169 HD
BRANCH  12  15
HETATM   15  C   UNL     1      42.677 -10.540  12.205  1.00  0.00     0.072 A 
HETATM   16  S   UNL     1      41.199 -11.007  12.940  1.00  0.00    -0.097 SA
HETATM   17  C   UNL     1      41.584 -10.195  14.394  1.00  0.00     0.050 A 
HETATM   18  C   UNL     1      42.808  -9.571  14.329  1.00  0.00     0.009 A 
HETATM   19  C   UNL     1      43.439  -9.771  13.068  1.00  0.00     0.025 A 
ENDBRANCH  12  15
ENDBRANCH   7  11
ENDBRANCH   2   5
BRANCH   1  20
HETATM   20  C   UNL     1      43.213 -14.987   4.670  1.00  0.00     0.198 C 
BRANCH  20  21
HETATM   21  C   UNL     1      41.665 -14.804   4.484  1.00  0.00     0.227 C 
BRANCH  21  22
HETATM   22  O   UNL     1      40.904 -15.905   5.022  1.00  0.00    -0.349 OA
BRANCH  22  23
HETATM   23  C   UNL     1      41.610 -16.841   5.827  1.00  0.00     0.167 C 
HETATM   24  C   UNL     1      41.701 -18.149   5.063  1.00  0.00     0.033 C 
ENDBRANCH  22  23
ENDBRANCH  21  22
BRANCH  21  25
HETATM   25  O   UNL     1      41.382 -14.707   3.063  1.00  0.00    -0.349 OA
BRANCH  25  26
HETATM   26  C   UNL     1      40.343 -15.564   2.603  1.00  0.00     0.167 C 
HETATM   27  C   UNL     1      40.950 -16.544   1.616  1.00  0.00     0.033 C 
ENDBRANCH  25  26
ENDBRANCH  21  25
BRANCH  21  28
HETATM   28  C   UNL     1      41.179 -13.439   5.038  1.00  0.00     0.097 A 
HETATM   29  N   UNL     1      41.741 -12.293   4.559  1.00  0.00    -0.260 NA
HETATM   30  C   UNL     1      41.331 -11.113   5.070  1.00  0.00     0.117 A 
HETATM   31  C   UNL     1      40.349 -10.995   6.036  1.00  0.00     0.019 A 
HETATM   32  C   UNL     1      39.765 -12.157   6.519  1.00  0.00     0.004 A 
HETATM   33  C   UNL     1      40.188 -13.390   6.027  1.00  0.00     0.033 A 
ENDBRANCH  21  28
ENDBRANCH  20  21
ENDBRANCH   1  20
TORSDOF 10
ENDMDL
MODEL 5
REMARK VINA RESULT:      -7.2      2.953      7.530
REMARK  10 active torsions:
REMARK  status: ('A' for Active; 'I' for Inactive)
REMARK    1  A    between atoms: C_2  and  O_3 
REMARK    2  A    between atoms: O_3  and  C_4 
REMARK    3  A    between atoms: C_4  and  O_5 
REMARK    4  A    between atoms: C_4  and  C_8 
REMARK    5  A    between atoms: C_4  and  C_14 
REMARK    6  A    between atoms: O_5  and  C_6 
REMARK    7  A    between atoms: C_14  and  N_15 
REMARK       I    between atoms: N_15  and  C_16 
REMARK    8  A    between atoms: C_16  and  C_17 
REMARK    9  A    between atoms: C_19  and  N_20 
REMARK       I    between atoms: N_20  and  C_21 
REMARK   10  A    between atoms: C_21  and  C_22 
ROOT
HETATM    1  N   UNL     1      42.456 -13.465   3.090  1.00  0.00    -0.351 N 
HETATM    2  C   UNL     1      42.084 -13.610   4.408  1.00  0.00     0.251 C 
HETATM    3  O   UNL     1      41.104 -13.070   4.901  1.00  0.00    -0.268 OA
HETATM    4  H   UNL     1      43.137 -14.103   2.694  1.00  0.00     0.162 HD
ENDROOT
BRANCH   2   5
HETATM    5  C   UNL     1      42.951 -14.503   5.222  1.00  0.00     0.034 A 
HETATM    6  C   UNL     1      43.153 -15.839   4.846  1.00  0.00     0.046 A 
HETATM    7  C   UNL     1      43.949 -16.685   5.618  1.00  0.00     0.035 A 
HETATM    8  C   UNL     1      44.565 -16.168   6.765  1.00  0.00     0.029 A 
HETATM    9  C   UNL     1      44.393 -14.828   7.127  1.00  0.00     0.003 A 
HETATM   10  C   UNL     1      43.588 -13.993   6.354  1.00  0.00     0.017 A 
BRANCH   7  11
HETATM   11  N   UNL     1      44.165 -18.044   5.316  1.00  0.00    -0.322 N 
HETATM   12  C   UNL     1      44.199 -18.648   4.067  1.00  0.00     0.263 C 
HETATM   13  O   UNL     1      44.090 -18.042   3.004  1.00  0.00    -0.267 OA
HETATM   14  H   UNL     1      44.303 -18.668   6.102  1.00  0.00     0.169 HD
BRANCH  12  15
HETATM   15  C   UNL     1      44.380 -20.099   4.087  1.00  0.00     0.072 A 
HETATM   16  S   UNL     1      44.335 -21.059   2.666  1.00  0.00    -0.097 SA
HETATM   17  C   UNL     1      44.643 -22.495   3.540  1.00  0.00     0.050 A 
HETATM   18  C   UNL     1      44.770 -22.261   4.890  1.00  0.00     0.009 A 
HETATM   19  C   UNL     1      44.619 -20.880   5.204  1.00  0.00     0.025 A 
ENDBRANCH  12  15
ENDBRANCH   7  11
ENDBRANCH   2   5
BRANCH   1  20
HETATM   20  C   UNL     1      41.745 -12.562   2.190  1.00  0.00     0.198 C 
BRANCH  20  21
HETATM   21  C   UNL     1      40.744 -13.230   1.182  1.00  0.00     0.227 C 
BRANCH  21  22
HETATM   22  O   UNL     1      40.845 -12.684  -0.149  1.00  0.00    -0.349 OA
BRANCH  22  23
HETATM   23  C   UNL     1      41.951 -11.829  -0.410  1.00  0.00     0.167 C 
HETATM   24  C   UNL     1      42.583 -12.258  -1.721  1.00  0.00     0.033 C 
ENDBRANCH  22  23
ENDBRANCH  21  22
BRANCH  21  25
HETATM   25  O   UNL     1      39.392 -13.007   1.664  1.00  0.00    -0.349 OA
BRANCH  25  26
HETATM   26  C   UNL     1      38.452 -12.649   0.656  1.00  0.00     0.167 C 
HETATM   27  C   UNL     1      37.457 -13.786   0.522  1.00  0.00     0.033 C 
ENDBRANCH  25  26
ENDBRANCH  21  25
BRANCH  21  28
HETATM   28  C   UNL     1      40.872 -14.776   1.185  1.00  0.00     0.097 A 
HETATM   29  N   UNL     1      40.215 -15.492   2.142  1.00  0.00    -0.260 NA
HETATM   30  C   UNL     1      40.359 -16.834   2.152  1.00  0.00     0.117 A 
HETATM   31  C   UNL     1      41.114 -17.532   1.228  1.00  0.00     0.019 A 
HETATM   32  C   UNL     1      41.774 -16.810   0.246  1.00  0.00     0.004 A 
HETATM   33  C   UNL     1      41.665 -15.421   0.227  1.00  0.00     0.033 A 
ENDBRANCH  21  28
ENDBRANCH  20  21
ENDBRANCH   1  20
TORSDOF 10
ENDMDL
MODEL 6
REMARK VINA RESULT:      -7.2      2.615      7.735
REMARK  10 active torsions:
REMARK  status: ('A' for Active; 'I' for Inactive)
REMARK    1  A    between atoms: C_2  and  O_3 
REMARK    2  A    between atoms: O_3  and  C_4 
REMARK    3  A    between atoms: C_4  and  O_5 
REMARK    4  A    between atoms: C_4  and  C_8 
REMARK    5  A    between atoms: C_4  and  C_14 
REMARK    6  A    between atoms: O_5  and  C_6 
REMARK    7  A    between atoms: C_14  and  N_15 
REMARK       I    between atoms: N_15  and  C_16 
REMARK    8  A    between atoms: C_16  and  C_17 
REMARK    9  A    between atoms: C_19  and  N_20 
REMARK       I    between atoms: N_20  and  C_21 
REMARK   10  A    between atoms: C_21  and  C_22 
ROOT
HETATM    1  N   UNL     1      39.028 -14.708   1.557  1.00  0.00    -0.351 N 
HETATM    2  C   UNL     1      39.482 -14.057   2.683  1.00  0.00     0.251 C 
HETATM    3  O   UNL     1      39.325 -12.861   2.886  1.00  0.00    -0.268 OA
HETATM    4  H   UNL     1      38.995 -15.722   1.551  1.00  0.00     0.162 HD
ENDROOT
BRANCH   2   5
HETATM    5  C   UNL     1      40.178 -14.913   3.680  1.00  0.00     0.034 A 
HETATM    6  C   UNL     1      40.849 -16.077   3.277  1.00  0.00     0.046 A 
HETATM    7  C   UNL     1      41.485 -16.893   4.212  1.00  0.00     0.035 A 
HETATM    8  C   UNL     1      41.463 -16.515   5.561  1.00  0.00     0.029 A 
HETATM    9  C   UNL     1      40.823 -15.340   5.964  1.00  0.00     0.003 A 
HETATM   10  C   UNL     1      40.182 -14.535   5.023  1.00  0.00     0.017 A 
BRANCH   7  11
HETATM   11  N   UNL     1      42.148 -18.092   3.879  1.00  0.00    -0.322 N 
HETATM   12  C   UNL     1      43.331 -18.247   3.172  1.00  0.00     0.263 C 
HETATM   13  O   UNL     1      44.020 -17.315   2.765  1.00  0.00    -0.267 OA
HETATM   14  H   UNL     1      41.707 -18.953   4.180  1.00  0.00     0.169 HD
BRANCH  12  15
HETATM   15  C   UNL     1      43.729 -19.634   2.930  1.00  0.00     0.072 A 
HETATM   16  S   UNL     1      44.664 -20.539   4.047  1.00  0.00    -0.097 SA
HETATM   17  C   UNL     1      44.630 -21.931   3.056  1.00  0.00     0.050 A 
HETATM   18  C   UNL     1      43.930 -21.720   1.891  1.00  0.00     0.009 A 
HETATM   19  C   UNL     1      43.410 -20.396   1.819  1.00  0.00     0.025 A 
ENDBRANCH  12  15
ENDBRANCH   7  11
ENDBRANCH   2   5
BRANCH   1  20
HETATM   20  C   UNL     1      38.394 -13.985   0.460  1.00  0.00     0.198 C 
BRANCH  20  21
HETATM   21  C   UNL     1      39.337 -13.521  -0.706  1.00  0.00     0.227 C 
BRANCH  21  22
HETATM   22  O   UNL     1      40.717 -13.413  -0.298  1.00  0.00    -0.349 OA
BRANCH  22  23
HETATM   23  C   UNL     1      41.373 -12.181  -0.572  1.00  0.00     0.167 C 
HETATM   24  C   UNL     1      42.446 -12.438  -1.613  1.00  0.00     0.033 C 
ENDBRANCH  22  23
ENDBRANCH  21  22
BRANCH  21  25
HETATM   25  O   UNL     1      38.894 -12.216  -1.161  1.00  0.00    -0.349 OA
BRANCH  25  26
HETATM   26  C   UNL     1      37.852 -11.636  -0.383  1.00  0.00     0.167 C 
HETATM   27  C   UNL     1      36.795 -11.111  -1.337  1.00  0.00     0.033 C 
ENDBRANCH  25  26
ENDBRANCH  21  25
BRANCH  21  28
HETATM   28  C   UNL     1      39.175 -14.412  -1.965  1.00  0.00     0.097 A 
HETATM   29  N   UNL     1      40.223 -15.187  -2.366  1.00  0.00    -0.260 NA
HETATM   30  C   UNL     1      40.079 -15.936  -3.480  1.00  0.00     0.117 A 
HETATM   31  C   UNL     1      38.918 -15.985  -4.227  1.00  0.00     0.019 A 
HETATM   32  C   UNL     1      37.845 -15.208  -3.817  1.00  0.00     0.004 A 
HETATM   33  C   UNL     1      37.974 -14.406  -2.685  1.00  0.00     0.033 A 
ENDBRANCH  21  28
ENDBRANCH  20  21
ENDBRANCH   1  20
TORSDOF 10
ENDMDL
MODEL 7
REMARK VINA RESULT:      -7.1      5.457      9.722
REMARK  10 active torsions:
REMARK  status: ('A' for Active; 'I' for Inactive)
REMARK    1  A    between atoms: C_2  and  O_3 
REMARK    2  A    between atoms: O_3  and  C_4 
REMARK    3  A    between atoms: C_4  and  O_5 
REMARK    4  A    between atoms: C_4  and  C_8 
REMARK    5  A    between atoms: C_4  and  C_14 
REMARK    6  A    between atoms: O_5  and  C_6 
REMARK    7  A    between atoms: C_14  and  N_15 
REMARK       I    between atoms: N_15  and  C_16 
REMARK    8  A    between atoms: C_16  and  C_17 
REMARK    9  A    between atoms: C_19  and  N_20 
REMARK       I    between atoms: N_20  and  C_21 
REMARK   10  A    between atoms: C_21  and  C_22 
ROOT
HETATM    1  N   UNL     1      43.093 -14.187   6.674  1.00  0.00    -0.351 N 
HETATM    2  C   UNL     1      44.401 -14.342   7.075  1.00  0.00     0.251 C 
HETATM    3  O   UNL     1      45.084 -15.318   6.799  1.00  0.00    -0.268 OA
HETATM    4  H   UNL     1      42.658 -13.273   6.745  1.00  0.00     0.162 HD
ENDROOT
BRANCH   2   5
HETATM    5  C   UNL     1      44.965 -13.218   7.869  1.00  0.00     0.034 A 
HETATM    6  C   UNL     1      44.224 -12.637   8.909  1.00  0.00     0.046 A 
HETATM    7  C   UNL     1      44.742 -11.570   9.643  1.00  0.00     0.035 A 
HETATM    8  C   UNL     1      46.027 -11.104   9.337  1.00  0.00     0.029 A 
HETATM    9  C   UNL     1      46.782 -11.700   8.323  1.00  0.00     0.003 A 
HETATM   10  C   UNL     1      46.253 -12.761   7.589  1.00  0.00     0.017 A 
BRANCH   7  11
HETATM   11  N   UNL     1      44.038 -10.919  10.676  1.00  0.00    -0.322 N 
HETATM   12  C   UNL     1      43.625 -11.445  11.892  1.00  0.00     0.263 C 
HETATM   13  O   UNL     1      43.872 -12.587  12.271  1.00  0.00    -0.267 OA
HETATM   14  H   UNL     1      43.789  -9.950  10.516  1.00  0.00     0.169 HD
BRANCH  12  15
HETATM   15  C   UNL     1      42.851 -10.529  12.730  1.00  0.00     0.072 A 
HETATM   16  S   UNL     1      41.136 -10.529  12.765  1.00  0.00    -0.097 SA
HETATM   17  C   UNL     1      41.089  -9.279  13.930  1.00  0.00     0.050 A 
HETATM   18  C   UNL     1      42.349  -8.857  14.286  1.00  0.00     0.009 A 
HETATM   19  C   UNL     1      43.364  -9.578  13.595  1.00  0.00     0.025 A 
ENDBRANCH  12  15
ENDBRANCH   7  11
ENDBRANCH   2   5
BRANCH   1  20
HETATM   20  C   UNL     1      42.383 -15.239   5.954  1.00  0.00     0.198 C 
BRANCH  20  21
HETATM   21  C   UNL     1      42.150 -14.998   4.421  1.00  0.00     0.227 C 
BRANCH  21  22
HETATM   22  O   UNL     1      42.903 -13.878   3.911  1.00  0.00    -0.349 OA
BRANCH  22  23
HETATM   23  C   UNL     1      42.159 -12.822   3.315  1.00  0.00     0.167 C 
HETATM   24  C   UNL     1      42.283 -12.948   1.808  1.00  0.00     0.033 C 
ENDBRANCH  22  23
ENDBRANCH  21  22
BRANCH  21  25
HETATM   25  O   UNL     1      40.738 -14.732   4.208  1.00  0.00    -0.349 OA
BRANCH  25  26
HETATM   26  C   UNL     1      39.950 -14.720   5.394  1.00  0.00     0.167 C 
HETATM   27  C   UNL     1      39.464 -13.300   5.617  1.00  0.00     0.033 C 
ENDBRANCH  25  26
ENDBRANCH  21  25
BRANCH  21  28
HETATM   28  C   UNL     1      42.398 -16.287   3.593  1.00  0.00     0.097 A 
HETATM   29  N   UNL     1      43.429 -17.108   3.942  1.00  0.00    -0.260 NA
HETATM   30  C   UNL     1      43.653 -18.211   3.196  1.00  0.00     0.117 A 
HETATM   31  C   UNL     1      42.878 -18.574   2.111  1.00  0.00     0.019 A 
HETATM   32  C   UNL     1      41.820 -17.749   1.759  1.00  0.00     0.004 A 
HETATM   33  C   UNL     1      41.581 -16.590   2.496  1.00  0.00     0.033 A 
ENDBRANCH  21  28
ENDBRANCH  20  21
ENDBRANCH   1  20
TORSDOF 10
ENDMDL
MODEL 8
REMARK VINA RESULT:      -7.1      3.433      8.830
REMARK  10 active torsions:
REMARK  status: ('A' for Active; 'I' for Inactive)
REMARK    1  A    between atoms: C_2  and  O_3 
REMARK    2  A    between atoms: O_3  and  C_4 
REMARK    3  A    between atoms: C_4  and  O_5 
REMARK    4  A    between atoms: C_4  and  C_8 
REMARK    5  A    between atoms: C_4  and  C_14 
REMARK    6  A    between atoms: O_5  and  C_6 
REMARK    7  A    between atoms: C_14  and  N_15 
REMARK       I    between atoms: N_15  and  C_16 
REMARK    8  A    between atoms: C_16  and  C_17 
REMARK    9  A    between atoms: C_19  and  N_20 
REMARK       I    between atoms: N_20  and  C_21 
REMARK   10  A    between atoms: C_21  and  C_22 
ROOT
HETATM    1  N   UNL     1      41.188 -16.162   3.426  1.00  0.00    -0.351 N 
HETATM    2  C   UNL     1      42.212 -17.080   3.476  1.00  0.00     0.251 C 
HETATM    3  O   UNL     1      42.430 -17.904   2.599  1.00  0.00    -0.268 OA
HETATM    4  H   UNL     1      41.195 -15.376   4.067  1.00  0.00     0.162 HD
ENDROOT
BRANCH   2   5
HETATM    5  C   UNL     1      43.081 -17.005   4.681  1.00  0.00     0.034 A 
HETATM    6  C   UNL     1      43.113 -15.842   5.466  1.00  0.00     0.046 A 
HETATM    7  C   UNL     1      43.942 -15.760   6.584  1.00  0.00     0.035 A 
HETATM    8  C   UNL     1      44.723 -16.871   6.926  1.00  0.00     0.029 A 
HETATM    9  C   UNL     1      44.671 -18.044   6.166  1.00  0.00     0.003 A 
HETATM   10  C   UNL     1      43.846 -18.114   5.044  1.00  0.00     0.017 A 
BRANCH   7  11
HETATM   11  N   UNL     1      44.047 -14.611   7.394  1.00  0.00    -0.322 N 
HETATM   12  C   UNL     1      44.981 -13.588   7.310  1.00  0.00     0.263 C 
HETATM   13  O   UNL     1      45.852 -13.518   6.446  1.00  0.00    -0.267 OA
HETATM   14  H   UNL     1      43.368 -14.517   8.140  1.00  0.00     0.169 HD
BRANCH  12  15
HETATM   15  C   UNL     1      44.867 -12.560   8.344  1.00  0.00     0.072 A 
HETATM   16  S   UNL     1      43.408 -11.711   8.650  1.00  0.00    -0.097 SA
HETATM   17  C   UNL     1      44.114 -10.814   9.922  1.00  0.00     0.050 A 
HETATM   18  C   UNL     1      45.436 -11.141  10.114  1.00  0.00     0.009 A 
HETATM   19  C   UNL     1      45.870 -12.148   9.204  1.00  0.00     0.025 A 
ENDBRANCH  12  15
ENDBRANCH   7  11
ENDBRANCH   2   5
BRANCH   1  20
HETATM   20  C   UNL     1      40.211 -16.165   2.342  1.00  0.00     0.198 C 
BRANCH  20  21
HETATM   21  C   UNL     1      39.726 -14.759   1.837  1.00  0.00     0.227 C 
BRANCH  21  22
HETATM   22  O   UNL     1      38.329 -14.746   1.479  1.00  0.00    -0.349 OA
BRANCH  22  23
HETATM   23  C   UNL     1      37.970 -14.008   0.317  1.00  0.00     0.167 C 
HETATM   24  C   UNL     1      37.221 -12.765   0.758  1.00  0.00     0.033 C 
ENDBRANCH  22  23
ENDBRANCH  21  22
BRANCH  21  25
HETATM   25  O   UNL     1      40.500 -14.404   0.661  1.00  0.00    -0.349 OA
BRANCH  25  26
HETATM   26  C   UNL     1      41.170 -15.494   0.036  1.00  0.00     0.167 C 
HETATM   27  C   UNL     1      41.020 -15.336  -1.465  1.00  0.00     0.033 C 
ENDBRANCH  25  26
ENDBRANCH  21  25
BRANCH  21  28
HETATM   28  C   UNL     1      40.076 -13.635   2.847  1.00  0.00     0.097 A 
HETATM   29  N   UNL     1      39.697 -13.775   4.149  1.00  0.00    -0.260 NA
HETATM   30  C   UNL     1      39.981 -12.777   5.012  1.00  0.00     0.117 A 
HETATM   31  C   UNL     1      40.661 -11.627   4.658  1.00  0.00     0.019 A 
HETATM   32  C   UNL     1      41.059 -11.484   3.337  1.00  0.00     0.004 A 
HETATM   33  C   UNL     1      40.757 -12.488   2.419  1.00  0.00     0.033 A 
ENDBRANCH  21  28
ENDBRANCH  20  21
ENDBRANCH   1  20
TORSDOF 10
ENDMDL
MODEL 9
REMARK VINA RESULT:      -7.0      3.296      7.693
REMARK  10 active torsions:
REMARK  status: ('A' for Active; 'I' for Inactive)
REMARK    1  A    between atoms: C_2  and  O_3 
REMARK    2  A    between atoms: O_3  and  C_4 
REMARK    3  A    between atoms: C_4  and  O_5 
REMARK    4  A    between atoms: C_4  and  C_8 
REMARK    5  A    between atoms: C_4  and  C_14 
REMARK    6  A    between atoms: O_5  and  C_6 
REMARK    7  A    between atoms: C_14  and  N_15 
REMARK       I    between atoms: N_15  and  C_16 
REMARK    8  A    between atoms: C_16  and  C_17 
REMARK    9  A    between atoms: C_19  and  N_20 
REMARK       I    between atoms: N_20  and  C_21 
REMARK   10  A    between atoms: C_21  and  C_22 
ROOT
HETATM    1  N   UNL     1      41.408 -13.669   2.295  1.00  0.00    -0.351 N 
HETATM    2  C   UNL     1      40.676 -13.737   3.460  1.00  0.00     0.251 C 
HETATM    3  O   UNL     1      39.908 -12.861   3.832  1.00  0.00    -0.268 OA
HETATM    4  H   UNL     1      41.850 -14.509   1.938  1.00  0.00     0.162 HD
ENDROOT
BRANCH   2   5
HETATM    5  C   UNL     1      40.858 -14.980   4.258  1.00  0.00     0.034 A 
HETATM    6  C   UNL     1      41.498 -16.097   3.702  1.00  0.00     0.046 A 
HETATM    7  C   UNL     1      41.652 -17.270   4.441  1.00  0.00     0.035 A 
HETATM    8  C   UNL     1      41.178 -17.303   5.758  1.00  0.00     0.029 A 
HETATM    9  C   UNL     1      40.568 -16.182   6.327  1.00  0.00     0.003 A 
HETATM   10  C   UNL     1      40.410 -15.016   5.579  1.00  0.00     0.017 A 
BRANCH   7  11
HETATM   11  N   UNL     1      42.255 -18.439   3.932  1.00  0.00    -0.322 N 
HETATM   12  C   UNL     1      43.591 -18.808   3.992  1.00  0.00     0.263 C 
HETATM   13  O   UNL     1      44.461 -18.160   4.567  1.00  0.00    -0.267 OA
HETATM   14  H   UNL     1      41.646 -19.091   3.452  1.00  0.00     0.169 HD
BRANCH  12  15
HETATM   15  C   UNL     1      43.917 -20.059   3.308  1.00  0.00     0.072 A 
HETATM   16  S   UNL     1      44.831 -21.309   4.046  1.00  0.00    -0.097 SA
HETATM   17  C   UNL     1      44.711 -22.309   2.665  1.00  0.00     0.050 A 
HETATM   18  C   UNL     1      43.998 -21.710   1.653  1.00  0.00     0.009 A 
HETATM   19  C   UNL     1      43.540 -20.413   2.024  1.00  0.00     0.025 A 
ENDBRANCH  12  15
ENDBRANCH   7  11
ENDBRANCH   2   5
BRANCH   1  20
HETATM   20  C   UNL     1      41.390 -12.480   1.449  1.00  0.00     0.198 C 
BRANCH  20  21
HETATM   21  C   UNL     1      41.246 -12.726  -0.095  1.00  0.00     0.227 C 
BRANCH  21  22
HETATM   22  O   UNL     1      39.874 -12.890  -0.508  1.00  0.00    -0.349 OA
BRANCH  22  23
HETATM   23  C   UNL     1      38.876 -12.355   0.352  1.00  0.00     0.167 C 
HETATM   24  C   UNL     1      37.887 -13.459   0.675  1.00  0.00     0.033 C 
ENDBRANCH  22  23
ENDBRANCH  21  22
BRANCH  21  25
HETATM   25  O   UNL     1      41.971 -13.937  -0.435  1.00  0.00    -0.349 OA
BRANCH  25  26
HETATM   26  C   UNL     1      41.169 -14.977  -0.983  1.00  0.00     0.167 C 
HETATM   27  C   UNL     1      41.357 -16.213  -0.124  1.00  0.00     0.033 C 
ENDBRANCH  25  26
ENDBRANCH  21  25
BRANCH  21  28
HETATM   28  C   UNL     1      41.973 -11.632  -0.920  1.00  0.00     0.097 A 
HETATM   29  N   UNL     1      43.016 -10.960  -0.353  1.00  0.00    -0.260 NA
HETATM   30  C   UNL     1      43.621  -9.990  -1.071  1.00  0.00     0.117 A 
HETATM   31  C   UNL     1      43.262  -9.653  -2.362  1.00  0.00     0.019 A 
HETATM   32  C   UNL     1      42.209 -10.341  -2.947  1.00  0.00     0.004 A 
HETATM   33  C   UNL     1      41.550 -11.330  -2.220  1.00  0.00     0.033 A 
ENDBRANCH  21  28
ENDBRANCH  20  21
ENDBRANCH   1  20
TORSDOF 10
ENDMDL
MODEL 10
REMARK VINA RESULT:      -7.0      2.882      8.428
REMARK  10 active torsions:
REMARK  status: ('A' for Active; 'I' for Inactive)
REMARK    1  A    between atoms: C_2  and  O_3 
REMARK    2  A    between atoms: O_3  and  C_4 
REMARK    3  A    between atoms: C_4  and  O_5 
REMARK    4  A    between atoms: C_4  and  C_8 
REMARK    5  A    between atoms: C_4  and  C_14 
REMARK    6  A    between atoms: O_5  and  C_6 
REMARK    7  A    between atoms: C_14  and  N_15 
REMARK       I    between atoms: N_15  and  C_16 
REMARK    8  A    between atoms: C_16  and  C_17 
REMARK    9  A    between atoms: C_19  and  N_20 
REMARK       I    between atoms: N_20  and  C_21 
REMARK   10  A    between atoms: C_21  and  C_22 
ROOT
HETATM    1  N   UNL     1      38.969 -14.095  -0.333  1.00  0.00    -0.351 N 
HETATM    2  C   UNL     1      38.371 -14.422   0.864  1.00  0.00     0.251 C 
HETATM    3  O   UNL     1      37.160 -14.506   1.017  1.00  0.00    -0.268 OA
HETATM    4  H   UNL     1      39.964 -14.256  -0.450  1.00  0.00     0.162 HD
ENDROOT
BRANCH   2   5
HETATM    5  C   UNL     1      39.302 -14.695   1.991  1.00  0.00     0.034 A 
HETATM    6  C   UNL     1      40.098 -15.851   1.995  1.00  0.00     0.046 A 
HETATM    7  C   UNL     1      40.957 -16.120   3.060  1.00  0.00     0.035 A 
HETATM    8  C   UNL     1      41.030 -15.202   4.115  1.00  0.00     0.029 A 
HETATM    9  C   UNL     1      40.263 -14.033   4.101  1.00  0.00     0.003 A 
HETATM   10  C   UNL     1      39.400 -13.776   3.036  1.00  0.00     0.017 A 
BRANCH   7  11
HETATM   11  N   UNL     1      41.756 -17.278   3.143  1.00  0.00    -0.322 N 
HETATM   12  C   UNL     1      43.069 -17.443   2.724  1.00  0.00     0.263 C 
HETATM   13  O   UNL     1      43.760 -16.546   2.247  1.00  0.00    -0.267 OA
HETATM   14  H   UNL     1      41.325 -18.100   3.548  1.00  0.00     0.169 HD
BRANCH  12  15
HETATM   15  C   UNL     1      43.605 -18.794   2.888  1.00  0.00     0.072 A 
HETATM   16  S   UNL     1      44.296 -19.346   4.358  1.00  0.00    -0.097 SA
HETATM   17  C   UNL     1      44.598 -20.901   3.716  1.00  0.00     0.050 A 
HETATM   18  C   UNL     1      44.192 -21.006   2.406  1.00  0.00     0.009 A 
HETATM   19  C   UNL     1      43.619 -19.793   1.929  1.00  0.00     0.025 A 
ENDBRANCH  12  15
ENDBRANCH   7  11
ENDBRANCH   2   5
BRANCH   1  20
HETATM   20  C   UNL     1      38.183 -13.728  -1.506  1.00  0.00     0.198 C 
BRANCH  20  21
HETATM   21  C   UNL     1      38.970 -13.076  -2.697  1.00  0.00     0.227 C 
BRANCH  21  22
HETATM   22  O   UNL     1      38.248 -11.993  -3.317  1.00  0.00    -0.349 OA
BRANCH  22  23
HETATM   23  C   UNL     1      36.875 -11.855  -2.971  1.00  0.00     0.167 C 
HETATM   24  C   UNL     1      36.042 -12.202  -4.190  1.00  0.00     0.033 C 
ENDBRANCH  22  23
ENDBRANCH  21  22
BRANCH  21  25
HETATM   25  O   UNL     1      39.210 -14.097  -3.701  1.00  0.00    -0.349 OA
BRANCH  25  26
HETATM   26  C   UNL     1      38.286 -15.180  -3.682  1.00  0.00     0.167 C 
HETATM   27  C   UNL     1      38.978 -16.393  -4.274  1.00  0.00     0.033 C 
ENDBRANCH  25  26
ENDBRANCH  21  25
BRANCH  21  28
HETATM   28  C   UNL     1      40.401 -12.650  -2.273  1.00  0.00     0.097 A 
HETATM   29  N   UNL     1      40.548 -11.708  -1.297  1.00  0.00    -0.260 NA
HETATM   30  C   UNL     1      41.797 -11.324  -0.958  1.00  0.00     0.117 A 
HETATM   31  C   UNL     1      42.942 -11.850  -1.525  1.00  0.00     0.019 A 
HETATM   32  C   UNL     1      42.798 -12.816  -2.510  1.00  0.00     0.004 A 
HETATM   33  C   UNL     1      41.520 -13.214  -2.898  1.00  0.00     0.033 A 
ENDBRANCH  21  28
ENDBRANCH  20  21
ENDBRANCH   1  20
TORSDOF 10
ENDMDL
