MODEL 1
REMARK VINA RESULT:      -7.1      0.000      0.000
REMARK  6 active torsions:
REMARK  status: ('A' for Active; 'I' for Inactive)
REMARK    1  A    between atoms: N_4  and  C_5 
REMARK    2  A    between atoms: C_5  and  C_6 
REMARK    3  A    between atoms: C_6  and  C_7 
REMARK    4  A    between atoms: C_7  and  N_8 
REMARK       I    between atoms: N_8  and  C_9 
REMARK       I    between atoms: C_9  and  N_10 
REMARK    5  A    between atoms: N_10  and  C_11 
REMARK    6  A    between atoms: C_12  and  O_13 
ROOT
HETATM    1  N   UNL     1      43.408 -16.529   2.712  1.00  0.00    -0.343 N 
HETATM    2  C   UNL     1      43.186 -17.813   3.161  1.00  0.00     0.320 C 
HETATM    3  N   UNL     1      44.341 -18.346   3.698  1.00  0.00    -0.306 N 
HETATM    4  O   UNL     1      42.119 -18.396   3.020  1.00  0.00    -0.247 OA
HETATM    5  H   UNL     1      44.075 -15.989   3.254  1.00  0.00     0.164 HD
HETATM    6  H   UNL     1      45.154 -18.117   3.145  1.00  0.00     0.171 HD
ENDROOT
BRANCH   1   7
HETATM    7  C   UNL     1      42.366 -15.772   2.051  1.00  0.00     0.126 C 
BRANCH   7   8
HETATM    8  C   UNL     1      41.965 -14.483   2.771  1.00  0.00     0.041 C 
BRANCH   8   9
HETATM    9  C   UNL     1      41.236 -14.695   4.094  1.00  0.00     0.152 C 
BRANCH   9  10
HETATM   10  N   UNL     1      42.129 -14.999   5.198  1.00  0.00    -0.272 N 
HETATM   11  N   UNL     1      43.202 -14.204   5.402  1.00  0.00    -0.176 NA
HETATM   12  C   UNL     1      43.830 -14.768   6.442  1.00  0.00     0.074 A 
HETATM   13  C   UNL     1      45.096 -14.192   6.958  1.00  0.00     0.074 C 
HETATM   14  C   UNL     1      43.135 -15.905   6.912  1.00  0.00     0.083 A 
HETATM   15  C   UNL     1      42.032 -16.032   6.097  1.00  0.00     0.050 A 
HETATM   16 CL   UNL     1      43.596 -16.896   8.210  1.00  0.00    -0.080 Cl
HETATM   17  C   UNL     1      40.937 -17.033   6.087  1.00  0.00     0.072 C 
ENDBRANCH   9  10
ENDBRANCH   8   9
ENDBRANCH   7   8
ENDBRANCH   1   7
BRANCH   3  18
HETATM   18  C   UNL     1      44.353 -19.582   4.386  1.00  0.00     0.071 A 
HETATM   19  C   UNL     1      44.691 -20.797   3.750  1.00  0.00     0.095 A 
HETATM   20  C   UNL     1      44.721 -21.976   4.505  1.00  0.00     0.041 A 
HETATM   21  C   UNL     1      44.395 -21.954   5.864  1.00  0.00     0.026 A 
HETATM   22  C   UNL     1      44.015 -20.759   6.468  1.00  0.00     0.036 A 
HETATM   23 CL   UNL     1      43.596 -20.744   8.137  1.00  0.00    -0.084 Cl
HETATM   24  C   UNL     1      43.978 -19.576   5.734  1.00  0.00     0.056 A 
BRANCH  19  25
HETATM   25  O   UNL     1      44.878 -20.752   2.392  1.00  0.00    -0.354 OA
HETATM   26  C   UNL     1      44.113 -21.643   1.593  1.00  0.00     0.210 C 
ENDBRANCH  19  25
ENDBRANCH   3  18
TORSDOF 6
ENDMDL
MODEL 2
REMARK VINA RESULT:      -7.0      3.094      6.948
REMARK  6 active torsions:
REMARK  status: ('A' for Active; 'I' for Inactive)
REMARK    1  A    between atoms: N_4  and  C_5 
REMARK    2  A    between atoms: C_5  and  C_6 
REMARK    3  A    between atoms: C_6  and  C_7 
REMARK    4  A    between atoms: C_7  and  N_8 
REMARK       I    between atoms: N_8  and  C_9 
REMARK       I    between atoms: C_9  and  N_10 
REMARK    5  A    between atoms: N_10  and  C_11 
REMARK    6  A    between atoms: C_12  and  O_13 
ROOT
HETATM    1  N   UNL     1      42.210 -17.333   6.401  1.00  0.00    -0.343 N 
HETATM    2  C   UNL     1      42.194 -16.456   5.338  1.00  0.00     0.320 C 
HETATM    3  N   UNL     1      41.050 -16.630   4.584  1.00  0.00    -0.306 N 
HETATM    4  O   UNL     1      43.117 -15.692   5.086  1.00  0.00    -0.247 OA
HETATM    5  H   UNL     1      41.303 -17.549   6.800  1.00  0.00     0.164 HD
HETATM    6  H   UNL     1      40.826 -17.607   4.461  1.00  0.00     0.171 HD
ENDROOT
BRANCH   1   7
HETATM    7  C   UNL     1      43.335 -17.391   7.311  1.00  0.00     0.126 C 
BRANCH   7   8
HETATM    8  C   UNL     1      44.533 -18.187   6.788  1.00  0.00     0.041 C 
BRANCH   8   9
HETATM    9  C   UNL     1      44.229 -19.642   6.446  1.00  0.00     0.152 C 
BRANCH   9  10
HETATM   10  N   UNL     1      44.273 -19.918   5.021  1.00  0.00    -0.272 N 
HETATM   11  N   UNL     1      43.927 -18.937   4.160  1.00  0.00    -0.176 NA
HETATM   12  C   UNL     1      44.028 -19.514   2.954  1.00  0.00     0.074 A 
HETATM   13  C   UNL     1      43.694 -18.752   1.726  1.00  0.00     0.074 C 
HETATM   14  C   UNL     1      44.465 -20.854   3.057  1.00  0.00     0.083 A 
HETATM   15  C   UNL     1      44.626 -21.093   4.404  1.00  0.00     0.050 A 
HETATM   16 CL   UNL     1      44.721 -21.926   1.767  1.00  0.00    -0.080 Cl
HETATM   17  C   UNL     1      45.054 -22.311   5.134  1.00  0.00     0.072 C 
ENDBRANCH   9  10
ENDBRANCH   8   9
ENDBRANCH   7   8
ENDBRANCH   1   7
BRANCH   3  18
HETATM   18  C   UNL     1      40.696 -15.747   3.536  1.00  0.00     0.071 A 
HETATM   19  C   UNL     1      39.997 -14.542   3.767  1.00  0.00     0.095 A 
HETATM   20  C   UNL     1      39.717 -13.698   2.685  1.00  0.00     0.041 A 
HETATM   21  C   UNL     1      40.102 -14.058   1.390  1.00  0.00     0.026 A 
HETATM   22  C   UNL     1      40.746 -15.271   1.169  1.00  0.00     0.036 A 
HETATM   23 CL   UNL     1      41.199 -15.715  -0.432  1.00  0.00    -0.084 Cl
HETATM   24  C   UNL     1      41.032 -16.125   2.231  1.00  0.00     0.056 A 
BRANCH  19  25
HETATM   25  O   UNL     1      39.549 -14.323   5.045  1.00  0.00    -0.354 OA
HETATM   26  C   UNL     1      40.192 -13.309   5.803  1.00  0.00     0.210 C 
ENDBRANCH  19  25
ENDBRANCH   3  18
TORSDOF 6
ENDMDL
MODEL 3
REMARK VINA RESULT:      -6.9      2.297      3.170
REMARK  6 active torsions:
REMARK  status: ('A' for Active; 'I' for Inactive)
REMARK    1  A    between atoms: N_4  and  C_5 
REMARK    2  A    between atoms: C_5  and  C_6 
REMARK    3  A    between atoms: C_6  and  C_7 
REMARK    4  A    between atoms: C_7  and  N_8 
REMARK       I    between atoms: N_8  and  C_9 
REMARK       I    between atoms: C_9  and  N_10 
REMARK    5  A    between atoms: N_10  and  C_11 
REMARK    6  A    between atoms: C_12  and  O_13 
ROOT
HETATM    1  N   UNL     1      42.524 -16.456   0.135  1.00  0.00    -0.343 N 
HETATM    2  C   UNL     1      42.471 -17.288   1.232  1.00  0.00     0.320 C 
HETATM    3  N   UNL     1      43.744 -17.651   1.628  1.00  0.00    -0.306 N 
HETATM    4  O   UNL     1      41.421 -17.689   1.720  1.00  0.00    -0.247 OA
HETATM    5  H   UNL     1      43.321 -15.829   0.104  1.00  0.00     0.164 HD
HETATM    6  H   UNL     1      44.337 -17.861   0.838  1.00  0.00     0.171 HD
ENDROOT
BRANCH   1   7
HETATM    7  C   UNL     1      41.317 -15.983  -0.508  1.00  0.00     0.126 C 
BRANCH   7   8
HETATM    8  C   UNL     1      41.379 -14.530  -0.982  1.00  0.00     0.041 C 
BRANCH   8   9
HETATM    9  C   UNL     1      40.869 -13.509   0.031  1.00  0.00     0.152 C 
BRANCH   9  10
HETATM   10  N   UNL     1      41.248 -13.820   1.398  1.00  0.00    -0.272 N 
HETATM   11  N   UNL     1      42.511 -13.557   1.796  1.00  0.00    -0.176 NA
HETATM   12  C   UNL     1      42.548 -13.991   3.064  1.00  0.00     0.074 A 
HETATM   13  C   UNL     1      43.801 -13.902   3.852  1.00  0.00     0.074 C 
HETATM   14  C   UNL     1      41.296 -14.503   3.472  1.00  0.00     0.083 A 
HETATM   15  C   UNL     1      40.465 -14.375   2.380  1.00  0.00     0.050 A 
HETATM   16 CL   UNL     1      40.926 -15.145   4.998  1.00  0.00    -0.080 Cl
HETATM   17  C   UNL     1      39.041 -14.743   2.190  1.00  0.00     0.072 C 
ENDBRANCH   9  10
ENDBRANCH   8   9
ENDBRANCH   7   8
ENDBRANCH   1   7
BRANCH   3  18
HETATM   18  C   UNL     1      43.988 -18.359   2.828  1.00  0.00     0.071 A 
HETATM   19  C   UNL     1      44.181 -19.757   2.855  1.00  0.00     0.095 A 
HETATM   20  C   UNL     1      44.459 -20.384   4.076  1.00  0.00     0.041 A 
HETATM   21  C   UNL     1      44.518 -19.638   5.257  1.00  0.00     0.026 A 
HETATM   22  C   UNL     1      44.277 -18.268   5.225  1.00  0.00     0.036 A 
HETATM   23 CL   UNL     1      44.333 -17.358   6.685  1.00  0.00    -0.084 Cl
HETATM   24  C   UNL     1      43.998 -17.626   4.021  1.00  0.00     0.056 A 
BRANCH  19  25
HETATM   25  O   UNL     1      43.985 -20.431   1.676  1.00  0.00    -0.354 OA
HETATM   26  C   UNL     1      44.007 -21.850   1.717  1.00  0.00     0.210 C 
ENDBRANCH  19  25
ENDBRANCH   3  18
TORSDOF 6
ENDMDL
MODEL 4
REMARK VINA RESULT:      -6.9      2.891      6.769
REMARK  6 active torsions:
REMARK  status: ('A' for Active; 'I' for Inactive)
REMARK    1  A    between atoms: N_4  and  C_5 
REMARK    2  A    between atoms: C_5  and  C_6 
REMARK    3  A    between atoms: C_6  and  C_7 
REMARK    4  A    between atoms: C_7  and  N_8 
REMARK       I    between atoms: N_8  and  C_9 
REMARK       I    between atoms: C_9  and  N_10 
REMARK    5  A    between atoms: N_10  and  C_11 
REMARK    6  A    between atoms: C_12  and  O_13 
ROOT
HETATM    1  N   UNL     1      42.472 -17.145   6.992  1.00  0.00    -0.343 N 
HETATM    2  C   UNL     1      42.319 -16.074   6.138  1.00  0.00     0.320 C 
HETATM    3  N   UNL     1      41.083 -16.118   5.523  1.00  0.00    -0.306 N 
HETATM    4  O   UNL     1      43.204 -15.256   5.924  1.00  0.00    -0.247 OA
HETATM    5  H   UNL     1      41.625 -17.454   7.457  1.00  0.00     0.164 HD
HETATM    6  H   UNL     1      40.838 -17.055   5.238  1.00  0.00     0.171 HD
ENDROOT
BRANCH   1   7
HETATM    7  C   UNL     1      43.708 -17.359   7.715  1.00  0.00     0.126 C 
BRANCH   7   8
HETATM    8  C   UNL     1      44.729 -18.231   6.980  1.00  0.00     0.041 C 
BRANCH   8   9
HETATM    9  C   UNL     1      44.212 -19.607   6.572  1.00  0.00     0.152 C 
BRANCH   9  10
HETATM   10  N   UNL     1      44.263 -19.838   5.139  1.00  0.00    -0.272 N 
HETATM   11  N   UNL     1      43.954 -18.820   4.307  1.00  0.00    -0.176 NA
HETATM   12  C   UNL     1      44.051 -19.360   3.085  1.00  0.00     0.074 A 
HETATM   13  C   UNL     1      43.750 -18.551   1.879  1.00  0.00     0.074 C 
HETATM   14  C   UNL     1      44.449 -20.715   3.148  1.00  0.00     0.083 A 
HETATM   15  C   UNL     1      44.589 -21.002   4.488  1.00  0.00     0.050 A 
HETATM   16 CL   UNL     1      44.688 -21.752   1.826  1.00  0.00    -0.080 Cl
HETATM   17  C   UNL     1      44.975 -22.254   5.182  1.00  0.00     0.072 C 
ENDBRANCH   9  10
ENDBRANCH   8   9
ENDBRANCH   7   8
ENDBRANCH   1   7
BRANCH   3  18
HETATM   18  C   UNL     1      40.597 -15.052   4.729  1.00  0.00     0.071 A 
HETATM   19  C   UNL     1      40.566 -15.113   3.319  1.00  0.00     0.095 A 
HETATM   20  C   UNL     1      40.033 -14.036   2.601  1.00  0.00     0.041 A 
HETATM   21  C   UNL     1      39.562 -12.904   3.272  1.00  0.00     0.026 A 
HETATM   22  C   UNL     1      39.643 -12.835   4.659  1.00  0.00     0.036 A 
HETATM   23 CL   UNL     1      39.079 -11.429   5.477  1.00  0.00    -0.084 Cl
HETATM   24  C   UNL     1      40.171 -13.895   5.391  1.00  0.00     0.056 A 
BRANCH  19  25
HETATM   25  O   UNL     1      41.159 -16.204   2.735  1.00  0.00    -0.354 OA
HETATM   26  C   UNL     1      40.346 -17.039   1.923  1.00  0.00     0.210 C 
ENDBRANCH  19  25
ENDBRANCH   3  18
TORSDOF 6
ENDMDL
MODEL 5
REMARK VINA RESULT:      -6.9      4.262      7.770
REMARK  6 active torsions:
REMARK  status: ('A' for Active; 'I' for Inactive)
REMARK    1  A    between atoms: N_4  and  C_5 
REMARK    2  A    between atoms: C_5  and  C_6 
REMARK    3  A    between atoms: C_6  and  C_7 
REMARK    4  A    between atoms: C_7  and  N_8 
REMARK       I    between atoms: N_8  and  C_9 
REMARK       I    between atoms: C_9  and  N_10 
REMARK    5  A    between atoms: N_10  and  C_11 
REMARK    6  A    between atoms: C_12  and  O_13 
ROOT
HETATM    1  N   UNL     1      40.585 -16.643   1.600  1.00  0.00    -0.343 N 
HETATM    2  C   UNL     1      41.278 -16.142   0.520  1.00  0.00     0.320 C 
HETATM    3  N   UNL     1      40.517 -15.207  -0.154  1.00  0.00    -0.306 N 
HETATM    4  O   UNL     1      42.386 -16.546   0.189  1.00  0.00    -0.247 OA
HETATM    5  H   UNL     1      39.967 -15.984   2.062  1.00  0.00     0.164 HD
HETATM    6  H   UNL     1      39.554 -15.497  -0.238  1.00  0.00     0.171 HD
ENDROOT
BRANCH   1   7
HETATM    7  C   UNL     1      41.144 -17.684   2.436  1.00  0.00     0.126 C 
BRANCH   7   8
HETATM    8  C   UNL     1      42.077 -17.179   3.539  1.00  0.00     0.041 C 
BRANCH   8   9
HETATM    9  C   UNL     1      43.562 -17.389   3.260  1.00  0.00     0.152 C 
BRANCH   9  10
HETATM   10  N   UNL     1      43.978 -18.775   3.378  1.00  0.00    -0.272 N 
HETATM   11  N   UNL     1      43.915 -19.566   2.285  1.00  0.00    -0.176 NA
HETATM   12  C   UNL     1      44.315 -20.765   2.730  1.00  0.00     0.074 A 
HETATM   13  C   UNL     1      44.354 -21.931   1.814  1.00  0.00     0.074 C 
HETATM   14  C   UNL     1      44.655 -20.722   4.101  1.00  0.00     0.083 A 
HETATM   15  C   UNL     1      44.437 -19.421   4.499  1.00  0.00     0.050 A 
HETATM   16 CL   UNL     1      45.207 -22.024   5.038  1.00  0.00    -0.080 Cl
HETATM   17  C   UNL     1      44.604 -18.764   5.818  1.00  0.00     0.072 C 
ENDBRANCH   9  10
ENDBRANCH   8   9
ENDBRANCH   7   8
ENDBRANCH   1   7
BRANCH   3  18
HETATM   18  C   UNL     1      41.048 -14.413  -1.198  1.00  0.00     0.071 A 
HETATM   19  C   UNL     1      40.857 -14.730  -2.561  1.00  0.00     0.095 A 
HETATM   20  C   UNL     1      41.378 -13.874  -3.539  1.00  0.00     0.041 A 
HETATM   21  C   UNL     1      42.099 -12.735  -3.171  1.00  0.00     0.026 A 
HETATM   22  C   UNL     1      42.323 -12.460  -1.825  1.00  0.00     0.036 A 
HETATM   23 CL   UNL     1      43.229 -11.066  -1.380  1.00  0.00    -0.084 Cl
HETATM   24  C   UNL     1      41.815 -13.300  -0.837  1.00  0.00     0.056 A 
BRANCH  19  25
HETATM   25  O   UNL     1      40.246 -15.927  -2.837  1.00  0.00    -0.354 OA
HETATM   26  C   UNL     1      39.324 -15.961  -3.916  1.00  0.00     0.210 C 
ENDBRANCH  19  25
ENDBRANCH   3  18
TORSDOF 6
ENDMDL
MODEL 6
REMARK VINA RESULT:      -6.9      4.999      7.090
REMARK  6 active torsions:
REMARK  status: ('A' for Active; 'I' for Inactive)
REMARK    1  A    between atoms: N_4  and  C_5 
REMARK    2  A    between atoms: C_5  and  C_6 
REMARK    3  A    between atoms: C_6  and  C_7 
REMARK    4  A    between atoms: C_7  and  N_8 
REMARK       I    between atoms: N_8  and  C_9 
REMARK       I    between atoms: C_9  and  N_10 
REMARK    5  A    between atoms: N_10  and  C_11 
REMARK    6  A    between atoms: C_12  and  O_13 
ROOT
HETATM    1  N   UNL     1      44.845 -12.818   8.645  1.00  0.00    -0.343 N 
HETATM    2  C   UNL     1      44.936 -13.656   7.555  1.00  0.00     0.320 C 
HETATM    3  N   UNL     1      43.948 -14.621   7.601  1.00  0.00    -0.306 N 
HETATM    4  O   UNL     1      45.827 -13.573   6.719  1.00  0.00    -0.247 OA
HETATM    5  H   UNL     1      43.904 -12.641   8.979  1.00  0.00     0.164 HD
HETATM    6  H   UNL     1      43.822 -14.985   8.534  1.00  0.00     0.171 HD
ENDROOT
BRANCH   1   7
HETATM    7  C   UNL     1      45.806 -11.758   8.860  1.00  0.00     0.126 C 
BRANCH   7   8
HETATM    8  C   UNL     1      45.389 -10.728   9.912  1.00  0.00     0.041 C 
BRANCH   8   9
HETATM    9  C   UNL     1      44.656 -11.311  11.116  1.00  0.00     0.152 C 
BRANCH   9  10
HETATM   10  N   UNL     1      43.267 -10.893  11.200  1.00  0.00    -0.272 N 
HETATM   11  N   UNL     1      42.420 -11.257  10.213  1.00  0.00    -0.176 NA
HETATM   12  C   UNL     1      41.257 -10.689  10.558  1.00  0.00     0.074 A 
HETATM   13  C   UNL     1      40.063 -10.835   9.691  1.00  0.00     0.074 C 
HETATM   14  C   UNL     1      41.367  -9.987  11.780  1.00  0.00     0.083 A 
HETATM   15  C   UNL     1      42.676 -10.139  12.182  1.00  0.00     0.050 A 
HETATM   16 CL   UNL     1      40.125  -9.134  12.561  1.00  0.00    -0.080 Cl
HETATM   17  C   UNL     1      43.395  -9.628  13.375  1.00  0.00     0.072 C 
ENDBRANCH   9  10
ENDBRANCH   8   9
ENDBRANCH   7   8
ENDBRANCH   1   7
BRANCH   3  18
HETATM   18  C   UNL     1      43.704 -15.503   6.522  1.00  0.00     0.071 A 
HETATM   19  C   UNL     1      42.879 -15.152   5.431  1.00  0.00     0.095 A 
HETATM   20  C   UNL     1      42.716 -16.062   4.379  1.00  0.00     0.041 A 
HETATM   21  C   UNL     1      43.343 -17.311   4.421  1.00  0.00     0.026 A 
HETATM   22  C   UNL     1      44.114 -17.664   5.524  1.00  0.00     0.036 A 
HETATM   23 CL   UNL     1      44.867 -19.211   5.577  1.00  0.00    -0.084 Cl
HETATM   24  C   UNL     1      44.287 -16.774   6.581  1.00  0.00     0.056 A 
BRANCH  19  25
HETATM   25  O   UNL     1      42.204 -13.961   5.525  1.00  0.00    -0.354 OA
HETATM   26  C   UNL     1      40.791 -14.014   5.662  1.00  0.00     0.210 C 
ENDBRANCH  19  25
ENDBRANCH   3  18
TORSDOF 6
ENDMDL
MODEL 7
REMARK VINA RESULT:      -6.8      3.793      5.395
REMARK  6 active torsions:
REMARK  status: ('A' for Active; 'I' for Inactive)
REMARK    1  A    between atoms: N_4  and  C_5 
REMARK    2  A    between atoms: C_5  and  C_6 
REMARK    3  A    between atoms: C_6  and  C_7 
REMARK    4  A    between atoms: C_7  and  N_8 
REMARK       I    between atoms: N_8  and  C_9 
REMARK       I    between atoms: C_9  and  N_10 
REMARK    5  A    between atoms: N_10  and  C_11 
REMARK    6  A    between atoms: C_12  and  O_13 
ROOT
HETATM    1  N   UNL     1      42.233 -15.683   4.166  1.00  0.00    -0.343 N 
HETATM    2  C   UNL     1      42.330 -17.057   4.203  1.00  0.00     0.320 C 
HETATM    3  N   UNL     1      43.573 -17.468   3.763  1.00  0.00    -0.306 N 
HETATM    4  O   UNL     1      41.398 -17.786   4.519  1.00  0.00    -0.247 OA
HETATM    5  H   UNL     1      43.093 -15.182   4.366  1.00  0.00     0.164 HD
HETATM    6  H   UNL     1      43.879 -16.943   2.957  1.00  0.00     0.171 HD
ENDROOT
BRANCH   1   7
HETATM    7  C   UNL     1      41.005 -15.005   4.523  1.00  0.00     0.126 C 
BRANCH   7   8
HETATM    8  C   UNL     1      40.286 -14.337   3.349  1.00  0.00     0.041 C 
BRANCH   8   9
HETATM    9  C   UNL     1      39.676 -15.307   2.343  1.00  0.00     0.152 C 
BRANCH   9  10
HETATM   10  N   UNL     1      39.851 -14.889   0.963  1.00  0.00    -0.272 N 
HETATM   11  N   UNL     1      38.990 -13.987   0.444  1.00  0.00    -0.176 NA
HETATM   12  C   UNL     1      39.389 -13.853  -0.828  1.00  0.00     0.074 A 
HETATM   13  C   UNL     1      38.659 -12.953  -1.753  1.00  0.00     0.074 C 
HETATM   14  C   UNL     1      40.521 -14.653  -1.103  1.00  0.00     0.083 A 
HETATM   15  C   UNL     1      40.809 -15.310   0.074  1.00  0.00     0.050 A 
HETATM   16 CL   UNL     1      41.331 -14.766  -2.589  1.00  0.00    -0.080 Cl
HETATM   17  C   UNL     1      41.873 -16.288   0.410  1.00  0.00     0.072 C 
ENDBRANCH   9  10
ENDBRANCH   8   9
ENDBRANCH   7   8
ENDBRANCH   1   7
BRANCH   3  18
HETATM   18  C   UNL     1      44.001 -18.813   3.860  1.00  0.00     0.071 A 
HETATM   19  C   UNL     1      44.547 -19.349   5.047  1.00  0.00     0.095 A 
HETATM   20  C   UNL     1      44.910 -20.701   5.081  1.00  0.00     0.041 A 
HETATM   21  C   UNL     1      44.759 -21.502   3.946  1.00  0.00     0.026 A 
HETATM   22  C   UNL     1      44.266 -20.951   2.767  1.00  0.00     0.036 A 
HETATM   23 CL   UNL     1      44.100 -21.939   1.368  1.00  0.00    -0.084 Cl
HETATM   24  C   UNL     1      43.900 -19.608   2.713  1.00  0.00     0.056 A 
BRANCH  19  25
HETATM   25  O   UNL     1      44.776 -18.468   6.074  1.00  0.00    -0.354 OA
HETATM   26  C   UNL     1      44.013 -18.629   7.261  1.00  0.00     0.210 C 
ENDBRANCH  19  25
ENDBRANCH   3  18
TORSDOF 6
ENDMDL
MODEL 8
REMARK VINA RESULT:      -6.6      5.137      7.207
REMARK  6 active torsions:
REMARK  status: ('A' for Active; 'I' for Inactive)
REMARK    1  A    between atoms: N_4  and  C_5 
REMARK    2  A    between atoms: C_5  and  C_6 
REMARK    3  A    between atoms: C_6  and  C_7 
REMARK    4  A    between atoms: C_7  and  N_8 
REMARK       I    between atoms: N_8  and  C_9 
REMARK       I    between atoms: C_9  and  N_10 
REMARK    5  A    between atoms: N_10  and  C_11 
REMARK    6  A    between atoms: C_12  and  O_13 
ROOT
HETATM    1  N   UNL     1      44.489 -12.968   8.556  1.00  0.00    -0.343 N 
HETATM    2  C   UNL     1      44.698 -13.704   7.410  1.00  0.00     0.320 C 
HETATM    3  N   UNL     1      43.593 -14.483   7.125  1.00  0.00    -0.306 N 
HETATM    4  O   UNL     1      45.756 -13.699   6.793  1.00  0.00    -0.247 OA
HETATM    5  H   UNL     1      43.534 -12.663   8.707  1.00  0.00     0.164 HD
HETATM    6  H   UNL     1      43.207 -14.906   7.957  1.00  0.00     0.171 HD
ENDROOT
BRANCH   1   7
HETATM    7  C   UNL     1      45.524 -12.115   9.100  1.00  0.00     0.126 C 
BRANCH   7   8
HETATM    8  C   UNL     1      45.331 -11.744  10.572  1.00  0.00     0.041 C 
BRANCH   8   9
HETATM    9  C   UNL     1      43.918 -11.967  11.102  1.00  0.00     0.152 C 
BRANCH   9  10
HETATM   10  N   UNL     1      43.045 -10.822  10.911  1.00  0.00    -0.272 N 
HETATM   11  N   UNL     1      42.370 -10.709   9.747  1.00  0.00    -0.176 NA
HETATM   12  C   UNL     1      41.709  -9.550   9.866  1.00  0.00     0.074 A 
HETATM   13  C   UNL     1      40.860  -9.051   8.757  1.00  0.00     0.074 C 
HETATM   14  C   UNL     1      41.948  -8.945  11.121  1.00  0.00     0.083 A 
HETATM   15  C   UNL     1      42.811  -9.789  11.785  1.00  0.00     0.050 A 
HETATM   16 CL   UNL     1      41.299  -7.475  11.664  1.00  0.00    -0.080 Cl
HETATM   17  C   UNL     1      43.428  -9.692  13.130  1.00  0.00     0.072 C 
ENDBRANCH   9  10
ENDBRANCH   8   9
ENDBRANCH   7   8
ENDBRANCH   1   7
BRANCH   3  18
HETATM   18  C   UNL     1      43.470 -15.205   5.915  1.00  0.00     0.071 A 
HETATM   19  C   UNL     1      43.723 -16.592   5.833  1.00  0.00     0.095 A 
HETATM   20  C   UNL     1      43.541 -17.247   4.609  1.00  0.00     0.041 A 
HETATM   21  C   UNL     1      43.138 -16.532   3.477  1.00  0.00     0.026 A 
HETATM   22  C   UNL     1      42.940 -15.157   3.559  1.00  0.00     0.036 A 
HETATM   23 CL   UNL     1      42.463 -14.281   2.156  1.00  0.00    -0.084 Cl
HETATM   24  C   UNL     1      43.117 -14.487   4.766  1.00  0.00     0.056 A 
BRANCH  19  25
HETATM   25  O   UNL     1      44.231 -17.194   6.956  1.00  0.00    -0.354 OA
HETATM   26  C   UNL     1      43.337 -17.949   7.760  1.00  0.00     0.210 C 
ENDBRANCH  19  25
ENDBRANCH   3  18
TORSDOF 6
ENDMDL
MODEL 9
REMARK VINA RESULT:      -6.6      3.124      4.426
REMARK  6 active torsions:
REMARK  status: ('A' for Active; 'I' for Inactive)
REMARK    1  A    between atoms: N_4  and  C_5 
REMARK    2  A    between atoms: C_5  and  C_6 
REMARK    3  A    between atoms: C_6  and  C_7 
REMARK    4  A    between atoms: C_7  and  N_8 
REMARK       I    between atoms: N_8  and  C_9 
REMARK       I    between atoms: C_9  and  N_10 
REMARK    5  A    between atoms: N_10  and  C_11 
REMARK    6  A    between atoms: C_12  and  O_13 
ROOT
HETATM    1  N   UNL     1      40.856 -16.300   0.715  1.00  0.00    -0.343 N 
HETATM    2  C   UNL     1      42.022 -16.832   1.222  1.00  0.00     0.320 C 
HETATM    3  N   UNL     1      41.743 -17.760   2.206  1.00  0.00    -0.306 N 
HETATM    4  O   UNL     1      43.135 -16.458   0.875  1.00  0.00    -0.247 OA
HETATM    5  H   UNL     1      40.068 -16.938   0.677  1.00  0.00     0.164 HD
HETATM    6  H   UNL     1      41.000 -17.451   2.815  1.00  0.00     0.171 HD
ENDROOT
BRANCH   1   7
HETATM    7  C   UNL     1      40.880 -15.259  -0.290  1.00  0.00     0.126 C 
BRANCH   7   8
HETATM    8  C   UNL     1      40.345 -13.906   0.185  1.00  0.00     0.041 C 
BRANCH   8   9
HETATM    9  C   UNL     1      39.099 -13.988   1.061  1.00  0.00     0.152 C 
BRANCH   9  10
HETATM   10  N   UNL     1      39.361 -13.698   2.460  1.00  0.00    -0.272 N 
HETATM   11  N   UNL     1      39.841 -14.684   3.248  1.00  0.00    -0.176 NA
HETATM   12  C   UNL     1      39.927 -14.118   4.459  1.00  0.00     0.074 A 
HETATM   13  C   UNL     1      40.395 -14.906   5.625  1.00  0.00     0.074 C 
HETATM   14  C   UNL     1      39.525 -12.764   4.427  1.00  0.00     0.083 A 
HETATM   15  C   UNL     1      39.169 -12.510   3.120  1.00  0.00     0.050 A 
HETATM   16 CL   UNL     1      39.489 -11.698   5.747  1.00  0.00    -0.080 Cl
HETATM   17  C   UNL     1      38.660 -11.278   2.470  1.00  0.00     0.072 C 
ENDBRANCH   9  10
ENDBRANCH   8   9
ENDBRANCH   7   8
ENDBRANCH   1   7
BRANCH   3  18
HETATM   18  C   UNL     1      42.745 -18.582   2.773  1.00  0.00     0.071 A 
HETATM   19  C   UNL     1      43.367 -18.276   4.004  1.00  0.00     0.095 A 
HETATM   20  C   UNL     1      44.322 -19.158   4.524  1.00  0.00     0.041 A 
HETATM   21  C   UNL     1      44.674 -20.314   3.820  1.00  0.00     0.026 A 
HETATM   22  C   UNL     1      44.091 -20.579   2.585  1.00  0.00     0.036 A 
HETATM   23 CL   UNL     1      44.544 -21.995   1.716  1.00  0.00    -0.084 Cl
HETATM   24  C   UNL     1      43.140 -19.714   2.051  1.00  0.00     0.056 A 
BRANCH  19  25
HETATM   25  O   UNL     1      43.056 -17.065   4.568  1.00  0.00    -0.354 OA
HETATM   26  C   UNL     1      43.668 -16.739   5.807  1.00  0.00     0.210 C 
ENDBRANCH  19  25
ENDBRANCH   3  18
TORSDOF 6
ENDMDL
MODEL 10
REMARK VINA RESULT:      -6.6      4.387      7.996
REMARK  6 active torsions:
REMARK  status: ('A' for Active; 'I' for Inactive)
REMARK    1  A    between atoms: N_4  and  C_5 
REMARK    2  A    between atoms: C_5  and  C_6 
REMARK    3  A    between atoms: C_6  and  C_7 
REMARK    4  A    between atoms: C_7  and  N_8 
REMARK       I    between atoms: N_8  and  C_9 
REMARK       I    between atoms: C_9  and  N_10 
REMARK    5  A    between atoms: N_10  and  C_11 
REMARK    6  A    between atoms: C_12  and  O_13 
ROOT
HETATM    1  N   UNL     1      40.304 -16.178   3.315  1.00  0.00    -0.343 N 
HETATM    2  C   UNL     1      40.194 -15.083   2.485  1.00  0.00     0.320 C 
HETATM    3  N   UNL     1      39.258 -15.316   1.496  1.00  0.00    -0.306 N 
HETATM    4  O   UNL     1      40.897 -14.086   2.594  1.00  0.00    -0.247 OA
HETATM    5  H   UNL     1      39.445 -16.695   3.467  1.00  0.00     0.164 HD
HETATM    6  H   UNL     1      39.331 -16.252   1.124  1.00  0.00     0.171 HD
ENDROOT
BRANCH   1   7
HETATM    7  C   UNL     1      41.264 -16.207   4.398  1.00  0.00     0.126 C 
BRANCH   7   8
HETATM    8  C   UNL     1      41.844 -17.591   4.694  1.00  0.00     0.041 C 
BRANCH   8   9
HETATM    9  C   UNL     1      43.356 -17.697   4.520  1.00  0.00     0.152 C 
BRANCH   9  10
HETATM   10  N   UNL     1      43.797 -19.022   4.123  1.00  0.00    -0.272 N 
HETATM   11  N   UNL     1      44.215 -19.880   5.078  1.00  0.00    -0.176 NA
HETATM   12  C   UNL     1      44.587 -20.970   4.395  1.00  0.00     0.074 A 
HETATM   13  C   UNL     1      45.144 -22.148   5.104  1.00  0.00     0.074 C 
HETATM   14  C   UNL     1      44.377 -20.808   3.007  1.00  0.00     0.083 A 
HETATM   15  C   UNL     1      43.857 -19.541   2.853  1.00  0.00     0.050 A 
HETATM   16 CL   UNL     1      44.716 -21.953   1.801  1.00  0.00    -0.080 Cl
HETATM   17  C   UNL     1      43.443 -18.798   1.638  1.00  0.00     0.072 C 
ENDBRANCH   9  10
ENDBRANCH   8   9
ENDBRANCH   7   8
ENDBRANCH   1   7
BRANCH   3  18
HETATM   18  C   UNL     1      38.824 -14.299   0.614  1.00  0.00     0.071 A 
HETATM   19  C   UNL     1      39.442 -14.067  -0.635  1.00  0.00     0.095 A 
HETATM   20  C   UNL     1      38.931 -13.069  -1.473  1.00  0.00     0.041 A 
HETATM   21  C   UNL     1      37.840 -12.296  -1.068  1.00  0.00     0.026 A 
HETATM   22  C   UNL     1      37.271 -12.500   0.185  1.00  0.00     0.036 A 
HETATM   23 CL   UNL     1      35.939 -11.531   0.685  1.00  0.00    -0.084 Cl
HETATM   24  C   UNL     1      37.765 -13.487   1.034  1.00  0.00     0.056 A 
BRANCH  19  25
HETATM   25  O   UNL     1      40.581 -14.784  -0.903  1.00  0.00    -0.354 OA
HETATM   26  C   UNL     1      41.426 -14.312  -1.942  1.00  0.00     0.210 C 
ENDBRANCH  19  25
ENDBRANCH   3  18
TORSDOF 6
ENDMDL
