MODEL 1
REMARK VINA RESULT:      -8.0      0.000      0.000
REMARK  7 active torsions:
REMARK  status: ('A' for Active; 'I' for Inactive)
REMARK    1  A    between atoms: N_3  and  C_4 
REMARK    2  A    between atoms: C_12  and  C_13 
REMARK       I    between atoms: C_13  and  N_14 
REMARK    3  A    between atoms: N_14  and  C_15 
REMARK    4  A    between atoms: C_15  and  C_16 
REMARK    5  A    between atoms: C_16  and  O_17 
REMARK    6  A    between atoms: C_16  and  C_18 
REMARK    7  A    between atoms: C_21  and  O_22 
ROOT
HETATM    1  C   UNL     1      44.285 -13.104   7.802  1.00  0.00     0.255 C 
HETATM    2  N   UNL     1      43.335 -13.731   7.027  1.00  0.00    -0.350 N 
HETATM    3  O   UNL     1      45.489 -13.275   7.642  1.00  0.00    -0.268 OA
HETATM    4  H   UNL     1      42.408 -13.326   7.024  1.00  0.00     0.163 HD
ENDROOT
BRANCH   2   5
HETATM    5  C   UNL     1      43.671 -14.587   5.886  1.00  0.00     0.114 C 
HETATM    6  C   UNL     1      43.847 -13.765   4.603  1.00  0.00     0.035 C 
BRANCH   5   7
HETATM    7  C   UNL     1      42.682 -15.777   5.698  1.00  0.00     0.173 C 
BRANCH   7   8
HETATM    8  O   UNL     1      41.769 -15.515   4.627  1.00  0.00    -0.389 OA
HETATM    9  H   UNL     1      40.934 -15.231   5.039  1.00  0.00     0.210 HD
ENDBRANCH   7   8
BRANCH   7  10
HETATM   10  C   UNL     1      43.418 -17.071   5.394  1.00  0.00    -0.028 A 
HETATM   11  C   UNL     1      43.079 -17.827   4.262  1.00  0.00     0.012 A 
HETATM   12  C   UNL     1      43.744 -19.024   3.982  1.00  0.00     0.037 A 
HETATM   13  C   UNL     1      44.771 -19.474   4.811  1.00  0.00     0.068 A 
HETATM   14  C   UNL     1      45.098 -18.748   5.954  1.00  0.00     0.037 A 
HETATM   15  C   UNL     1      44.425 -17.556   6.243  1.00  0.00     0.012 A 
BRANCH  13  16
HETATM   16  O   UNL     1      45.365 -20.645   4.426  1.00  0.00    -0.356 OA
HETATM   17  C   UNL     1      44.910 -21.809   5.109  1.00  0.00     0.210 C 
ENDBRANCH  13  16
ENDBRANCH   7  10
ENDBRANCH   5   7
ENDBRANCH   2   5
BRANCH   1  18
HETATM   18  C   UNL     1      43.779 -12.143   8.768  1.00  0.00     0.075 C 
HETATM   19  C   UNL     1      43.982 -12.024  10.140  1.00  0.00     0.051 C 
HETATM   20  C   UNL     1      44.887 -12.765  11.063  1.00  0.00     0.071 C 
HETATM   21  N   UNL     1      43.153 -10.984  10.570  1.00  0.00    -0.220 N 
HETATM   22  N   UNL     1      42.598 -10.330   9.510  1.00  0.00    -0.177 NA
HETATM   23  C   UNL     1      42.962 -11.041   8.447  1.00  0.00     0.158 C 
BRANCH  21  24
HETATM   24  C   UNL     1      42.832 -10.588  11.913  1.00  0.00     0.150 A 
HETATM   25  N   UNL     1      41.696 -11.063  12.493  1.00  0.00    -0.241 NA
HETATM   26  C   UNL     1      41.409 -10.636  13.743  1.00  0.00     0.119 A 
HETATM   27  C   UNL     1      42.199  -9.755  14.459  1.00  0.00     0.019 A 
HETATM   28  C   UNL     1      43.358  -9.278  13.859  1.00  0.00     0.005 A 
HETATM   29  C   UNL     1      43.681  -9.695  12.569  1.00  0.00     0.052 A 
ENDBRANCH  21  24
ENDBRANCH   1  18
TORSDOF 7
ENDMDL
MODEL 2
REMARK VINA RESULT:      -7.7      6.664     10.092
REMARK  7 active torsions:
REMARK  status: ('A' for Active; 'I' for Inactive)
REMARK    1  A    between atoms: N_3  and  C_4 
REMARK    2  A    between atoms: C_12  and  C_13 
REMARK       I    between atoms: C_13  and  N_14 
REMARK    3  A    between atoms: N_14  and  C_15 
REMARK    4  A    between atoms: C_15  and  C_16 
REMARK    5  A    between atoms: C_16  and  O_17 
REMARK    6  A    between atoms: C_16  and  C_18 
REMARK    7  A    between atoms: C_21  and  O_22 
ROOT
HETATM    1  C   UNL     1      42.204 -14.655   3.166  1.00  0.00     0.255 C 
HETATM    2  N   UNL     1      41.144 -14.577   2.291  1.00  0.00    -0.350 N 
HETATM    3  O   UNL     1      42.721 -13.665   3.672  1.00  0.00    -0.268 OA
HETATM    4  H   UNL     1      40.602 -15.420   2.153  1.00  0.00     0.163 HD
ENDROOT
BRANCH   2   5
HETATM    5  C   UNL     1      40.476 -13.317   1.955  1.00  0.00     0.114 C 
HETATM    6  C   UNL     1      38.958 -13.502   1.836  1.00  0.00     0.035 C 
BRANCH   5   7
HETATM    7  C   UNL     1      41.088 -12.612   0.706  1.00  0.00     0.173 C 
BRANCH   7   8
HETATM    8  O   UNL     1      42.502 -12.445   0.858  1.00  0.00    -0.389 OA
HETATM    9  H   UNL     1      42.877 -12.445  -0.039  1.00  0.00     0.210 HD
ENDBRANCH   7   8
BRANCH   7  10
HETATM   10  C   UNL     1      40.834 -13.409  -0.563  1.00  0.00    -0.028 A 
HETATM   11  C   UNL     1      40.078 -12.853  -1.606  1.00  0.00     0.012 A 
HETATM   12  C   UNL     1      39.831 -13.583  -2.772  1.00  0.00     0.037 A 
HETATM   13  C   UNL     1      40.353 -14.868  -2.927  1.00  0.00     0.068 A 
HETATM   14  C   UNL     1      41.081 -15.442  -1.887  1.00  0.00     0.037 A 
HETATM   15  C   UNL     1      41.319 -14.718  -0.714  1.00  0.00     0.012 A 
BRANCH  13  16
HETATM   16  O   UNL     1      40.067 -15.477  -4.118  1.00  0.00    -0.356 OA
HETATM   17  C   UNL     1      38.859 -16.233  -4.138  1.00  0.00     0.210 C 
ENDBRANCH  13  16
ENDBRANCH   7  10
ENDBRANCH   5   7
ENDBRANCH   2   5
BRANCH   1  18
HETATM   18  C   UNL     1      42.622 -15.999   3.535  1.00  0.00     0.075 C 
HETATM   19  C   UNL     1      43.261 -16.996   2.804  1.00  0.00     0.051 C 
HETATM   20  C   UNL     1      43.847 -16.983   1.435  1.00  0.00     0.071 C 
HETATM   21  N   UNL     1      43.306 -18.120   3.634  1.00  0.00    -0.220 N 
HETATM   22  N   UNL     1      42.905 -17.812   4.900  1.00  0.00    -0.177 NA
HETATM   23  C   UNL     1      42.483 -16.554   4.822  1.00  0.00     0.158 C 
BRANCH  21  24
HETATM   24  C   UNL     1      43.676 -19.468   3.300  1.00  0.00     0.150 A 
HETATM   25  N   UNL     1      44.471 -20.169   4.153  1.00  0.00    -0.241 NA
HETATM   26  C   UNL     1      44.830 -21.419   3.786  1.00  0.00     0.119 A 
HETATM   27  C   UNL     1      44.436 -22.020   2.603  1.00  0.00     0.019 A 
HETATM   28  C   UNL     1      43.622 -21.296   1.741  1.00  0.00     0.005 A 
HETATM   29  C   UNL     1      43.237 -20.003   2.088  1.00  0.00     0.052 A 
ENDBRANCH  21  24
ENDBRANCH   1  18
TORSDOF 7
ENDMDL
MODEL 3
REMARK VINA RESULT:      -7.6      4.990      8.824
REMARK  7 active torsions:
REMARK  status: ('A' for Active; 'I' for Inactive)
REMARK    1  A    between atoms: N_3  and  C_4 
REMARK    2  A    between atoms: C_12  and  C_13 
REMARK       I    between atoms: C_13  and  N_14 
REMARK    3  A    between atoms: N_14  and  C_15 
REMARK    4  A    between atoms: C_15  and  C_16 
REMARK    5  A    between atoms: C_16  and  O_17 
REMARK    6  A    between atoms: C_16  and  C_18 
REMARK    7  A    between atoms: C_21  and  O_22 
ROOT
HETATM    1  C   UNL     1      41.518 -14.649   4.365  1.00  0.00     0.255 C 
HETATM    2  N   UNL     1      42.726 -15.073   4.871  1.00  0.00    -0.350 N 
HETATM    3  O   UNL     1      40.509 -14.544   5.055  1.00  0.00    -0.268 OA
HETATM    4  H   UNL     1      43.550 -14.856   4.327  1.00  0.00     0.163 HD
ENDROOT
BRANCH   2   5
HETATM    5  C   UNL     1      42.943 -15.351   6.294  1.00  0.00     0.114 C 
HETATM    6  C   UNL     1      44.349 -14.931   6.738  1.00  0.00     0.035 C 
BRANCH   5   7
HETATM    7  C   UNL     1      42.611 -16.822   6.689  1.00  0.00     0.173 C 
BRANCH   7   8
HETATM    8  O   UNL     1      41.195 -17.032   6.724  1.00  0.00    -0.389 OA
HETATM    9  H   UNL     1      40.784 -16.160   6.595  1.00  0.00     0.210 HD
ENDBRANCH   7   8
BRANCH   7  10
HETATM   10  C   UNL     1      43.217 -17.813   5.708  1.00  0.00    -0.028 A 
HETATM   11  C   UNL     1      42.544 -18.132   4.520  1.00  0.00     0.012 A 
HETATM   12  C   UNL     1      43.090 -19.051   3.619  1.00  0.00     0.037 A 
HETATM   13  C   UNL     1      44.325 -19.647   3.876  1.00  0.00     0.068 A 
HETATM   14  C   UNL     1      44.991 -19.360   5.066  1.00  0.00     0.037 A 
HETATM   15  C   UNL     1      44.440 -18.450   5.975  1.00  0.00     0.012 A 
BRANCH  13  16
HETATM   16  O   UNL     1      44.771 -20.510   2.913  1.00  0.00    -0.356 OA
HETATM   17  C   UNL     1      43.785 -20.939   1.978  1.00  0.00     0.210 C 
ENDBRANCH  13  16
ENDBRANCH   7  10
ENDBRANCH   5   7
ENDBRANCH   2   5
BRANCH   1  18
HETATM   18  C   UNL     1      41.527 -14.234   2.971  1.00  0.00     0.075 C 
HETATM   19  C   UNL     1      40.680 -14.551   1.913  1.00  0.00     0.051 C 
HETATM   20  C   UNL     1      39.406 -15.320   1.875  1.00  0.00     0.071 C 
HETATM   21  N   UNL     1      41.238 -13.958   0.776  1.00  0.00    -0.220 N 
HETATM   22  N   UNL     1      42.272 -13.135   1.110  1.00  0.00    -0.177 NA
HETATM   23  C   UNL     1      42.446 -13.324   2.414  1.00  0.00     0.158 C 
BRANCH  21  24
HETATM   24  C   UNL     1      40.874 -14.141  -0.602  1.00  0.00     0.150 A 
HETATM   25  N   UNL     1      40.209 -13.147  -1.251  1.00  0.00    -0.241 NA
HETATM   26  C   UNL     1      39.849 -13.373  -2.534  1.00  0.00     0.119 A 
HETATM   27  C   UNL     1      40.120 -14.545  -3.218  1.00  0.00     0.019 A 
HETATM   28  C   UNL     1      40.803 -15.551  -2.547  1.00  0.00     0.005 A 
HETATM   29  C   UNL     1      41.185 -15.353  -1.222  1.00  0.00     0.052 A 
ENDBRANCH  21  24
ENDBRANCH   1  18
TORSDOF 7
ENDMDL
MODEL 4
REMARK VINA RESULT:      -7.4      6.057      9.924
REMARK  7 active torsions:
REMARK  status: ('A' for Active; 'I' for Inactive)
REMARK    1  A    between atoms: N_3  and  C_4 
REMARK    2  A    between atoms: C_12  and  C_13 
REMARK       I    between atoms: C_13  and  N_14 
REMARK    3  A    between atoms: N_14  and  C_15 
REMARK    4  A    between atoms: C_15  and  C_16 
REMARK    5  A    between atoms: C_16  and  O_17 
REMARK    6  A    between atoms: C_16  and  C_18 
REMARK    7  A    between atoms: C_21  and  O_22 
ROOT
HETATM    1  C   UNL     1      40.692 -15.882   1.892  1.00  0.00     0.255 C 
HETATM    2  N   UNL     1      41.457 -15.317   2.889  1.00  0.00    -0.350 N 
HETATM    3  O   UNL     1      40.211 -17.007   1.982  1.00  0.00    -0.268 OA
HETATM    4  H   UNL     1      41.565 -14.312   2.867  1.00  0.00     0.163 HD
ENDROOT
BRANCH   2   5
HETATM    5  C   UNL     1      41.691 -15.966   4.182  1.00  0.00     0.114 C 
HETATM    6  C   UNL     1      40.991 -15.214   5.320  1.00  0.00     0.035 C 
BRANCH   5   7
HETATM    7  C   UNL     1      43.201 -16.219   4.477  1.00  0.00     0.173 C 
BRANCH   7   8
HETATM    8  O   UNL     1      43.484 -16.037   5.868  1.00  0.00    -0.389 OA
HETATM    9  H   UNL     1      43.319 -15.098   6.063  1.00  0.00     0.210 HD
ENDBRANCH   7   8
BRANCH   7  10
HETATM   10  C   UNL     1      43.617 -17.627   4.084  1.00  0.00    -0.028 A 
HETATM   11  C   UNL     1      43.606 -18.016   2.736  1.00  0.00     0.012 A 
HETATM   12  C   UNL     1      43.978 -19.312   2.368  1.00  0.00     0.037 A 
HETATM   13  C   UNL     1      44.388 -20.232   3.333  1.00  0.00     0.068 A 
HETATM   14  C   UNL     1      44.377 -19.867   4.677  1.00  0.00     0.037 A 
HETATM   15  C   UNL     1      43.993 -18.574   5.049  1.00  0.00     0.012 A 
BRANCH  13  16
HETATM   16  O   UNL     1      44.751 -21.461   2.854  1.00  0.00    -0.356 OA
HETATM   17  C   UNL     1      44.079 -21.873   1.667  1.00  0.00     0.210 C 
ENDBRANCH  13  16
ENDBRANCH   7  10
ENDBRANCH   5   7
ENDBRANCH   2   5
BRANCH   1  18
HETATM   18  C   UNL     1      40.404 -15.024   0.754  1.00  0.00     0.075 C 
HETATM   19  C   UNL     1      39.232 -14.384   0.359  1.00  0.00     0.051 C 
HETATM   20  C   UNL     1      37.911 -14.258   1.033  1.00  0.00     0.071 C 
HETATM   21  N   UNL     1      39.509 -13.791  -0.877  1.00  0.00    -0.220 N 
HETATM   22  N   UNL     1      40.839 -13.866  -1.169  1.00  0.00    -0.177 NA
HETATM   23  C   UNL     1      41.355 -14.618  -0.202  1.00  0.00     0.158 C 
BRANCH  21  24
HETATM   24  C   UNL     1      38.597 -13.183  -1.806  1.00  0.00     0.150 A 
HETATM   25  N   UNL     1      38.281 -11.868  -1.663  1.00  0.00    -0.241 NA
HETATM   26  C   UNL     1      37.389 -11.343  -2.532  1.00  0.00     0.119 A 
HETATM   27  C   UNL     1      36.788 -12.061  -3.550  1.00  0.00     0.019 A 
HETATM   28  C   UNL     1      37.119 -13.403  -3.688  1.00  0.00     0.005 A 
HETATM   29  C   UNL     1      38.033 -13.977  -2.806  1.00  0.00     0.052 A 
ENDBRANCH  21  24
ENDBRANCH   1  18
TORSDOF 7
ENDMDL
MODEL 5
REMARK VINA RESULT:      -7.4      7.877     10.892
REMARK  7 active torsions:
REMARK  status: ('A' for Active; 'I' for Inactive)
REMARK    1  A    between atoms: N_3  and  C_4 
REMARK    2  A    between atoms: C_12  and  C_13 
REMARK       I    between atoms: C_13  and  N_14 
REMARK    3  A    between atoms: N_14  and  C_15 
REMARK    4  A    between atoms: C_15  and  C_16 
REMARK    5  A    between atoms: C_16  and  O_17 
REMARK    6  A    between atoms: C_16  and  C_18 
REMARK    7  A    between atoms: C_21  and  O_22 
ROOT
HETATM    1  C   UNL     1      41.112 -15.287  -0.021  1.00  0.00     0.255 C 
HETATM    2  N   UNL     1      41.552 -16.591   0.009  1.00  0.00    -0.350 N 
HETATM    3  O   UNL     1      40.772 -14.678   0.988  1.00  0.00    -0.268 OA
HETATM    4  H   UNL     1      42.076 -16.915  -0.793  1.00  0.00     0.163 HD
ENDROOT
BRANCH   2   5
HETATM    5  C   UNL     1      41.742 -17.342   1.253  1.00  0.00     0.114 C 
HETATM    6  C   UNL     1      40.477 -17.323   2.118  1.00  0.00     0.035 C 
BRANCH   5   7
HETATM    7  C   UNL     1      43.010 -16.904   2.046  1.00  0.00     0.173 C 
BRANCH   7   8
HETATM    8  O   UNL     1      42.690 -15.873   2.987  1.00  0.00    -0.389 OA
HETATM    9  H   UNL     1      43.538 -15.500   3.286  1.00  0.00     0.210 HD
ENDBRANCH   7   8
BRANCH   7  10
HETATM   10  C   UNL     1      43.625 -18.069   2.804  1.00  0.00    -0.028 A 
HETATM   11  C   UNL     1      43.973 -19.247   2.127  1.00  0.00     0.012 A 
HETATM   12  C   UNL     1      44.528 -20.327   2.819  1.00  0.00     0.037 A 
HETATM   13  C   UNL     1      44.767 -20.242   4.191  1.00  0.00     0.068 A 
HETATM   14  C   UNL     1      44.400 -19.088   4.881  1.00  0.00     0.037 A 
HETATM   15  C   UNL     1      43.833 -18.011   4.192  1.00  0.00     0.012 A 
BRANCH  13  16
HETATM   16  O   UNL     1      45.335 -21.350   4.757  1.00  0.00    -0.356 OA
HETATM   17  C   UNL     1      44.647 -22.574   4.518  1.00  0.00     0.210 C 
ENDBRANCH  13  16
ENDBRANCH   7  10
ENDBRANCH   5   7
ENDBRANCH   2   5
BRANCH   1  18
HETATM   18  C   UNL     1      41.164 -14.632  -1.319  1.00  0.00     0.075 C 
HETATM   19  C   UNL     1      41.464 -13.320  -1.675  1.00  0.00     0.051 C 
HETATM   20  C   UNL     1      41.957 -12.174  -0.862  1.00  0.00     0.071 C 
HETATM   21  N   UNL     1      41.242 -13.229  -3.052  1.00  0.00    -0.220 N 
HETATM   22  N   UNL     1      41.010 -14.459  -3.594  1.00  0.00    -0.177 NA
HETATM   23  C   UNL     1      40.946 -15.280  -2.550  1.00  0.00     0.158 C 
BRANCH  21  24
HETATM   24  C   UNL     1      41.210 -12.055  -3.881  1.00  0.00     0.150 A 
HETATM   25  N   UNL     1      40.008 -11.543  -4.260  1.00  0.00    -0.241 NA
HETATM   26  C   UNL     1      40.018 -10.462  -5.071  1.00  0.00     0.119 A 
HETATM   27  C   UNL     1      41.173  -9.853  -5.530  1.00  0.00     0.019 A 
HETATM   28  C   UNL     1      42.395 -10.383  -5.135  1.00  0.00     0.005 A 
HETATM   29  C   UNL     1      42.419 -11.499  -4.302  1.00  0.00     0.052 A 
ENDBRANCH  21  24
ENDBRANCH   1  18
TORSDOF 7
ENDMDL
MODEL 6
REMARK VINA RESULT:      -7.4      7.666     11.307
REMARK  7 active torsions:
REMARK  status: ('A' for Active; 'I' for Inactive)
REMARK    1  A    between atoms: N_3  and  C_4 
REMARK    2  A    between atoms: C_12  and  C_13 
REMARK       I    between atoms: C_13  and  N_14 
REMARK    3  A    between atoms: N_14  and  C_15 
REMARK    4  A    between atoms: C_15  and  C_16 
REMARK    5  A    between atoms: C_16  and  O_17 
REMARK    6  A    between atoms: C_16  and  C_18 
REMARK    7  A    between atoms: C_21  and  O_22 
ROOT
HETATM    1  C   UNL     1      41.412 -15.243   1.626  1.00  0.00     0.255 C 
HETATM    2  N   UNL     1      40.715 -15.454   0.457  1.00  0.00    -0.350 N 
HETATM    3  O   UNL     1      41.587 -14.126   2.102  1.00  0.00    -0.268 OA
HETATM    4  H   UNL     1      40.371 -16.391   0.293  1.00  0.00     0.163 HD
ENDROOT
BRANCH   2   5
HETATM    5  C   UNL     1      40.041 -14.379  -0.276  1.00  0.00     0.114 C 
HETATM    6  C   UNL     1      38.670 -14.060   0.331  1.00  0.00     0.035 C 
BRANCH   5   7
HETATM    7  C   UNL     1      39.965 -14.638  -1.812  1.00  0.00     0.173 C 
BRANCH   7   8
HETATM    8  O   UNL     1      38.604 -14.772  -2.238  1.00  0.00    -0.389 OA
HETATM    9  H   UNL     1      38.093 -14.111  -1.739  1.00  0.00     0.210 HD
ENDBRANCH   7   8
BRANCH   7  10
HETATM   10  C   UNL     1      40.604 -13.507  -2.601  1.00  0.00    -0.028 A 
HETATM   11  C   UNL     1      41.988 -13.289  -2.527  1.00  0.00     0.012 A 
HETATM   12  C   UNL     1      42.581 -12.244  -3.241  1.00  0.00     0.037 A 
HETATM   13  C   UNL     1      41.810 -11.417  -4.058  1.00  0.00     0.068 A 
HETATM   14  C   UNL     1      40.431 -11.606  -4.119  1.00  0.00     0.037 A 
HETATM   15  C   UNL     1      39.833 -12.643  -3.394  1.00  0.00     0.012 A 
BRANCH  13  16
HETATM   16  O   UNL     1      42.501 -10.444  -4.727  1.00  0.00    -0.356 OA
HETATM   17  C   UNL     1      41.897  -9.994  -5.936  1.00  0.00     0.210 C 
ENDBRANCH  13  16
ENDBRANCH   7  10
ENDBRANCH   5   7
ENDBRANCH   2   5
BRANCH   1  18
HETATM   18  C   UNL     1      41.853 -16.441   2.324  1.00  0.00     0.075 C 
HETATM   19  C   UNL     1      42.850 -17.365   2.024  1.00  0.00     0.051 C 
HETATM   20  C   UNL     1      43.887 -17.373   0.956  1.00  0.00     0.071 C 
HETATM   21  N   UNL     1      42.748 -18.375   2.986  1.00  0.00    -0.220 N 
HETATM   22  N   UNL     1      41.872 -18.027   3.971  1.00  0.00    -0.177 NA
HETATM   23  C   UNL     1      41.333 -16.885   3.555  1.00  0.00     0.158 C 
BRANCH  21  24
HETATM   24  C   UNL     1      43.403 -19.653   3.017  1.00  0.00     0.150 A 
HETATM   25  N   UNL     1      44.210 -19.961   4.069  1.00  0.00    -0.241 NA
HETATM   26  C   UNL     1      44.839 -21.156   4.043  1.00  0.00     0.119 A 
HETATM   27  C   UNL     1      44.707 -22.077   3.018  1.00  0.00     0.019 A 
HETATM   28  C   UNL     1      43.879 -21.754   1.951  1.00  0.00     0.005 A 
HETATM   29  C   UNL     1      43.218 -20.527   1.945  1.00  0.00     0.052 A 
ENDBRANCH  21  24
ENDBRANCH   1  18
TORSDOF 7
ENDMDL
MODEL 7
REMARK VINA RESULT:      -7.4      6.002      9.453
REMARK  7 active torsions:
REMARK  status: ('A' for Active; 'I' for Inactive)
REMARK    1  A    between atoms: N_3  and  C_4 
REMARK    2  A    between atoms: C_12  and  C_13 
REMARK       I    between atoms: C_13  and  N_14 
REMARK    3  A    between atoms: N_14  and  C_15 
REMARK    4  A    between atoms: C_15  and  C_16 
REMARK    5  A    between atoms: C_16  and  O_17 
REMARK    6  A    between atoms: C_16  and  C_18 
REMARK    7  A    between atoms: C_21  and  O_22 
ROOT
HETATM    1  C   UNL     1      40.768 -15.872   2.476  1.00  0.00     0.255 C 
HETATM    2  N   UNL     1      41.532 -15.573   3.583  1.00  0.00    -0.350 N 
HETATM    3  O   UNL     1      40.170 -16.935   2.350  1.00  0.00    -0.268 OA
HETATM    4  H   UNL     1      41.743 -14.597   3.741  1.00  0.00     0.163 HD
ENDROOT
BRANCH   2   5
HETATM    5  C   UNL     1      41.627 -16.455   4.749  1.00  0.00     0.114 C 
HETATM    6  C   UNL     1      40.800 -15.920   5.924  1.00  0.00     0.035 C 
BRANCH   5   7
HETATM    7  C   UNL     1      43.098 -16.776   5.156  1.00  0.00     0.173 C 
BRANCH   7   8
HETATM    8  O   UNL     1      43.218 -16.894   6.578  1.00  0.00    -0.389 OA
HETATM    9  H   UNL     1      44.005 -17.441   6.744  1.00  0.00     0.210 HD
ENDBRANCH   7   8
BRANCH   7  10
HETATM   10  C   UNL     1      43.580 -18.073   4.526  1.00  0.00    -0.028 A 
HETATM   11  C   UNL     1      43.436 -18.284   3.147  1.00  0.00     0.012 A 
HETATM   12  C   UNL     1      43.867 -19.478   2.563  1.00  0.00     0.037 A 
HETATM   13  C   UNL     1      44.469 -20.470   3.338  1.00  0.00     0.068 A 
HETATM   14  C   UNL     1      44.592 -20.284   4.714  1.00  0.00     0.037 A 
HETATM   15  C   UNL     1      44.149 -19.095   5.303  1.00  0.00     0.012 A 
BRANCH  13  16
HETATM   16  O   UNL     1      44.872 -21.584   2.655  1.00  0.00    -0.356 OA
HETATM   17  C   UNL     1      44.053 -21.947   1.548  1.00  0.00     0.210 C 
ENDBRANCH  13  16
ENDBRANCH   7  10
ENDBRANCH   5   7
ENDBRANCH   2   5
BRANCH   1  18
HETATM   18  C   UNL     1      40.631 -14.806   1.496  1.00  0.00     0.075 C 
HETATM   19  C   UNL     1      40.868 -14.782   0.125  1.00  0.00     0.051 C 
HETATM   20  C   UNL     1      41.221 -15.872  -0.826  1.00  0.00     0.071 C 
HETATM   21  N   UNL     1      40.679 -13.457  -0.281  1.00  0.00    -0.220 N 
HETATM   22  N   UNL     1      40.151 -12.706   0.728  1.00  0.00    -0.177 NA
HETATM   23  C   UNL     1      40.147 -13.515   1.783  1.00  0.00     0.158 C 
BRANCH  21  24
HETATM   24  C   UNL     1      40.990 -12.853  -1.547  1.00  0.00     0.150 A 
HETATM   25  N   UNL     1      40.026 -12.788  -2.506  1.00  0.00    -0.241 NA
HETATM   26  C   UNL     1      40.368 -12.248  -3.697  1.00  0.00     0.119 A 
HETATM   27  C   UNL     1      41.630 -11.762  -3.991  1.00  0.00     0.019 A 
HETATM   28  C   UNL     1      42.604 -11.831  -3.004  1.00  0.00     0.005 A 
HETATM   29  C   UNL     1      42.286 -12.385  -1.766  1.00  0.00     0.052 A 
ENDBRANCH  21  24
ENDBRANCH   1  18
TORSDOF 7
ENDMDL
MODEL 8
REMARK VINA RESULT:      -7.3      5.630      9.951
REMARK  7 active torsions:
REMARK  status: ('A' for Active; 'I' for Inactive)
REMARK    1  A    between atoms: N_3  and  C_4 
REMARK    2  A    between atoms: C_12  and  C_13 
REMARK       I    between atoms: C_13  and  N_14 
REMARK    3  A    between atoms: N_14  and  C_15 
REMARK    4  A    between atoms: C_15  and  C_16 
REMARK    5  A    between atoms: C_16  and  O_17 
REMARK    6  A    between atoms: C_16  and  C_18 
REMARK    7  A    between atoms: C_21  and  O_22 
ROOT
HETATM    1  C   UNL     1      42.786 -14.704   3.374  1.00  0.00     0.255 C 
HETATM    2  N   UNL     1      41.520 -14.330   3.766  1.00  0.00    -0.350 N 
HETATM    3  O   UNL     1      43.578 -13.923   2.857  1.00  0.00    -0.268 OA
HETATM    4  H   UNL     1      41.051 -14.932   4.430  1.00  0.00     0.163 HD
ENDROOT
BRANCH   2   5
HETATM    5  C   UNL     1      41.034 -12.950   3.688  1.00  0.00     0.114 C 
HETATM    6  C   UNL     1      41.355 -12.169   4.968  1.00  0.00     0.035 C 
BRANCH   5   7
HETATM    7  C   UNL     1      39.528 -12.851   3.294  1.00  0.00     0.173 C 
BRANCH   7   8
HETATM    8  O   UNL     1      39.009 -11.551   3.593  1.00  0.00    -0.389 OA
HETATM    9  H   UNL     1      38.867 -11.525   4.555  1.00  0.00     0.210 HD
ENDBRANCH   7   8
BRANCH   7  10
HETATM   10  C   UNL     1      39.320 -13.121   1.813  1.00  0.00    -0.028 A 
HETATM   11  C   UNL     1      40.288 -12.722   0.880  1.00  0.00     0.012 A 
HETATM   12  C   UNL     1      40.098 -12.957  -0.485  1.00  0.00     0.037 A 
HETATM   13  C   UNL     1      38.955 -13.614  -0.938  1.00  0.00     0.068 A 
HETATM   14  C   UNL     1      37.973 -13.992  -0.024  1.00  0.00     0.037 A 
HETATM   15  C   UNL     1      38.155 -13.746   1.341  1.00  0.00     0.012 A 
BRANCH  13  16
HETATM   16  O   UNL     1      38.888 -13.810  -2.290  1.00  0.00    -0.356 OA
HETATM   17  C   UNL     1      39.798 -14.777  -2.809  1.00  0.00     0.210 C 
ENDBRANCH  13  16
ENDBRANCH   7  10
ENDBRANCH   5   7
ENDBRANCH   2   5
BRANCH   1  18
HETATM   18  C   UNL     1      43.171 -16.068   3.697  1.00  0.00     0.075 C 
HETATM   19  C   UNL     1      43.616 -17.113   2.893  1.00  0.00     0.051 C 
HETATM   20  C   UNL     1      43.969 -17.153   1.446  1.00  0.00     0.071 C 
HETATM   21  N   UNL     1      43.724 -18.230   3.727  1.00  0.00    -0.220 N 
HETATM   22  N   UNL     1      43.557 -17.883   5.035  1.00  0.00    -0.177 NA
HETATM   23  C   UNL     1      43.210 -16.600   5.001  1.00  0.00     0.158 C 
BRANCH  21  24
HETATM   24  C   UNL     1      43.947 -19.603   3.365  1.00  0.00     0.150 A 
HETATM   25  N   UNL     1      44.658 -20.404   4.205  1.00  0.00    -0.241 NA
HETATM   26  C   UNL     1      44.880 -21.678   3.811  1.00  0.00     0.119 A 
HETATM   27  C   UNL     1      44.427 -22.207   2.616  1.00  0.00     0.019 A 
HETATM   28  C   UNL     1      43.701 -21.381   1.768  1.00  0.00     0.005 A 
HETATM   29  C   UNL     1      43.457 -20.061   2.141  1.00  0.00     0.052 A 
ENDBRANCH  21  24
ENDBRANCH   1  18
TORSDOF 7
ENDMDL
MODEL 9
REMARK VINA RESULT:      -7.2      7.569     11.009
REMARK  7 active torsions:
REMARK  status: ('A' for Active; 'I' for Inactive)
REMARK    1  A    between atoms: N_3  and  C_4 
REMARK    2  A    between atoms: C_12  and  C_13 
REMARK       I    between atoms: C_13  and  N_14 
REMARK    3  A    between atoms: N_14  and  C_15 
REMARK    4  A    between atoms: C_15  and  C_16 
REMARK    5  A    between atoms: C_16  and  O_17 
REMARK    6  A    between atoms: C_16  and  C_18 
REMARK    7  A    between atoms: C_21  and  O_22 
ROOT
HETATM    1  C   UNL     1      41.451 -15.332   1.877  1.00  0.00     0.255 C 
HETATM    2  N   UNL     1      40.389 -15.485   1.014  1.00  0.00    -0.350 N 
HETATM    3  O   UNL     1      41.923 -14.236   2.160  1.00  0.00    -0.268 OA
HETATM    4  H   UNL     1      39.885 -16.360   1.060  1.00  0.00     0.163 HD
ENDROOT
BRANCH   2   5
HETATM    5  C   UNL     1      39.667 -14.353   0.426  1.00  0.00     0.114 C 
HETATM    6  C   UNL     1      38.253 -14.228   1.007  1.00  0.00     0.035 C 
BRANCH   5   7
HETATM    7  C   UNL     1      39.670 -14.366  -1.133  1.00  0.00     0.173 C 
BRANCH   7   8
HETATM    8  O   UNL     1      38.337 -14.257  -1.644  1.00  0.00    -0.389 OA
HETATM    9  H   UNL     1      38.151 -15.091  -2.109  1.00  0.00     0.210 HD
ENDBRANCH   7   8
BRANCH   7  10
HETATM   10  C   UNL     1      40.495 -13.223  -1.699  1.00  0.00    -0.028 A 
HETATM   11  C   UNL     1      41.684 -12.830  -1.067  1.00  0.00     0.012 A 
HETATM   12  C   UNL     1      42.443 -11.772  -1.575  1.00  0.00     0.037 A 
HETATM   13  C   UNL     1      42.042 -11.105  -2.733  1.00  0.00     0.068 A 
HETATM   14  C   UNL     1      40.849 -11.467  -3.355  1.00  0.00     0.037 A 
HETATM   15  C   UNL     1      40.081 -12.518  -2.840  1.00  0.00     0.012 A 
BRANCH  13  16
HETATM   16  O   UNL     1      42.875 -10.103  -3.151  1.00  0.00    -0.356 OA
HETATM   17  C   UNL     1      42.895  -8.946  -2.321  1.00  0.00     0.210 C 
ENDBRANCH  13  16
ENDBRANCH   7  10
ENDBRANCH   5   7
ENDBRANCH   2   5
BRANCH   1  18
HETATM   18  C   UNL     1      41.926 -16.549   2.516  1.00  0.00     0.075 C 
HETATM   19  C   UNL     1      42.912 -17.458   2.144  1.00  0.00     0.051 C 
HETATM   20  C   UNL     1      43.902 -17.427   1.032  1.00  0.00     0.071 C 
HETATM   21  N   UNL     1      42.856 -18.498   3.077  1.00  0.00    -0.220 N 
HETATM   22  N   UNL     1      42.024 -18.186   4.110  1.00  0.00    -0.177 NA
HETATM   23  C   UNL     1      41.463 -17.034   3.755  1.00  0.00     0.158 C 
BRANCH  21  24
HETATM   24  C   UNL     1      43.517 -19.774   3.039  1.00  0.00     0.150 A 
HETATM   25  N   UNL     1      43.313 -20.596   1.974  1.00  0.00    -0.241 NA
HETATM   26  C   UNL     1      43.920 -21.803   1.993  1.00  0.00     0.119 A 
HETATM   27  C   UNL     1      44.730 -22.244   3.025  1.00  0.00     0.019 A 
HETATM   28  C   UNL     1      44.933 -21.396   4.106  1.00  0.00     0.005 A 
HETATM   29  C   UNL     1      44.319 -20.145   4.119  1.00  0.00     0.052 A 
ENDBRANCH  21  24
ENDBRANCH   1  18
TORSDOF 7
ENDMDL
MODEL 10
REMARK VINA RESULT:      -7.1      3.058      4.625
REMARK  7 active torsions:
REMARK  status: ('A' for Active; 'I' for Inactive)
REMARK    1  A    between atoms: N_3  and  C_4 
REMARK    2  A    between atoms: C_12  and  C_13 
REMARK       I    between atoms: C_13  and  N_14 
REMARK    3  A    between atoms: N_14  and  C_15 
REMARK    4  A    between atoms: C_15  and  C_16 
REMARK    5  A    between atoms: C_16  and  O_17 
REMARK    6  A    between atoms: C_16  and  C_18 
REMARK    7  A    between atoms: C_21  and  O_22 
ROOT
HETATM    1  C   UNL     1      41.909 -13.279   2.768  1.00  0.00     0.255 C 
HETATM    2  N   UNL     1      41.062 -14.362   2.697  1.00  0.00    -0.350 N 
HETATM    3  O   UNL     1      42.772 -13.055   1.926  1.00  0.00    -0.268 OA
HETATM    4  H   UNL     1      40.215 -14.316   3.248  1.00  0.00     0.163 HD
ENDROOT
BRANCH   2   5
HETATM    5  C   UNL     1      41.050 -15.294   1.567  1.00  0.00     0.114 C 
HETATM    6  C   UNL     1      40.192 -14.764   0.412  1.00  0.00     0.035 C 
BRANCH   5   7
HETATM    7  C   UNL     1      40.662 -16.748   1.975  1.00  0.00     0.173 C 
BRANCH   7   8
HETATM    8  O   UNL     1      40.400 -17.549   0.818  1.00  0.00    -0.389 OA
HETATM    9  H   UNL     1      39.876 -16.996   0.213  1.00  0.00     0.210 HD
ENDBRANCH   7   8
BRANCH   7  10
HETATM   10  C   UNL     1      41.766 -17.415   2.779  1.00  0.00    -0.028 A 
HETATM   11  C   UNL     1      41.645 -17.548   4.170  1.00  0.00     0.012 A 
HETATM   12  C   UNL     1      42.661 -18.150   4.917  1.00  0.00     0.037 A 
HETATM   13  C   UNL     1      43.801 -18.650   4.288  1.00  0.00     0.068 A 
HETATM   14  C   UNL     1      43.947 -18.500   2.910  1.00  0.00     0.037 A 
HETATM   15  C   UNL     1      42.936 -17.885   2.163  1.00  0.00     0.012 A 
BRANCH  13  16
HETATM   16  O   UNL     1      44.717 -19.240   5.116  1.00  0.00    -0.356 OA
HETATM   17  C   UNL     1      44.181 -20.178   6.044  1.00  0.00     0.210 C 
ENDBRANCH  13  16
ENDBRANCH   7  10
ENDBRANCH   5   7
ENDBRANCH   2   5
BRANCH   1  18
HETATM   18  C   UNL     1      41.658 -12.350   3.859  1.00  0.00     0.075 C 
HETATM   19  C   UNL     1      41.949 -12.429   5.218  1.00  0.00     0.051 C 
HETATM   20  C   UNL     1      42.727 -13.433   5.996  1.00  0.00     0.071 C 
HETATM   21  N   UNL     1      41.372 -11.300   5.807  1.00  0.00    -0.220 N 
HETATM   22  N   UNL     1      40.911 -10.434   4.860  1.00  0.00    -0.177 NA
HETATM   23  C   UNL     1      41.070 -11.080   3.708  1.00  0.00     0.158 C 
BRANCH  21  24
HETATM   24  C   UNL     1      41.206 -11.001   7.203  1.00  0.00     0.150 A 
HETATM   25  N   UNL     1      42.256 -10.494   7.903  1.00  0.00    -0.241 NA
HETATM   26  C   UNL     1      42.073 -10.263   9.222  1.00  0.00     0.119 A 
HETATM   27  C   UNL     1      40.887 -10.508   9.892  1.00  0.00     0.019 A 
HETATM   28  C   UNL     1      39.820 -11.024   9.166  1.00  0.00     0.005 A 
HETATM   29  C   UNL     1      39.977 -11.277   7.805  1.00  0.00     0.052 A 
ENDBRANCH  21  24
ENDBRANCH   1  18
TORSDOF 7
ENDMDL
