MODEL 1
REMARK VINA RESULT:      -8.9      0.000      0.000
REMARK  6 active torsions:
REMARK  status: ('A' for Active; 'I' for Inactive)
REMARK    1  A    between atoms: C_9  and  N_10 
REMARK       I    between atoms: N_10  and  C_11 
REMARK    2  A    between atoms: C_11  and  C_12 
REMARK    3  A    between atoms: C_12  and  N_13 
REMARK    4  A    between atoms: C_12  and  C_21 
REMARK       I    between atoms: N_13  and  C_14 
REMARK    5  A    between atoms: C_14  and  C_15 
REMARK    6  A    between atoms: C_21  and  C_22 
ROOT
HETATM    1  C   UNL     1      42.708 -17.834   2.854  1.00  0.00     0.181 C 
ENDROOT
BRANCH   1   2
HETATM    2  C   UNL     1      41.536 -17.376   1.933  1.00  0.00     0.245 C 
HETATM    3  N   UNL     1      41.164 -16.048   2.083  1.00  0.00    -0.325 N 
HETATM    4  H   UNL     1      41.549 -15.535   2.860  1.00  0.00     0.169 HD
HETATM    5  O   UNL     1      41.097 -18.130   1.064  1.00  0.00    -0.271 OA
BRANCH   3   6
HETATM    6  C   UNL     1      40.276 -15.303   1.270  1.00  0.00     0.037 A 
HETATM    7  C   UNL     1      40.609 -14.797   0.007  1.00  0.00     0.063 A 
HETATM    8  C   UNL     1      39.664 -14.027  -0.694  1.00  0.00     0.087 A 
HETATM    9  N   UNL     1      39.767 -13.409  -1.917  1.00  0.00    -0.234 NA
HETATM   10  C   UNL     1      38.417 -13.795  -0.129  1.00  0.00     0.062 A 
HETATM   11  C   UNL     1      38.613 -12.809  -2.114  1.00  0.00     0.101 A 
HETATM   12  C   UNL     1      38.225 -11.991  -3.287  1.00  0.00     0.091 C 
HETATM   13  N   UNL     1      37.762 -13.027  -1.058  1.00  0.00    -0.343 N 
HETATM   14  H   UNL     1      36.821 -12.672  -0.976  1.00  0.00     0.167 HD
HETATM   15  C   UNL     1      38.039 -14.291   1.116  1.00  0.00     0.034 A 
HETATM   16  C   UNL     1      39.001 -15.045   1.805  1.00  0.00     0.032 A 
ENDBRANCH   3   6
ENDBRANCH   1   2
BRANCH   1  17
HETATM   17  N   UNL     1      43.103 -16.728   3.732  1.00  0.00    -0.343 N 
HETATM   18  C   UNL     1      42.961 -16.761   5.102  1.00  0.00     0.259 C 
HETATM   19  O   UNL     1      42.448 -17.720   5.674  1.00  0.00    -0.267 OA
HETATM   20  H   UNL     1      43.682 -15.993   3.348  1.00  0.00     0.163 HD
BRANCH  18  21
HETATM   21  C   UNL     1      43.418 -15.576   5.818  1.00  0.00     0.072 A 
HETATM   22  S   UNL     1      42.788 -14.012   5.508  1.00  0.00    -0.097 SA
HETATM   23  C   UNL     1      43.748 -13.303   6.732  1.00  0.00     0.050 A 
HETATM   24  C   UNL     1      44.546 -14.229   7.363  1.00  0.00     0.009 A 
HETATM   25  C   UNL     1      44.356 -15.538   6.835  1.00  0.00     0.025 A 
ENDBRANCH  18  21
ENDBRANCH   1  17
BRANCH   1  26
HETATM   26  C   UNL     1      43.908 -18.512   2.158  1.00  0.00     0.073 C 
BRANCH  26  27
HETATM   27  C   UNL     1      44.211 -19.877   2.745  1.00  0.00    -0.056 A 
HETATM   28  C   UNL     1      44.038 -21.036   1.975  1.00  0.00     0.007 A 
HETATM   29  C   UNL     1      44.263 -22.296   2.534  1.00  0.00     0.001 A 
HETATM   30  C   UNL     1      44.656 -22.409   3.866  1.00  0.00     0.000 A 
HETATM   31  C   UNL     1      44.835 -21.264   4.639  1.00  0.00     0.001 A 
HETATM   32  C   UNL     1      44.620 -20.003   4.080  1.00  0.00     0.007 A 
ENDBRANCH  26  27
ENDBRANCH   1  26
TORSDOF 6
ENDMDL
MODEL 2
REMARK VINA RESULT:      -8.7      1.214      1.936
REMARK  6 active torsions:
REMARK  status: ('A' for Active; 'I' for Inactive)
REMARK    1  A    between atoms: C_9  and  N_10 
REMARK       I    between atoms: N_10  and  C_11 
REMARK    2  A    between atoms: C_11  and  C_12 
REMARK    3  A    between atoms: C_12  and  N_13 
REMARK    4  A    between atoms: C_12  and  C_21 
REMARK       I    between atoms: N_13  and  C_14 
REMARK    5  A    between atoms: C_14  and  C_15 
REMARK    6  A    between atoms: C_21  and  C_22 
ROOT
HETATM    1  C   UNL     1      42.434 -17.495   2.319  1.00  0.00     0.181 C 
ENDROOT
BRANCH   1   2
HETATM    2  C   UNL     1      41.369 -16.780   1.433  1.00  0.00     0.245 C 
HETATM    3  N   UNL     1      41.889 -16.046   0.377  1.00  0.00    -0.325 N 
HETATM    4  H   UNL     1      42.885 -15.894   0.353  1.00  0.00     0.169 HD
HETATM    5  O   UNL     1      40.169 -16.990   1.612  1.00  0.00    -0.271 OA
BRANCH   3   6
HETATM    6  C   UNL     1      41.179 -15.451  -0.695  1.00  0.00     0.037 A 
HETATM    7  C   UNL     1      40.447 -14.263  -0.583  1.00  0.00     0.063 A 
HETATM    8  C   UNL     1      39.738 -13.788  -1.700  1.00  0.00     0.087 A 
HETATM    9  N   UNL     1      38.938 -12.677  -1.827  1.00  0.00    -0.234 NA
HETATM   10  C   UNL     1      39.788 -14.496  -2.894  1.00  0.00     0.062 A 
HETATM   11  C   UNL     1      38.501 -12.688  -3.068  1.00  0.00     0.101 A 
HETATM   12  C   UNL     1      37.590 -11.706  -3.698  1.00  0.00     0.091 C 
HETATM   13  N   UNL     1      39.002 -13.769  -3.752  1.00  0.00    -0.343 N 
HETATM   14  H   UNL     1      38.813 -13.995  -4.717  1.00  0.00     0.167 HD
HETATM   15  C   UNL     1      40.514 -15.673  -3.052  1.00  0.00     0.034 A 
HETATM   16  C   UNL     1      41.203 -16.138  -1.922  1.00  0.00     0.032 A 
ENDBRANCH   3   6
ENDBRANCH   1   2
BRANCH   1  17
HETATM   17  N   UNL     1      42.946 -16.556   3.323  1.00  0.00    -0.343 N 
HETATM   18  C   UNL     1      42.712 -16.688   4.674  1.00  0.00     0.259 C 
HETATM   19  O   UNL     1      42.014 -17.595   5.121  1.00  0.00    -0.267 OA
HETATM   20  H   UNL     1      43.662 -15.897   3.043  1.00  0.00     0.163 HD
BRANCH  18  21
HETATM   21  C   UNL     1      43.309 -15.668   5.527  1.00  0.00     0.072 A 
HETATM   22  S   UNL     1      43.055 -13.991   5.273  1.00  0.00    -0.097 SA
HETATM   23  C   UNL     1      43.980 -13.569   6.647  1.00  0.00     0.050 A 
HETATM   24  C   UNL     1      44.489 -14.676   7.287  1.00  0.00     0.009 A 
HETATM   25  C   UNL     1      44.102 -15.884   6.640  1.00  0.00     0.025 A 
ENDBRANCH  18  21
ENDBRANCH   1  17
BRANCH   1  26
HETATM   26  C   UNL     1      43.553 -18.256   1.577  1.00  0.00     0.073 C 
BRANCH  26  27
HETATM   27  C   UNL     1      43.887 -19.574   2.247  1.00  0.00    -0.056 A 
HETATM   28  C   UNL     1      44.530 -19.596   3.493  1.00  0.00     0.007 A 
HETATM   29  C   UNL     1      44.887 -20.810   4.083  1.00  0.00     0.001 A 
HETATM   30  C   UNL     1      44.612 -22.011   3.433  1.00  0.00     0.000 A 
HETATM   31  C   UNL     1      43.969 -22.001   2.196  1.00  0.00     0.001 A 
HETATM   32  C   UNL     1      43.603 -20.789   1.609  1.00  0.00     0.007 A 
ENDBRANCH  26  27
ENDBRANCH   1  26
TORSDOF 6
ENDMDL
MODEL 3
REMARK VINA RESULT:      -8.5      1.909      4.955
REMARK  6 active torsions:
REMARK  status: ('A' for Active; 'I' for Inactive)
REMARK    1  A    between atoms: C_9  and  N_10 
REMARK       I    between atoms: N_10  and  C_11 
REMARK    2  A    between atoms: C_11  and  C_12 
REMARK    3  A    between atoms: C_12  and  N_13 
REMARK    4  A    between atoms: C_12  and  C_21 
REMARK       I    between atoms: N_13  and  C_14 
REMARK    5  A    between atoms: C_14  and  C_15 
REMARK    6  A    between atoms: C_21  and  C_22 
ROOT
HETATM    1  C   UNL     1      41.767 -16.493   3.250  1.00  0.00     0.181 C 
ENDROOT
BRANCH   1   2
HETATM    2  C   UNL     1      40.786 -16.257   2.061  1.00  0.00     0.245 C 
HETATM    3  N   UNL     1      41.170 -15.256   1.181  1.00  0.00    -0.325 N 
HETATM    4  H   UNL     1      41.938 -14.661   1.449  1.00  0.00     0.169 HD
HETATM    5  O   UNL     1      39.830 -17.013   1.884  1.00  0.00    -0.271 OA
BRANCH   3   6
HETATM    6  C   UNL     1      40.594 -14.941  -0.074  1.00  0.00     0.037 A 
HETATM    7  C   UNL     1      39.490 -14.096  -0.238  1.00  0.00     0.063 A 
HETATM    8  C   UNL     1      38.969 -13.892  -1.528  1.00  0.00     0.087 A 
HETATM    9  N   UNL     1      37.892 -13.140  -1.932  1.00  0.00    -0.234 NA
HETATM   10  C   UNL     1      39.566 -14.519  -2.613  1.00  0.00     0.062 A 
HETATM   11  C   UNL     1      37.818 -13.292  -3.237  1.00  0.00     0.101 A 
HETATM   12  C   UNL     1      36.813 -12.693  -4.145  1.00  0.00     0.091 C 
HETATM   13  N   UNL     1      38.821 -14.112  -3.691  1.00  0.00    -0.343 N 
HETATM   14  H   UNL     1      38.976 -14.378  -4.652  1.00  0.00     0.167 HD
HETATM   15  C   UNL     1      40.673 -15.356  -2.497  1.00  0.00     0.034 A 
HETATM   16  C   UNL     1      41.169 -15.557  -1.201  1.00  0.00     0.032 A 
ENDBRANCH   3   6
ENDBRANCH   1   2
BRANCH   1  17
HETATM   17  N   UNL     1      42.275 -17.868   3.200  1.00  0.00    -0.343 N 
HETATM   18  C   UNL     1      43.501 -18.204   2.666  1.00  0.00     0.259 C 
HETATM   19  O   UNL     1      44.233 -17.360   2.154  1.00  0.00    -0.267 OA
HETATM   20  H   UNL     1      41.807 -18.574   3.753  1.00  0.00     0.163 HD
BRANCH  18  21
HETATM   21  C   UNL     1      43.849 -19.619   2.712  1.00  0.00     0.072 A 
HETATM   22  S   UNL     1      44.708 -20.314   4.023  1.00  0.00    -0.097 SA
HETATM   23  C   UNL     1      44.624 -21.879   3.342  1.00  0.00     0.050 A 
HETATM   24  C   UNL     1      43.967 -21.882   2.133  1.00  0.00     0.009 A 
HETATM   25  C   UNL     1      43.522 -20.579   1.770  1.00  0.00     0.025 A 
ENDBRANCH  18  21
ENDBRANCH   1  17
BRANCH   1  26
HETATM   26  C   UNL     1      41.265 -16.084   4.652  1.00  0.00     0.073 C 
BRANCH  26  27
HETATM   27  C   UNL     1      42.392 -15.599   5.542  1.00  0.00    -0.056 A 
HETATM   28  C   UNL     1      43.095 -14.428   5.223  1.00  0.00     0.007 A 
HETATM   29  C   UNL     1      44.169 -14.012   6.013  1.00  0.00     0.001 A 
HETATM   30  C   UNL     1      44.554 -14.764   7.121  1.00  0.00     0.000 A 
HETATM   31  C   UNL     1      43.859 -15.926   7.449  1.00  0.00     0.001 A 
HETATM   32  C   UNL     1      42.779 -16.339   6.667  1.00  0.00     0.007 A 
ENDBRANCH  26  27
ENDBRANCH   1  26
TORSDOF 6
ENDMDL
MODEL 4
REMARK VINA RESULT:      -8.5      2.552      3.988
REMARK  6 active torsions:
REMARK  status: ('A' for Active; 'I' for Inactive)
REMARK    1  A    between atoms: C_9  and  N_10 
REMARK       I    between atoms: N_10  and  C_11 
REMARK    2  A    between atoms: C_11  and  C_12 
REMARK    3  A    between atoms: C_12  and  N_13 
REMARK    4  A    between atoms: C_12  and  C_21 
REMARK       I    between atoms: N_13  and  C_14 
REMARK    5  A    between atoms: C_14  and  C_15 
REMARK    6  A    between atoms: C_21  and  C_22 
ROOT
HETATM    1  C   UNL     1      43.608 -16.250   6.964  1.00  0.00     0.181 C 
ENDROOT
BRANCH   1   2
HETATM    2  C   UNL     1      42.726 -15.845   5.743  1.00  0.00     0.245 C 
HETATM    3  N   UNL     1      43.278 -16.137   4.505  1.00  0.00    -0.325 N 
HETATM    4  H   UNL     1      44.243 -16.427   4.475  1.00  0.00     0.169 HD
HETATM    5  O   UNL     1      41.581 -15.426   5.915  1.00  0.00    -0.271 OA
BRANCH   3   6
HETATM    6  C   UNL     1      42.648 -16.063   3.239  1.00  0.00     0.037 A 
HETATM    7  C   UNL     1      42.609 -14.905   2.451  1.00  0.00     0.063 A 
HETATM    8  C   UNL     1      41.912 -14.930   1.231  1.00  0.00     0.087 A 
HETATM    9  N   UNL     1      41.713 -13.927   0.312  1.00  0.00    -0.234 NA
HETATM   10  C   UNL     1      41.290 -16.102   0.823  1.00  0.00     0.062 A 
HETATM   11  C   UNL     1      40.986 -14.459  -0.647  1.00  0.00     0.101 A 
HETATM   12  C   UNL     1      40.490 -13.780  -1.867  1.00  0.00     0.091 C 
HETATM   13  N   UNL     1      40.717 -15.779  -0.381  1.00  0.00    -0.343 N 
HETATM   14  H   UNL     1      40.179 -16.401  -0.966  1.00  0.00     0.167 HD
HETATM   15  C   UNL     1      41.315 -17.278   1.567  1.00  0.00     0.034 A 
HETATM   16  C   UNL     1      42.004 -17.229   2.788  1.00  0.00     0.032 A 
ENDBRANCH   3   6
ENDBRANCH   1   2
BRANCH   1  17
HETATM   17  N   UNL     1      43.917 -15.059   7.762  1.00  0.00    -0.343 N 
HETATM   18  C   UNL     1      44.616 -13.977   7.270  1.00  0.00     0.259 C 
HETATM   19  O   UNL     1      45.063 -13.966   6.125  1.00  0.00    -0.267 OA
HETATM   20  H   UNL     1      43.436 -14.932   8.642  1.00  0.00     0.163 HD
BRANCH  18  21
HETATM   21  C   UNL     1      44.822 -12.875   8.201  1.00  0.00     0.072 A 
HETATM   22  S   UNL     1      46.353 -12.138   8.433  1.00  0.00    -0.097 SA
HETATM   23  C   UNL     1      45.718 -11.000   9.540  1.00  0.00     0.050 A 
HETATM   24  C   UNL     1      44.369 -11.177   9.746  1.00  0.00     0.009 A 
HETATM   25  C   UNL     1      43.854 -12.258   8.975  1.00  0.00     0.025 A 
ENDBRANCH  18  21
ENDBRANCH   1  17
BRANCH   1  26
HETATM   26  C   UNL     1      44.850 -17.116   6.663  1.00  0.00     0.073 C 
BRANCH  26  27
HETATM   27  C   UNL     1      44.503 -18.585   6.533  1.00  0.00    -0.056 A 
HETATM   28  C   UNL     1      43.867 -19.261   7.585  1.00  0.00     0.007 A 
HETATM   29  C   UNL     1      43.598 -20.627   7.487  1.00  0.00     0.001 A 
HETATM   30  C   UNL     1      43.966 -21.332   6.343  1.00  0.00     0.000 A 
HETATM   31  C   UNL     1      44.594 -20.669   5.290  1.00  0.00     0.001 A 
HETATM   32  C   UNL     1      44.856 -19.302   5.382  1.00  0.00     0.007 A 
ENDBRANCH  26  27
ENDBRANCH   1  26
TORSDOF 6
ENDMDL
MODEL 5
REMARK VINA RESULT:      -8.2      3.666      8.003
REMARK  6 active torsions:
REMARK  status: ('A' for Active; 'I' for Inactive)
REMARK    1  A    between atoms: C_9  and  N_10 
REMARK       I    between atoms: N_10  and  C_11 
REMARK    2  A    between atoms: C_11  and  C_12 
REMARK    3  A    between atoms: C_12  and  N_13 
REMARK    4  A    between atoms: C_12  and  C_21 
REMARK       I    between atoms: N_13  and  C_14 
REMARK    5  A    between atoms: C_14  and  C_15 
REMARK    6  A    between atoms: C_21  and  C_22 
ROOT
HETATM    1  C   UNL     1      42.146 -12.519   6.138  1.00  0.00     0.181 C 
ENDROOT
BRANCH   1   2
HETATM    2  C   UNL     1      43.090 -13.643   5.613  1.00  0.00     0.245 C 
HETATM    3  N   UNL     1      42.916 -14.879   6.219  1.00  0.00    -0.325 N 
HETATM    4  H   UNL     1      42.330 -14.924   7.038  1.00  0.00     0.169 HD
HETATM    5  O   UNL     1      43.823 -13.438   4.645  1.00  0.00    -0.271 OA
BRANCH   3   6
HETATM    6  C   UNL     1      43.483 -16.118   5.833  1.00  0.00     0.037 A 
HETATM    7  C   UNL     1      43.137 -16.806   4.663  1.00  0.00     0.063 A 
HETATM    8  C   UNL     1      43.728 -18.054   4.403  1.00  0.00     0.087 A 
HETATM    9  N   UNL     1      43.531 -18.918   3.352  1.00  0.00    -0.234 NA
HETATM   10  C   UNL     1      44.651 -18.574   5.301  1.00  0.00     0.062 A 
HETATM   11  C   UNL     1      44.313 -19.951   3.585  1.00  0.00     0.101 A 
HETATM   12  C   UNL     1      44.455 -21.164   2.748  1.00  0.00     0.091 C 
HETATM   13  N   UNL     1      45.017 -19.777   4.751  1.00  0.00    -0.343 N 
HETATM   14  H   UNL     1      45.681 -20.429   5.142  1.00  0.00     0.167 HD
HETATM   15  C   UNL     1      45.034 -17.918   6.467  1.00  0.00     0.034 A 
HETATM   16  C   UNL     1      44.423 -16.680   6.716  1.00  0.00     0.032 A 
ENDBRANCH   3   6
ENDBRANCH   1   2
BRANCH   1  17
HETATM   17  N   UNL     1      42.516 -12.171   7.514  1.00  0.00    -0.343 N 
HETATM   18  C   UNL     1      42.436 -10.891   8.020  1.00  0.00     0.259 C 
HETATM   19  O   UNL     1      42.083  -9.943   7.322  1.00  0.00    -0.267 OA
HETATM   20  H   UNL     1      42.645 -12.920   8.181  1.00  0.00     0.163 HD
BRANCH  18  21
HETATM   21  C   UNL     1      42.833 -10.732   9.413  1.00  0.00     0.072 A 
HETATM   22  S   UNL     1      41.692 -10.583  10.685  1.00  0.00    -0.097 SA
HETATM   23  C   UNL     1      42.919 -10.517  11.874  1.00  0.00     0.050 A 
HETATM   24  C   UNL     1      44.177 -10.593  11.323  1.00  0.00     0.009 A 
HETATM   25  C   UNL     1      44.127 -10.716   9.905  1.00  0.00     0.025 A 
ENDBRANCH  18  21
ENDBRANCH   1  17
BRANCH   1  26
HETATM   26  C   UNL     1      40.630 -12.749   5.959  1.00  0.00     0.073 C 
BRANCH  26  27
HETATM   27  C   UNL     1      40.264 -13.038   4.517  1.00  0.00    -0.056 A 
HETATM   28  C   UNL     1      39.926 -14.339   4.115  1.00  0.00     0.007 A 
HETATM   29  C   UNL     1      39.643 -14.614   2.776  1.00  0.00     0.001 A 
HETATM   30  C   UNL     1      39.702 -13.597   1.826  1.00  0.00     0.000 A 
HETATM   31  C   UNL     1      40.033 -12.300   2.214  1.00  0.00     0.001 A 
HETATM   32  C   UNL     1      40.307 -12.020   3.554  1.00  0.00     0.007 A 
ENDBRANCH  26  27
ENDBRANCH   1  26
TORSDOF 6
ENDMDL
MODEL 6
REMARK VINA RESULT:      -8.1      2.967      7.327
REMARK  6 active torsions:
REMARK  status: ('A' for Active; 'I' for Inactive)
REMARK    1  A    between atoms: C_9  and  N_10 
REMARK       I    between atoms: N_10  and  C_11 
REMARK    2  A    between atoms: C_11  and  C_12 
REMARK    3  A    between atoms: C_12  and  N_13 
REMARK    4  A    between atoms: C_12  and  C_21 
REMARK       I    between atoms: N_13  and  C_14 
REMARK    5  A    between atoms: C_14  and  C_15 
REMARK    6  A    between atoms: C_21  and  C_22 
ROOT
HETATM    1  C   UNL     1      42.651 -15.937   2.481  1.00  0.00     0.181 C 
ENDROOT
BRANCH   1   2
HETATM    2  C   UNL     1      43.072 -14.724   3.365  1.00  0.00     0.245 C 
HETATM    3  N   UNL     1      42.467 -14.675   4.613  1.00  0.00    -0.325 N 
HETATM    4  H   UNL     1      41.704 -15.309   4.792  1.00  0.00     0.169 HD
HETATM    5  O   UNL     1      43.974 -13.970   2.998  1.00  0.00    -0.271 OA
BRANCH   3   6
HETATM    6  C   UNL     1      42.782 -13.815   5.693  1.00  0.00     0.037 A 
HETATM    7  C   UNL     1      43.856 -14.020   6.568  1.00  0.00     0.063 A 
HETATM    8  C   UNL     1      44.047 -13.129   7.638  1.00  0.00     0.087 A 
HETATM    9  N   UNL     1      44.999 -13.137   8.629  1.00  0.00    -0.234 NA
HETATM   10  C   UNL     1      43.179 -12.057   7.799  1.00  0.00     0.062 A 
HETATM   11  C   UNL     1      44.735 -12.096   9.390  1.00  0.00     0.101 A 
HETATM   12  C   UNL     1      45.468 -11.675  10.605  1.00  0.00     0.091 C 
HETATM   13  N   UNL     1      43.645 -11.409   8.914  1.00  0.00    -0.343 N 
HETATM   14  H   UNL     1      43.248 -10.576   9.324  1.00  0.00     0.167 HD
HETATM   15  C   UNL     1      42.108 -11.809   6.945  1.00  0.00     0.034 A 
HETATM   16  C   UNL     1      41.926 -12.717   5.892  1.00  0.00     0.032 A 
ENDBRANCH   3   6
ENDBRANCH   1   2
BRANCH   1  17
HETATM   17  N   UNL     1      41.807 -15.470   1.377  1.00  0.00    -0.343 N 
HETATM   18  C   UNL     1      40.566 -14.900   1.560  1.00  0.00     0.259 C 
HETATM   19  O   UNL     1      40.068 -14.786   2.678  1.00  0.00    -0.267 OA
HETATM   20  H   UNL     1      42.225 -15.375   0.460  1.00  0.00     0.163 HD
BRANCH  18  21
HETATM   21  C   UNL     1      39.872 -14.482   0.348  1.00  0.00     0.072 A 
HETATM   22  S   UNL     1      40.585 -14.597  -1.208  1.00  0.00    -0.097 SA
HETATM   23  C   UNL     1      39.175 -14.011  -1.976  1.00  0.00     0.050 A 
HETATM   24  C   UNL     1      38.179 -13.717  -1.074  1.00  0.00     0.009 A 
HETATM   25  C   UNL     1      38.582 -13.988   0.265  1.00  0.00     0.025 A 
ENDBRANCH  18  21
ENDBRANCH   1  17
BRANCH   1  26
HETATM   26  C   UNL     1      42.060 -17.158   3.219  1.00  0.00     0.073 C 
BRANCH  26  27
HETATM   27  C   UNL     1      42.959 -18.374   3.119  1.00  0.00    -0.056 A 
HETATM   28  C   UNL     1      42.894 -19.217   1.999  1.00  0.00     0.007 A 
HETATM   29  C   UNL     1      43.683 -20.367   1.933  1.00  0.00     0.001 A 
HETATM   30  C   UNL     1      44.536 -20.691   2.986  1.00  0.00     0.000 A 
HETATM   31  C   UNL     1      44.612 -19.858   4.101  1.00  0.00     0.001 A 
HETATM   32  C   UNL     1      43.832 -18.703   4.165  1.00  0.00     0.007 A 
ENDBRANCH  26  27
ENDBRANCH   1  26
TORSDOF 6
ENDMDL
MODEL 7
REMARK VINA RESULT:      -8.0      2.041      2.880
REMARK  6 active torsions:
REMARK  status: ('A' for Active; 'I' for Inactive)
REMARK    1  A    between atoms: C_9  and  N_10 
REMARK       I    between atoms: N_10  and  C_11 
REMARK    2  A    between atoms: C_11  and  C_12 
REMARK    3  A    between atoms: C_12  and  N_13 
REMARK    4  A    between atoms: C_12  and  C_21 
REMARK       I    between atoms: N_13  and  C_14 
REMARK    5  A    between atoms: C_14  and  C_15 
REMARK    6  A    between atoms: C_21  and  C_22 
ROOT
HETATM    1  C   UNL     1      41.838 -15.928   3.163  1.00  0.00     0.181 C 
ENDROOT
BRANCH   1   2
HETATM    2  C   UNL     1      40.880 -15.946   1.933  1.00  0.00     0.245 C 
HETATM    3  N   UNL     1      41.020 -14.870   1.070  1.00  0.00    -0.325 N 
HETATM    4  H   UNL     1      41.593 -14.096   1.370  1.00  0.00     0.169 HD
HETATM    5  O   UNL     1      40.166 -16.926   1.716  1.00  0.00    -0.271 OA
BRANCH   3   6
HETATM    6  C   UNL     1      40.434 -14.705  -0.209  1.00  0.00     0.037 A 
HETATM    7  C   UNL     1      39.288 -13.937  -0.451  1.00  0.00     0.063 A 
HETATM    8  C   UNL     1      38.762 -13.883  -1.753  1.00  0.00     0.087 A 
HETATM    9  N   UNL     1      37.649 -13.230  -2.225  1.00  0.00    -0.234 NA
HETATM   10  C   UNL     1      39.395 -14.578  -2.775  1.00  0.00     0.062 A 
HETATM   11  C   UNL     1      37.588 -13.506  -3.510  1.00  0.00     0.101 A 
HETATM   12  C   UNL     1      36.557 -13.049  -4.469  1.00  0.00     0.091 C 
HETATM   13  N   UNL     1      38.634 -14.312  -3.886  1.00  0.00    -0.343 N 
HETATM   14  H   UNL     1      38.806 -14.660  -4.818  1.00  0.00     0.167 HD
HETATM   15  C   UNL     1      40.543 -15.341  -2.583  1.00  0.00     0.034 A 
HETATM   16  C   UNL     1      41.044 -15.393  -1.273  1.00  0.00     0.032 A 
ENDBRANCH   3   6
ENDBRANCH   1   2
BRANCH   1  17
HETATM   17  N   UNL     1      41.638 -14.690   3.922  1.00  0.00    -0.343 N 
HETATM   18  C   UNL     1      41.045 -14.651   5.166  1.00  0.00     0.259 C 
HETATM   19  O   UNL     1      40.606 -15.666   5.702  1.00  0.00    -0.267 OA
HETATM   20  H   UNL     1      42.125 -13.857   3.620  1.00  0.00     0.163 HD
BRANCH  18  21
HETATM   21  C   UNL     1      40.939 -13.333   5.779  1.00  0.00     0.072 A 
HETATM   22  S   UNL     1      39.435 -12.647   6.234  1.00  0.00    -0.097 SA
HETATM   23  C   UNL     1      40.184 -11.252   6.878  1.00  0.00     0.050 A 
HETATM   24  C   UNL     1      41.552 -11.291   6.743  1.00  0.00     0.009 A 
HETATM   25  C   UNL     1      41.986 -12.491   6.109  1.00  0.00     0.025 A 
ENDBRANCH  18  21
ENDBRANCH   1  17
BRANCH   1  26
HETATM   26  C   UNL     1      43.326 -16.233   2.884  1.00  0.00     0.073 C 
BRANCH  26  27
HETATM   27  C   UNL     1      43.636 -17.712   2.999  1.00  0.00    -0.056 A 
HETATM   28  C   UNL     1      44.068 -18.255   4.219  1.00  0.00     0.007 A 
HETATM   29  C   UNL     1      44.407 -19.606   4.310  1.00  0.00     0.001 A 
HETATM   30  C   UNL     1      44.326 -20.425   3.185  1.00  0.00     0.000 A 
HETATM   31  C   UNL     1      43.894 -19.896   1.970  1.00  0.00     0.001 A 
HETATM   32  C   UNL     1      43.545 -18.548   1.879  1.00  0.00     0.007 A 
ENDBRANCH  26  27
ENDBRANCH   1  26
TORSDOF 6
ENDMDL
MODEL 8
REMARK VINA RESULT:      -7.9      2.819      7.998
REMARK  6 active torsions:
REMARK  status: ('A' for Active; 'I' for Inactive)
REMARK    1  A    between atoms: C_9  and  N_10 
REMARK       I    between atoms: N_10  and  C_11 
REMARK    2  A    between atoms: C_11  and  C_12 
REMARK    3  A    between atoms: C_12  and  N_13 
REMARK    4  A    between atoms: C_12  and  C_21 
REMARK       I    between atoms: N_13  and  C_14 
REMARK    5  A    between atoms: C_14  and  C_15 
REMARK    6  A    between atoms: C_21  and  C_22 
ROOT
HETATM    1  C   UNL     1      42.087 -15.443   2.382  1.00  0.00     0.181 C 
ENDROOT
BRANCH   1   2
HETATM    2  C   UNL     1      42.694 -14.365   3.332  1.00  0.00     0.245 C 
HETATM    3  N   UNL     1      42.024 -14.208   4.536  1.00  0.00    -0.325 N 
HETATM    4  H   UNL     1      41.131 -14.663   4.642  1.00  0.00     0.169 HD
HETATM    5  O   UNL     1      43.761 -13.818   3.051  1.00  0.00    -0.271 OA
BRANCH   3   6
HETATM    6  C   UNL     1      42.437 -13.455   5.663  1.00  0.00     0.037 A 
HETATM    7  C   UNL     1      43.535 -13.788   6.466  1.00  0.00     0.063 A 
HETATM    8  C   UNL     1      43.826 -12.997   7.590  1.00  0.00     0.087 A 
HETATM    9  N   UNL     1      44.819 -13.136   8.530  1.00  0.00    -0.234 NA
HETATM   10  C   UNL     1      43.030 -11.895   7.876  1.00  0.00     0.062 A 
HETATM   11  C   UNL     1      44.650 -12.146   9.381  1.00  0.00     0.101 A 
HETATM   12  C   UNL     1      45.460 -11.864  10.588  1.00  0.00     0.091 C 
HETATM   13  N   UNL     1      43.583 -11.364   9.014  1.00  0.00    -0.343 N 
HETATM   14  H   UNL     1      43.254 -10.546   9.505  1.00  0.00     0.167 HD
HETATM   15  C   UNL     1      41.938 -11.521   7.098  1.00  0.00     0.034 A 
HETATM   16  C   UNL     1      41.656 -12.331   5.988  1.00  0.00     0.032 A 
ENDBRANCH   3   6
ENDBRANCH   1   2
BRANCH   1  17
HETATM   17  N   UNL     1      42.845 -16.691   2.509  1.00  0.00    -0.343 N 
HETATM   18  C   UNL     1      42.605 -17.627   3.491  1.00  0.00     0.259 C 
HETATM   19  O   UNL     1      41.753 -17.448   4.358  1.00  0.00    -0.267 OA
HETATM   20  H   UNL     1      43.433 -16.977   1.737  1.00  0.00     0.163 HD
BRANCH  18  21
HETATM   21  C   UNL     1      43.449 -18.816   3.458  1.00  0.00     0.072 A 
HETATM   22  S   UNL     1      44.213 -19.443   4.860  1.00  0.00    -0.097 SA
HETATM   23  C   UNL     1      44.878 -20.760   3.995  1.00  0.00     0.050 A 
HETATM   24  C   UNL     1      44.542 -20.725   2.662  1.00  0.00     0.009 A 
HETATM   25  C   UNL     1      43.719 -19.604   2.353  1.00  0.00     0.025 A 
ENDBRANCH  18  21
ENDBRANCH   1  17
BRANCH   1  26
HETATM   26  C   UNL     1      41.858 -15.020   0.915  1.00  0.00     0.073 C 
BRANCH  26  27
HETATM   27  C   UNL     1      40.406 -14.682   0.639  1.00  0.00    -0.056 A 
HETATM   28  C   UNL     1      40.032 -14.091  -0.577  1.00  0.00     0.007 A 
HETATM   29  C   UNL     1      38.704 -13.729  -0.808  1.00  0.00     0.001 A 
HETATM   30  C   UNL     1      37.739 -13.946   0.174  1.00  0.00     0.000 A 
HETATM   31  C   UNL     1      38.099 -14.537   1.384  1.00  0.00     0.001 A 
HETATM   32  C   UNL     1      39.424 -14.909   1.613  1.00  0.00     0.007 A 
ENDBRANCH  26  27
ENDBRANCH   1  26
TORSDOF 6
ENDMDL
MODEL 9
REMARK VINA RESULT:      -7.7      2.112      5.365
REMARK  6 active torsions:
REMARK  status: ('A' for Active; 'I' for Inactive)
REMARK    1  A    between atoms: C_9  and  N_10 
REMARK       I    between atoms: N_10  and  C_11 
REMARK    2  A    between atoms: C_11  and  C_12 
REMARK    3  A    between atoms: C_12  and  N_13 
REMARK    4  A    between atoms: C_12  and  C_21 
REMARK       I    between atoms: N_13  and  C_14 
REMARK    5  A    between atoms: C_14  and  C_15 
REMARK    6  A    between atoms: C_21  and  C_22 
ROOT
HETATM    1  C   UNL     1      41.718 -16.809   3.709  1.00  0.00     0.181 C 
ENDROOT
BRANCH   1   2
HETATM    2  C   UNL     1      40.716 -16.511   2.552  1.00  0.00     0.245 C 
HETATM    3  N   UNL     1      40.445 -15.166   2.350  1.00  0.00    -0.325 N 
HETATM    4  H   UNL     1      40.770 -14.509   3.043  1.00  0.00     0.169 HD
HETATM    5  O   UNL     1      40.328 -17.419   1.816  1.00  0.00    -0.271 OA
BRANCH   3   6
HETATM    6  C   UNL     1      39.734 -14.580   1.274  1.00  0.00     0.037 A 
HETATM    7  C   UNL     1      40.346 -14.030   0.140  1.00  0.00     0.063 A 
HETATM    8  C   UNL     1      39.546 -13.429  -0.846  1.00  0.00     0.087 A 
HETATM    9  N   UNL     1      39.912 -12.807  -2.017  1.00  0.00    -0.234 NA
HETATM   10  C   UNL     1      38.167 -13.404  -0.687  1.00  0.00     0.062 A 
HETATM   11  C   UNL     1      38.790 -12.406  -2.575  1.00  0.00     0.101 A 
HETATM   12  C   UNL     1      38.648 -11.667  -3.851  1.00  0.00     0.091 C 
HETATM   13  N   UNL     1      37.708 -12.757  -1.806  1.00  0.00    -0.343 N 
HETATM   14  H   UNL     1      36.742 -12.561  -2.023  1.00  0.00     0.167 HD
HETATM   15  C   UNL     1      37.517 -13.950   0.416  1.00  0.00     0.034 A 
HETATM   16  C   UNL     1      38.334 -14.533   1.396  1.00  0.00     0.032 A 
ENDBRANCH   3   6
ENDBRANCH   1   2
BRANCH   1  17
HETATM   17  N   UNL     1      42.271 -18.157   3.544  1.00  0.00    -0.343 N 
HETATM   18  C   UNL     1      43.483 -18.410   2.937  1.00  0.00     0.259 C 
HETATM   19  O   UNL     1      44.163 -17.507   2.455  1.00  0.00    -0.267 OA
HETATM   20  H   UNL     1      41.852 -18.916   4.065  1.00  0.00     0.163 HD
BRANCH  18  21
HETATM   21  C   UNL     1      43.881 -19.811   2.871  1.00  0.00     0.072 A 
HETATM   22  S   UNL     1      44.715 -20.593   4.149  1.00  0.00    -0.097 SA
HETATM   23  C   UNL     1      44.715 -22.092   3.328  1.00  0.00     0.050 A 
HETATM   24  C   UNL     1      44.105 -22.007   2.098  1.00  0.00     0.009 A 
HETATM   25  C   UNL     1      43.626 -20.692   1.835  1.00  0.00     0.025 A 
ENDBRANCH  18  21
ENDBRANCH   1  17
BRANCH   1  26
HETATM   26  C   UNL     1      41.219 -16.531   5.144  1.00  0.00     0.073 C 
BRANCH  26  27
HETATM   27  C   UNL     1      41.177 -15.049   5.456  1.00  0.00    -0.056 A 
HETATM   28  C   UNL     1      42.362 -14.301   5.518  1.00  0.00     0.007 A 
HETATM   29  C   UNL     1      42.327 -12.948   5.860  1.00  0.00     0.001 A 
HETATM   30  C   UNL     1      41.111 -12.332   6.149  1.00  0.00     0.000 A 
HETATM   31  C   UNL     1      39.927 -13.064   6.086  1.00  0.00     0.001 A 
HETATM   32  C   UNL     1      39.959 -14.414   5.735  1.00  0.00     0.007 A 
ENDBRANCH  26  27
ENDBRANCH   1  26
TORSDOF 6
ENDMDL
MODEL 10
REMARK VINA RESULT:      -7.6      3.945      7.975
REMARK  6 active torsions:
REMARK  status: ('A' for Active; 'I' for Inactive)
REMARK    1  A    between atoms: C_9  and  N_10 
REMARK       I    between atoms: N_10  and  C_11 
REMARK    2  A    between atoms: C_11  and  C_12 
REMARK    3  A    between atoms: C_12  and  N_13 
REMARK    4  A    between atoms: C_12  and  C_21 
REMARK       I    between atoms: N_13  and  C_14 
REMARK    5  A    between atoms: C_14  and  C_15 
REMARK    6  A    between atoms: C_21  and  C_22 
ROOT
HETATM    1  C   UNL     1      43.906 -14.487   7.143  1.00  0.00     0.181 C 
ENDROOT
BRANCH   1   2
HETATM    2  C   UNL     1      44.027 -15.883   6.457  1.00  0.00     0.245 C 
HETATM    3  N   UNL     1      43.136 -16.098   5.416  1.00  0.00    -0.325 N 
HETATM    4  H   UNL     1      42.391 -15.431   5.287  1.00  0.00     0.169 HD
HETATM    5  O   UNL     1      44.944 -16.647   6.760  1.00  0.00    -0.271 OA
BRANCH   3   6
HETATM    6  C   UNL     1      43.128 -17.174   4.495  1.00  0.00     0.037 A 
HETATM    7  C   UNL     1      43.943 -18.307   4.608  1.00  0.00     0.063 A 
HETATM    8  C   UNL     1      43.888 -19.292   3.608  1.00  0.00     0.087 A 
HETATM    9  N   UNL     1      44.600 -20.462   3.486  1.00  0.00    -0.234 NA
HETATM   10  C   UNL     1      43.019 -19.132   2.537  1.00  0.00     0.062 A 
HETATM   11  C   UNL     1      44.185 -21.020   2.369  1.00  0.00     0.101 A 
HETATM   12  C   UNL     1      44.659 -22.295   1.783  1.00  0.00     0.091 C 
HETATM   13  N   UNL     1      43.219 -20.251   1.769  1.00  0.00    -0.343 N 
HETATM   14  H   UNL     1      42.746 -20.468   0.903  1.00  0.00     0.167 HD
HETATM   15  C   UNL     1      42.181 -18.030   2.392  1.00  0.00     0.034 A 
HETATM   16  C   UNL     1      42.261 -17.051   3.394  1.00  0.00     0.032 A 
ENDBRANCH   3   6
ENDBRANCH   1   2
BRANCH   1  17
HETATM   17  N   UNL     1      42.760 -13.764   6.584  1.00  0.00    -0.343 N 
HETATM   18  C   UNL     1      42.734 -13.257   5.303  1.00  0.00     0.259 C 
HETATM   19  O   UNL     1      43.705 -13.349   4.555  1.00  0.00    -0.267 OA
HETATM   20  H   UNL     1      41.878 -13.806   7.078  1.00  0.00     0.163 HD
BRANCH  18  21
HETATM   21  C   UNL     1      41.506 -12.577   4.912  1.00  0.00     0.072 A 
HETATM   22  S   UNL     1      41.317 -10.876   5.029  1.00  0.00    -0.097 SA
HETATM   23  C   UNL     1      39.747 -10.932   4.354  1.00  0.00     0.050 A 
HETATM   24  C   UNL     1      39.359 -12.217   4.053  1.00  0.00     0.009 A 
HETATM   25  C   UNL     1      40.373 -13.164   4.376  1.00  0.00     0.025 A 
ENDBRANCH  18  21
ENDBRANCH   1  17
BRANCH   1  26
HETATM   26  C   UNL     1      45.191 -13.632   7.201  1.00  0.00     0.073 C 
BRANCH  26  27
HETATM   27  C   UNL     1      45.250 -12.777   8.451  1.00  0.00    -0.056 A 
HETATM   28  C   UNL     1      44.353 -12.998   9.507  1.00  0.00     0.007 A 
HETATM   29  C   UNL     1      44.372 -12.175  10.634  1.00  0.00     0.001 A 
HETATM   30  C   UNL     1      45.279 -11.120  10.715  1.00  0.00     0.000 A 
HETATM   31  C   UNL     1      46.177 -10.894   9.673  1.00  0.00     0.001 A 
HETATM   32  C   UNL     1      46.167 -11.722   8.550  1.00  0.00     0.007 A 
ENDBRANCH  26  27
ENDBRANCH   1  26
TORSDOF 6
ENDMDL
