MODEL 1
REMARK VINA RESULT:      -8.0      0.000      0.000
REMARK  5 active torsions:
REMARK  status: ('A' for Active; 'I' for Inactive)
REMARK    1  A    between atoms: C_2  and  O_3 
REMARK    2  A    between atoms: O_3  and  C_4 
REMARK    3  A    between atoms: C_5  and  C_6 
REMARK       I    between atoms: C_6  and  N_7 
REMARK    4  A    between atoms: N_7  and  N_8 
REMARK    5  A    between atoms: C_9  and  C_10 
ROOT
HETATM    1  C   UNL     1      41.718 -15.134   0.380  1.00  0.00     0.274 C 
HETATM    2  N   UNL     1      42.584 -16.214   0.403  1.00  0.00    -0.243 N 
HETATM    3  O   UNL     1      41.206 -14.628   1.377  1.00  0.00    -0.266 OA
HETATM    4  H   UNL     1      42.979 -16.562  -0.467  1.00  0.00     0.192 HD
ENDROOT
BRANCH   2   5
HETATM    5  N   UNL     1      42.799 -16.875   1.576  1.00  0.00    -0.183 NA
HETATM    6  C   UNL     1      43.780 -17.718   1.589  1.00  0.00     0.152 C 
BRANCH   6   7
HETATM    7  C   UNL     1      44.019 -18.498   2.786  1.00  0.00     0.011 A 
HETATM    8  C   UNL     1      44.219 -19.913   2.892  1.00  0.00     0.004 A 
HETATM    9  C   UNL     1      44.375 -20.211   4.249  1.00  0.00     0.043 A 
HETATM   10  C   UNL     1      44.273 -20.975   1.965  1.00  0.00     0.014 A 
HETATM   11  C   UNL     1      44.577 -21.512   4.723  1.00  0.00     0.030 A 
HETATM   12  N   UNL     1      44.285 -19.026   4.940  1.00  0.00    -0.364 N 
HETATM   13  C   UNL     1      44.624 -22.545   3.782  1.00  0.00     0.002 A 
HETATM   14  C   UNL     1      44.477 -22.283   2.423  1.00  0.00     0.001 A 
HETATM   15  H   UNL     1      44.357 -18.936   5.943  1.00  0.00     0.165 HD
HETATM   16  C   UNL     1      44.072 -17.992   4.072  1.00  0.00     0.102 A 
ENDBRANCH   6   7
ENDBRANCH   2   5
BRANCH   1  17
HETATM   17  C   UNL     1      41.345 -14.605  -0.969  1.00  0.00     0.068 A 
HETATM   18  C   UNL     1      41.765 -13.363  -1.484  1.00  0.00     0.084 A 
HETATM   19  C   UNL     1      41.404 -13.004  -2.791  1.00  0.00     0.039 A 
HETATM   20  C   UNL     1      40.602 -13.846  -3.567  1.00  0.00     0.022 A 
HETATM   21  C   UNL     1      40.159 -15.055  -3.041  1.00  0.00     0.012 A 
HETATM   22  C   UNL     1      40.525 -15.437  -1.755  1.00  0.00     0.039 A 
HETATM   23 BR   UNL     1      39.075 -16.193  -4.090  1.00  0.00    -0.051 Br
BRANCH  18  24
HETATM   24  O   UNL     1      42.550 -12.559  -0.694  1.00  0.00    -0.350 OA
BRANCH  24  25
HETATM   25  C   UNL     1      42.198 -11.170  -0.679  1.00  0.00     0.171 C 
HETATM   26  C   UNL     1      43.379 -10.378  -1.211  1.00  0.00     0.034 C 
ENDBRANCH  24  25
ENDBRANCH  18  24
ENDBRANCH   1  17
TORSDOF 5
ENDMDL
MODEL 2
REMARK VINA RESULT:      -8.0      1.850      2.391
REMARK  5 active torsions:
REMARK  status: ('A' for Active; 'I' for Inactive)
REMARK    1  A    between atoms: C_2  and  O_3 
REMARK    2  A    between atoms: O_3  and  C_4 
REMARK    3  A    between atoms: C_5  and  C_6 
REMARK       I    between atoms: C_6  and  N_7 
REMARK    4  A    between atoms: N_7  and  N_8 
REMARK    5  A    between atoms: C_9  and  C_10 
ROOT
HETATM    1  C   UNL     1      41.656 -15.855   0.971  1.00  0.00     0.274 C 
HETATM    2  N   UNL     1      41.502 -16.009   2.339  1.00  0.00    -0.243 N 
HETATM    3  O   UNL     1      42.096 -16.721   0.217  1.00  0.00    -0.266 OA
HETATM    4  H   UNL     1      41.114 -15.249   2.891  1.00  0.00     0.192 HD
ENDROOT
BRANCH   2   5
HETATM    5  N   UNL     1      41.987 -17.129   2.946  1.00  0.00    -0.183 NA
HETATM    6  C   UNL     1      43.238 -17.108   3.276  1.00  0.00     0.152 C 
BRANCH   6   7
HETATM    7  C   UNL     1      43.827 -18.292   3.867  1.00  0.00     0.011 A 
HETATM    8  C   UNL     1      43.952 -19.597   3.290  1.00  0.00     0.004 A 
HETATM    9  C   UNL     1      44.554 -20.420   4.246  1.00  0.00     0.043 A 
HETATM   10  C   UNL     1      43.601 -20.165   2.047  1.00  0.00     0.014 A 
HETATM   11  C   UNL     1      44.817 -21.776   4.024  1.00  0.00     0.030 A 
HETATM   12  N   UNL     1      44.796 -19.646   5.356  1.00  0.00    -0.364 N 
HETATM   13  C   UNL     1      44.457 -22.313   2.784  1.00  0.00     0.002 A 
HETATM   14  C   UNL     1      43.860 -21.521   1.808  1.00  0.00     0.001 A 
HETATM   15  H   UNL     1      45.224 -19.977   6.209  1.00  0.00     0.165 HD
HETATM   16  C   UNL     1      44.365 -18.367   5.139  1.00  0.00     0.102 A 
ENDBRANCH   6   7
ENDBRANCH   2   5
BRANCH   1  17
HETATM   17  C   UNL     1      41.317 -14.511   0.407  1.00  0.00     0.068 A 
HETATM   18  C   UNL     1      41.833 -13.291   0.887  1.00  0.00     0.084 A 
HETATM   19  C   UNL     1      41.492 -12.098   0.233  1.00  0.00     0.039 A 
HETATM   20  C   UNL     1      40.618 -12.106  -0.858  1.00  0.00     0.022 A 
HETATM   21  C   UNL     1      40.083 -13.309  -1.305  1.00  0.00     0.012 A 
HETATM   22  C   UNL     1      40.427 -14.504  -0.682  1.00  0.00     0.039 A 
HETATM   23 BR   UNL     1      38.902 -13.319  -2.780  1.00  0.00    -0.051 Br
BRANCH  18  24
HETATM   24  O   UNL     1      42.687 -13.319   1.963  1.00  0.00    -0.350 OA
BRANCH  24  25
HETATM   25  C   UNL     1      42.178 -12.744   3.173  1.00  0.00     0.171 C 
HETATM   26  C   UNL     1      42.944 -13.343   4.338  1.00  0.00     0.034 C 
ENDBRANCH  24  25
ENDBRANCH  18  24
ENDBRANCH   1  17
TORSDOF 5
ENDMDL
MODEL 3
REMARK VINA RESULT:      -8.0      3.450      4.370
REMARK  5 active torsions:
REMARK  status: ('A' for Active; 'I' for Inactive)
REMARK    1  A    between atoms: C_2  and  O_3 
REMARK    2  A    between atoms: O_3  and  C_4 
REMARK    3  A    between atoms: C_5  and  C_6 
REMARK       I    between atoms: C_6  and  N_7 
REMARK    4  A    between atoms: N_7  and  N_8 
REMARK    5  A    between atoms: C_9  and  C_10 
ROOT
HETATM    1  C   UNL     1      40.630 -14.774   4.192  1.00  0.00     0.274 C 
HETATM    2  N   UNL     1      41.764 -15.294   3.592  1.00  0.00    -0.243 N 
HETATM    3  O   UNL     1      40.202 -15.119   5.291  1.00  0.00    -0.266 OA
HETATM    4  H   UNL     1      42.063 -14.942   2.686  1.00  0.00     0.192 HD
ENDROOT
BRANCH   2   5
HETATM    5  N   UNL     1      42.397 -16.359   4.164  1.00  0.00    -0.183 NA
HETATM    6  C   UNL     1      43.126 -17.083   3.379  1.00  0.00     0.152 C 
BRANCH   6   7
HETATM    7  C   UNL     1      43.772 -18.264   3.914  1.00  0.00     0.011 A 
HETATM    8  C   UNL     1      43.899 -19.554   3.302  1.00  0.00     0.004 A 
HETATM    9  C   UNL     1      44.566 -20.381   4.209  1.00  0.00     0.043 A 
HETATM   10  C   UNL     1      43.500 -20.104   2.066  1.00  0.00     0.014 A 
HETATM   11  C   UNL     1      44.851 -21.726   3.945  1.00  0.00     0.030 A 
HETATM   12  N   UNL     1      44.845 -19.625   5.323  1.00  0.00    -0.364 N 
HETATM   13  C   UNL     1      44.443 -22.245   2.713  1.00  0.00     0.002 A 
HETATM   14  C   UNL     1      43.779 -21.448   1.784  1.00  0.00     0.001 A 
HETATM   15  H   UNL     1      45.322 -19.964   6.146  1.00  0.00     0.165 HD
HETATM   16  C   UNL     1      44.374 -18.353   5.156  1.00  0.00     0.102 A 
ENDBRANCH   6   7
ENDBRANCH   2   5
BRANCH   1  17
HETATM   17  C   UNL     1      39.855 -13.770   3.398  1.00  0.00     0.068 A 
HETATM   18  C   UNL     1      39.414 -13.967   2.075  1.00  0.00     0.084 A 
HETATM   19  C   UNL     1      38.637 -12.977   1.456  1.00  0.00     0.039 A 
HETATM   20  C   UNL     1      38.334 -11.786   2.123  1.00  0.00     0.022 A 
HETATM   21  C   UNL     1      38.802 -11.581   3.416  1.00  0.00     0.012 A 
HETATM   22  C   UNL     1      39.556 -12.561   4.053  1.00  0.00     0.039 A 
HETATM   23 BR   UNL     1      38.391  -9.972   4.318  1.00  0.00    -0.051 Br
BRANCH  18  24
HETATM   24  O   UNL     1      39.732 -15.147   1.448  1.00  0.00    -0.350 OA
BRANCH  24  25
HETATM   25  C   UNL     1      40.497 -15.022   0.242  1.00  0.00     0.171 C 
HETATM   26  C   UNL     1      41.424 -16.220   0.145  1.00  0.00     0.034 C 
ENDBRANCH  24  25
ENDBRANCH  18  24
ENDBRANCH   1  17
TORSDOF 5
ENDMDL
MODEL 4
REMARK VINA RESULT:      -7.9      4.037      8.645
REMARK  5 active torsions:
REMARK  status: ('A' for Active; 'I' for Inactive)
REMARK    1  A    between atoms: C_2  and  O_3 
REMARK    2  A    between atoms: O_3  and  C_4 
REMARK    3  A    between atoms: C_5  and  C_6 
REMARK       I    between atoms: C_6  and  N_7 
REMARK    4  A    between atoms: N_7  and  N_8 
REMARK    5  A    between atoms: C_9  and  C_10 
ROOT
HETATM    1  C   UNL     1      43.407 -16.857   3.107  1.00  0.00     0.274 C 
HETATM    2  N   UNL     1      42.432 -16.240   3.873  1.00  0.00    -0.243 N 
HETATM    3  O   UNL     1      43.846 -16.414   2.047  1.00  0.00    -0.266 OA
HETATM    4  H   UNL     1      42.135 -16.664   4.748  1.00  0.00     0.192 HD
ENDROOT
BRANCH   2   5
HETATM    5  N   UNL     1      41.792 -15.140   3.383  1.00  0.00    -0.183 NA
HETATM    6  C   UNL     1      40.799 -14.695   4.081  1.00  0.00     0.152 C 
BRANCH   6   7
HETATM    7  C   UNL     1      40.040 -13.567   3.581  1.00  0.00     0.011 A 
HETATM    8  C   UNL     1      39.094 -13.547   2.505  1.00  0.00     0.004 A 
HETATM    9  C   UNL     1      38.647 -12.231   2.367  1.00  0.00     0.043 A 
HETATM   10  C   UNL     1      38.580 -14.522   1.624  1.00  0.00     0.014 A 
HETATM   11  C   UNL     1      37.719 -11.841   1.394  1.00  0.00     0.030 A 
HETATM   12  N   UNL     1      39.285 -11.480   3.326  1.00  0.00    -0.364 N 
HETATM   13  C   UNL     1      37.228 -12.827   0.534  1.00  0.00     0.002 A 
HETATM   14  C   UNL     1      37.649 -14.149   0.647  1.00  0.00     0.001 A 
HETATM   15  H   UNL     1      39.158 -10.487   3.461  1.00  0.00     0.165 HD
HETATM   16  C   UNL     1      40.122 -12.272   4.061  1.00  0.00     0.102 A 
ENDBRANCH   6   7
ENDBRANCH   2   5
BRANCH   1  17
HETATM   17  C   UNL     1      43.898 -18.184   3.593  1.00  0.00     0.068 A 
HETATM   18  C   UNL     1      44.344 -18.439   4.904  1.00  0.00     0.084 A 
HETATM   19  C   UNL     1      44.719 -19.743   5.260  1.00  0.00     0.039 A 
HETATM   20  C   UNL     1      44.694 -20.775   4.319  1.00  0.00     0.022 A 
HETATM   21  C   UNL     1      44.287 -20.511   3.016  1.00  0.00     0.012 A 
HETATM   22  C   UNL     1      43.891 -19.229   2.651  1.00  0.00     0.039 A 
HETATM   23 BR   UNL     1      44.252 -21.908   1.743  1.00  0.00    -0.051 Br
BRANCH  18  24
HETATM   24  O   UNL     1      44.359 -17.400   5.804  1.00  0.00    -0.350 OA
BRANCH  24  25
HETATM   25  C   UNL     1      44.034 -17.746   7.156  1.00  0.00     0.171 C 
HETATM   26  C   UNL     1      42.581 -17.380   7.399  1.00  0.00     0.034 C 
ENDBRANCH  24  25
ENDBRANCH  18  24
ENDBRANCH   1  17
TORSDOF 5
ENDMDL
MODEL 5
REMARK VINA RESULT:      -7.7      2.964      8.639
REMARK  5 active torsions:
REMARK  status: ('A' for Active; 'I' for Inactive)
REMARK    1  A    between atoms: C_2  and  O_3 
REMARK    2  A    between atoms: O_3  and  C_4 
REMARK    3  A    between atoms: C_5  and  C_6 
REMARK       I    between atoms: C_6  and  N_7 
REMARK    4  A    between atoms: N_7  and  N_8 
REMARK    5  A    between atoms: C_9  and  C_10 
ROOT
HETATM    1  C   UNL     1      41.714 -17.057   1.363  1.00  0.00     0.274 C 
HETATM    2  N   UNL     1      42.291 -16.406   0.286  1.00  0.00    -0.243 N 
HETATM    3  O   UNL     1      40.534 -16.954   1.690  1.00  0.00    -0.266 OA
HETATM    4  H   UNL     1      43.273 -16.558   0.071  1.00  0.00     0.192 HD
ENDROOT
BRANCH   2   5
HETATM    5  N   UNL     1      41.569 -15.471  -0.397  1.00  0.00    -0.183 NA
HETATM    6  C   UNL     1      41.361 -15.710  -1.650  1.00  0.00     0.152 C 
BRANCH   6   7
HETATM    7  C   UNL     1      40.655 -14.725  -2.444  1.00  0.00     0.011 A 
HETATM    8  C   UNL     1      41.134 -13.454  -2.902  1.00  0.00     0.004 A 
HETATM    9  C   UNL     1      40.088 -12.842  -3.598  1.00  0.00     0.043 A 
HETATM   10  C   UNL     1      42.355 -12.757  -2.784  1.00  0.00     0.014 A 
HETATM   11  C   UNL     1      40.201 -11.572  -4.176  1.00  0.00     0.030 A 
HETATM   12  N   UNL     1      39.021 -13.708  -3.576  1.00  0.00    -0.364 N 
HETATM   13  C   UNL     1      41.421 -10.904  -4.042  1.00  0.00     0.002 A 
HETATM   14  C   UNL     1      42.484 -11.486  -3.358  1.00  0.00     0.001 A 
HETATM   15  H   UNL     1      38.122 -13.527  -4.001  1.00  0.00     0.165 HD
HETATM   16  C   UNL     1      39.350 -14.841  -2.886  1.00  0.00     0.102 A 
ENDBRANCH   6   7
ENDBRANCH   2   5
BRANCH   1  17
HETATM   17  C   UNL     1      42.627 -17.889   2.208  1.00  0.00     0.068 A 
HETATM   18  C   UNL     1      43.191 -17.466   3.428  1.00  0.00     0.084 A 
HETATM   19  C   UNL     1      43.981 -18.361   4.165  1.00  0.00     0.039 A 
HETATM   20  C   UNL     1      44.245 -19.646   3.682  1.00  0.00     0.022 A 
HETATM   21  C   UNL     1      43.715 -20.046   2.460  1.00  0.00     0.012 A 
HETATM   22  C   UNL     1      42.912 -19.179   1.726  1.00  0.00     0.039 A 
HETATM   23 BR   UNL     1      44.071 -21.783   1.808  1.00  0.00    -0.051 Br
BRANCH  18  24
HETATM   24  O   UNL     1      42.914 -16.196   3.872  1.00  0.00    -0.350 OA
BRANCH  24  25
HETATM   25  C   UNL     1      42.483 -16.095   5.235  1.00  0.00     0.171 C 
HETATM   26  C   UNL     1      41.059 -16.615   5.319  1.00  0.00     0.034 C 
ENDBRANCH  24  25
ENDBRANCH  18  24
ENDBRANCH   1  17
TORSDOF 5
ENDMDL
MODEL 6
REMARK VINA RESULT:      -7.6      3.087      8.463
REMARK  5 active torsions:
REMARK  status: ('A' for Active; 'I' for Inactive)
REMARK    1  A    between atoms: C_2  and  O_3 
REMARK    2  A    between atoms: O_3  and  C_4 
REMARK    3  A    between atoms: C_5  and  C_6 
REMARK       I    between atoms: C_6  and  N_7 
REMARK    4  A    between atoms: N_7  and  N_8 
REMARK    5  A    between atoms: C_9  and  C_10 
ROOT
HETATM    1  C   UNL     1      43.153 -16.850   3.126  1.00  0.00     0.274 C 
HETATM    2  N   UNL     1      41.772 -16.741   3.123  1.00  0.00    -0.243 N 
HETATM    3  O   UNL     1      43.920 -16.002   2.676  1.00  0.00    -0.266 OA
HETATM    4  H   UNL     1      41.207 -17.481   3.531  1.00  0.00     0.192 HD
ENDROOT
BRANCH   2   5
HETATM    5  N   UNL     1      41.183 -15.704   2.461  1.00  0.00    -0.183 NA
HETATM    6  C   UNL     1      40.794 -15.941   1.251  1.00  0.00     0.152 C 
BRANCH   6   7
HETATM    7  C   UNL     1      40.218 -14.862   0.475  1.00  0.00     0.011 A 
HETATM    8  C   UNL     1      40.343 -14.624  -0.932  1.00  0.00     0.004 A 
HETATM    9  C   UNL     1      39.647 -13.447  -1.219  1.00  0.00     0.043 A 
HETATM   10  C   UNL     1      40.991 -15.290  -1.993  1.00  0.00     0.014 A 
HETATM   11  C   UNL     1      39.569 -12.903  -2.506  1.00  0.00     0.030 A 
HETATM   12  N   UNL     1      39.110 -12.992  -0.037  1.00  0.00    -0.364 N 
HETATM   13  C   UNL     1      40.223 -13.583  -3.538  1.00  0.00     0.002 A 
HETATM   14  C   UNL     1      40.922 -14.761  -3.288  1.00  0.00     0.001 A 
HETATM   15  H   UNL     1      38.555 -12.153   0.060  1.00  0.00     0.165 HD
HETATM   16  C   UNL     1      39.446 -13.834   0.985  1.00  0.00     0.102 A 
ENDBRANCH   6   7
ENDBRANCH   2   5
BRANCH   1  17
HETATM   17  C   UNL     1      43.721 -18.126   3.662  1.00  0.00     0.068 A 
HETATM   18  C   UNL     1      44.143 -18.316   4.992  1.00  0.00     0.084 A 
HETATM   19  C   UNL     1      44.598 -19.580   5.394  1.00  0.00     0.039 A 
HETATM   20  C   UNL     1      44.675 -20.635   4.480  1.00  0.00     0.022 A 
HETATM   21  C   UNL     1      44.291 -20.434   3.159  1.00  0.00     0.012 A 
HETATM   22  C   UNL     1      43.816 -19.192   2.748  1.00  0.00     0.039 A 
HETATM   23 BR   UNL     1      44.393 -21.861   1.925  1.00  0.00    -0.051 Br
BRANCH  18  24
HETATM   24  O   UNL     1      44.057 -17.256   5.863  1.00  0.00    -0.350 OA
BRANCH  24  25
HETATM   25  C   UNL     1      42.899 -17.239   6.706  1.00  0.00     0.171 C 
HETATM   26  C   UNL     1      43.365 -17.276   8.150  1.00  0.00     0.034 C 
ENDBRANCH  24  25
ENDBRANCH  18  24
ENDBRANCH   1  17
TORSDOF 5
ENDMDL
MODEL 7
REMARK VINA RESULT:      -7.6      3.222      8.495
REMARK  5 active torsions:
REMARK  status: ('A' for Active; 'I' for Inactive)
REMARK    1  A    between atoms: C_2  and  O_3 
REMARK    2  A    between atoms: O_3  and  C_4 
REMARK    3  A    between atoms: C_5  and  C_6 
REMARK       I    between atoms: C_6  and  N_7 
REMARK    4  A    between atoms: N_7  and  N_8 
REMARK    5  A    between atoms: C_9  and  C_10 
ROOT
HETATM    1  C   UNL     1      41.794 -17.101   1.515  1.00  0.00     0.274 C 
HETATM    2  N   UNL     1      42.378 -16.361   0.501  1.00  0.00    -0.243 N 
HETATM    3  O   UNL     1      40.601 -17.060   1.810  1.00  0.00    -0.266 OA
HETATM    4  H   UNL     1      43.371 -16.464   0.308  1.00  0.00     0.192 HD
ENDROOT
BRANCH   2   5
HETATM    5  N   UNL     1      41.642 -15.410  -0.144  1.00  0.00    -0.183 NA
HETATM    6  C   UNL     1      41.115 -15.759  -1.273  1.00  0.00     0.152 C 
BRANCH   6   7
HETATM    7  C   UNL     1      40.375 -14.775  -2.035  1.00  0.00     0.011 A 
HETATM    8  C   UNL     1      39.313 -13.926  -1.584  1.00  0.00     0.004 A 
HETATM    9  C   UNL     1      38.888 -13.172  -2.681  1.00  0.00     0.043 A 
HETATM   10  C   UNL     1      38.660 -13.732  -0.348  1.00  0.00     0.014 A 
HETATM   11  C   UNL     1      37.845 -12.241  -2.606  1.00  0.00     0.030 A 
HETATM   12  N   UNL     1      39.666 -13.537  -3.754  1.00  0.00    -0.364 N 
HETATM   13  C   UNL     1      37.216 -12.070  -1.370  1.00  0.00     0.002 A 
HETATM   14  C   UNL     1      37.617 -12.802  -0.255  1.00  0.00     0.001 A 
HETATM   15  H   UNL     1      39.581 -13.156  -4.685  1.00  0.00     0.165 HD
HETATM   16  C   UNL     1      40.563 -14.498  -3.378  1.00  0.00     0.102 A 
ENDBRANCH   6   7
ENDBRANCH   2   5
BRANCH   1  17
HETATM   17  C   UNL     1      42.712 -17.952   2.334  1.00  0.00     0.068 A 
HETATM   18  C   UNL     1      43.274 -17.563   3.566  1.00  0.00     0.084 A 
HETATM   19  C   UNL     1      44.069 -18.475   4.275  1.00  0.00     0.039 A 
HETATM   20  C   UNL     1      44.340 -19.744   3.754  1.00  0.00     0.022 A 
HETATM   21  C   UNL     1      43.812 -20.110   2.520  1.00  0.00     0.012 A 
HETATM   22  C   UNL     1      43.003 -19.226   1.813  1.00  0.00     0.039 A 
HETATM   23 BR   UNL     1      44.177 -21.825   1.816  1.00  0.00    -0.051 Br
BRANCH  18  24
HETATM   24  O   UNL     1      42.991 -16.308   4.047  1.00  0.00    -0.350 OA
BRANCH  24  25
HETATM   25  C   UNL     1      42.163 -16.266   5.217  1.00  0.00     0.171 C 
HETATM   26  C   UNL     1      40.985 -15.353   4.928  1.00  0.00     0.034 C 
ENDBRANCH  24  25
ENDBRANCH  18  24
ENDBRANCH   1  17
TORSDOF 5
ENDMDL
MODEL 8
REMARK VINA RESULT:      -7.5      2.312      2.557
REMARK  5 active torsions:
REMARK  status: ('A' for Active; 'I' for Inactive)
REMARK    1  A    between atoms: C_2  and  O_3 
REMARK    2  A    between atoms: O_3  and  C_4 
REMARK    3  A    between atoms: C_5  and  C_6 
REMARK       I    between atoms: C_6  and  N_7 
REMARK    4  A    between atoms: N_7  and  N_8 
REMARK    5  A    between atoms: C_9  and  C_10 
ROOT
HETATM    1  C   UNL     1      41.008 -14.176   0.666  1.00  0.00     0.274 C 
HETATM    2  N   UNL     1      41.241 -15.540   0.658  1.00  0.00    -0.243 N 
HETATM    3  O   UNL     1      41.583 -13.374   1.399  1.00  0.00    -0.266 OA
HETATM    4  H   UNL     1      40.735 -16.135   0.007  1.00  0.00     0.192 HD
ENDROOT
BRANCH   2   5
HETATM    5  N   UNL     1      42.055 -16.087   1.607  1.00  0.00    -0.183 NA
HETATM    6  C   UNL     1      42.269 -17.359   1.517  1.00  0.00     0.152 C 
BRANCH   6   7
HETATM    7  C   UNL     1      43.073 -18.008   2.531  1.00  0.00     0.011 A 
HETATM    8  C   UNL     1      43.517 -19.370   2.567  1.00  0.00     0.004 A 
HETATM    9  C   UNL     1      44.232 -19.544   3.755  1.00  0.00     0.043 A 
HETATM   10  C   UNL     1      43.372 -20.480   1.707  1.00  0.00     0.014 A 
HETATM   11  C   UNL     1      44.803 -20.767   4.126  1.00  0.00     0.030 A 
HETATM   12  N   UNL     1      44.234 -18.336   4.411  1.00  0.00    -0.364 N 
HETATM   13  C   UNL     1      44.642 -21.849   3.257  1.00  0.00     0.002 A 
HETATM   14  C   UNL     1      43.939 -21.710   2.063  1.00  0.00     0.001 A 
HETATM   15  H   UNL     1      44.676 -18.164   5.303  1.00  0.00     0.165 HD
HETATM   16  C   UNL     1      43.542 -17.407   3.686  1.00  0.00     0.102 A 
ENDBRANCH   6   7
ENDBRANCH   2   5
BRANCH   1  17
HETATM   17  C   UNL     1      39.930 -13.677  -0.244  1.00  0.00     0.068 A 
HETATM   18  C   UNL     1      39.913 -13.867  -1.639  1.00  0.00     0.084 A 
HETATM   19  C   UNL     1      38.814 -13.409  -2.381  1.00  0.00     0.039 A 
HETATM   20  C   UNL     1      37.762 -12.734  -1.755  1.00  0.00     0.022 A 
HETATM   21  C   UNL     1      37.801 -12.516  -0.383  1.00  0.00     0.012 A 
HETATM   22  C   UNL     1      38.872 -12.982   0.371  1.00  0.00     0.039 A 
HETATM   23 BR   UNL     1      36.378 -11.604   0.463  1.00  0.00    -0.051 Br
BRANCH  18  24
HETATM   24  O   UNL     1      40.964 -14.532  -2.222  1.00  0.00    -0.350 OA
BRANCH  24  25
HETATM   25  C   UNL     1      41.640 -13.826  -3.270  1.00  0.00     0.171 C 
HETATM   26  C   UNL     1      42.655 -12.894  -2.633  1.00  0.00     0.034 C 
ENDBRANCH  24  25
ENDBRANCH  18  24
ENDBRANCH   1  17
TORSDOF 5
ENDMDL
MODEL 9
REMARK VINA RESULT:      -7.4      2.491      3.359
REMARK  5 active torsions:
REMARK  status: ('A' for Active; 'I' for Inactive)
REMARK    1  A    between atoms: C_2  and  O_3 
REMARK    2  A    between atoms: O_3  and  C_4 
REMARK    3  A    between atoms: C_5  and  C_6 
REMARK       I    between atoms: C_6  and  N_7 
REMARK    4  A    between atoms: N_7  and  N_8 
REMARK    5  A    between atoms: C_9  and  C_10 
ROOT
HETATM    1  C   UNL     1      42.029 -14.826   1.195  1.00  0.00     0.274 C 
HETATM    2  N   UNL     1      42.626 -14.883   2.443  1.00  0.00    -0.243 N 
HETATM    3  O   UNL     1      42.004 -15.754   0.390  1.00  0.00    -0.266 OA
HETATM    4  H   UNL     1      42.588 -14.075   3.058  1.00  0.00     0.192 HD
ENDROOT
BRANCH   2   5
HETATM    5  N   UNL     1      43.365 -15.978   2.783  1.00  0.00    -0.183 NA
HETATM    6  C   UNL     1      42.786 -16.849   3.544  1.00  0.00     0.152 C 
BRANCH   6   7
HETATM    7  C   UNL     1      43.540 -18.002   3.991  1.00  0.00     0.011 A 
HETATM    8  C   UNL     1      43.704 -19.260   3.325  1.00  0.00     0.004 A 
HETATM    9  C   UNL     1      44.483 -20.071   4.154  1.00  0.00     0.043 A 
HETATM   10  C   UNL     1      43.255 -19.795   2.098  1.00  0.00     0.014 A 
HETATM   11  C   UNL     1      44.832 -21.386   3.821  1.00  0.00     0.030 A 
HETATM   12  N   UNL     1      44.792 -19.335   5.273  1.00  0.00    -0.364 N 
HETATM   13  C   UNL     1      44.372 -21.890   2.601  1.00  0.00     0.002 A 
HETATM   14  C   UNL     1      43.597 -21.108   1.750  1.00  0.00     0.001 A 
HETATM   15  H   UNL     1      45.345 -19.669   6.049  1.00  0.00     0.165 HD
HETATM   16  C   UNL     1      44.231 -18.092   5.185  1.00  0.00     0.102 A 
ENDBRANCH   6   7
ENDBRANCH   2   5
BRANCH   1  17
HETATM   17  C   UNL     1      41.437 -13.510   0.798  1.00  0.00     0.068 A 
HETATM   18  C   UNL     1      40.226 -12.996   1.299  1.00  0.00     0.084 A 
HETATM   19  C   UNL     1      39.805 -11.718   0.901  1.00  0.00     0.039 A 
HETATM   20  C   UNL     1      40.553 -10.974  -0.016  1.00  0.00     0.022 A 
HETATM   21  C   UNL     1      41.730 -11.501  -0.536  1.00  0.00     0.012 A 
HETATM   22  C   UNL     1      42.174 -12.757  -0.135  1.00  0.00     0.039 A 
HETATM   23 BR   UNL     1      42.742 -10.494  -1.774  1.00  0.00    -0.051 Br
BRANCH  18  24
HETATM   24  O   UNL     1      39.514 -13.755   2.196  1.00  0.00    -0.350 OA
BRANCH  24  25
HETATM   25  C   UNL     1      38.731 -14.813   1.628  1.00  0.00     0.171 C 
HETATM   26  C   UNL     1      37.576 -14.188   0.867  1.00  0.00     0.034 C 
ENDBRANCH  24  25
ENDBRANCH  18  24
ENDBRANCH   1  17
TORSDOF 5
ENDMDL
MODEL 10
REMARK VINA RESULT:      -7.4      3.353      8.952
REMARK  5 active torsions:
REMARK  status: ('A' for Active; 'I' for Inactive)
REMARK    1  A    between atoms: C_2  and  O_3 
REMARK    2  A    between atoms: O_3  and  C_4 
REMARK    3  A    between atoms: C_5  and  C_6 
REMARK       I    between atoms: C_6  and  N_7 
REMARK    4  A    between atoms: N_7  and  N_8 
REMARK    5  A    between atoms: C_9  and  C_10 
ROOT
HETATM    1  C   UNL     1      41.885 -17.299   2.468  1.00  0.00     0.274 C 
HETATM    2  N   UNL     1      42.459 -16.863   1.286  1.00  0.00    -0.243 N 
HETATM    3  O   UNL     1      40.679 -17.291   2.703  1.00  0.00    -0.266 OA
HETATM    4  H   UNL     1      43.466 -16.919   1.163  1.00  0.00     0.192 HD
ENDROOT
BRANCH   2   5
HETATM    5  N   UNL     1      41.680 -16.247   0.351  1.00  0.00    -0.183 NA
HETATM    6  C   UNL     1      41.752 -14.957   0.302  1.00  0.00     0.152 C 
BRANCH   6   7
HETATM    7  C   UNL     1      40.902 -14.242  -0.628  1.00  0.00     0.011 A 
HETATM    8  C   UNL     1      41.298 -13.415  -1.729  1.00  0.00     0.004 A 
HETATM    9  C   UNL     1      40.132 -12.912  -2.313  1.00  0.00     0.043 A 
HETATM   10  C   UNL     1      42.539 -13.036  -2.283  1.00  0.00     0.014 A 
HETATM   11  C   UNL     1      40.145 -12.048  -3.414  1.00  0.00     0.030 A 
HETATM   12  N   UNL     1      39.069 -13.419  -1.604  1.00  0.00    -0.364 N 
HETATM   13  C   UNL     1      41.389 -11.688  -3.941  1.00  0.00     0.002 A 
HETATM   14  C   UNL     1      42.569 -12.174  -3.387  1.00  0.00     0.001 A 
HETATM   15  H   UNL     1      38.098 -13.222  -1.800  1.00  0.00     0.165 HD
HETATM   16  C   UNL     1      39.519 -14.219  -0.592  1.00  0.00     0.102 A 
ENDBRANCH   6   7
ENDBRANCH   2   5
BRANCH   1  17
HETATM   17  C   UNL     1      42.826 -17.747   3.542  1.00  0.00     0.068 A 
HETATM   18  C   UNL     1      43.692 -18.853   3.434  1.00  0.00     0.084 A 
HETATM   19  C   UNL     1      44.578 -19.136   4.484  1.00  0.00     0.039 A 
HETATM   20  C   UNL     1      44.579 -18.359   5.646  1.00  0.00     0.022 A 
HETATM   21  C   UNL     1      43.697 -17.291   5.763  1.00  0.00     0.012 A 
HETATM   22  C   UNL     1      42.827 -16.982   4.723  1.00  0.00     0.039 A 
HETATM   23 BR   UNL     1      43.699 -16.241   7.334  1.00  0.00    -0.051 Br
BRANCH  18  24
HETATM   24  O   UNL     1      43.663 -19.597   2.279  1.00  0.00    -0.350 OA
BRANCH  24  25
HETATM   25  C   UNL     1      44.486 -20.770   2.276  1.00  0.00     0.171 C 
HETATM   26  C   UNL     1      43.668 -21.919   1.717  1.00  0.00     0.034 C 
ENDBRANCH  24  25
ENDBRANCH  18  24
ENDBRANCH   1  17
TORSDOF 5
ENDMDL
