MODEL 1
REMARK VINA RESULT:      -9.0      0.000      0.000
REMARK  11 active torsions:
REMARK  status: ('A' for Active; 'I' for Inactive)
REMARK    1  A    between atoms: O_2  and  C_3 
REMARK    2  A    between atoms: C_6  and  C_7 
REMARK    3  A    between atoms: C_7  and  C_8 
REMARK    4  A    between atoms: C_8  and  N_9 
REMARK    5  A    between atoms: C_13  and  C_14 
REMARK    6  A    between atoms: C_14  and  C_15 
REMARK    7  A    between atoms: C_25  and  N_26 
REMARK    8  A    between atoms: N_26  and  C_27 
REMARK    9  A    between atoms: C_27  and  C_28 
REMARK   10  A    between atoms: C_28  and  O_29 
REMARK   11  A    between atoms: C_28  and  C_30 
ROOT
HETATM    1  C   UNL     1      40.466 -15.274   1.407  1.00  0.00     0.074 A 
HETATM    2  C   UNL     1      39.960 -14.128   0.589  1.00  0.00     0.266 A 
HETATM    3  O   UNL     1      39.323 -13.223   1.134  1.00  0.00    -0.267 OA
HETATM    4  N   UNL     1      40.245 -14.163  -0.764  1.00  0.00    -0.273 N 
HETATM    5  C   UNL     1      40.922 -15.249  -1.287  1.00  0.00     0.138 A 
HETATM    6  N   UNL     1      41.325 -16.265  -0.592  1.00  0.00    -0.218 NA
HETATM    7  C   UNL     1      39.832 -13.113  -1.577  1.00  0.00     0.102 A 
HETATM    8  C   UNL     1      40.075 -13.102  -2.893  1.00  0.00     0.018 A 
HETATM    9  C   UNL     1      40.778 -14.202  -3.499  1.00  0.00     0.005 A 
HETATM   10  C   UNL     1      41.190 -15.235  -2.755  1.00  0.00     0.051 A 
HETATM   11  C   UNL     1      41.098 -16.278   0.759  1.00  0.00     0.121 A 
ENDROOT
BRANCH   1  12
HETATM   12  C   UNL     1      40.211 -15.207   2.839  1.00  0.00     0.045 C 
BRANCH  12  13
HETATM   13  C   UNL     1      40.774 -14.386   3.733  1.00  0.00     0.077 A 
HETATM   14  S   UNL     1      40.033 -13.194   4.719  1.00  0.00    -0.055 SA
HETATM   15  C   UNL     1      41.532 -12.824   5.563  1.00  0.00     0.148 A 
HETATM   16  N   UNL     1      42.536 -13.657   5.117  1.00  0.00    -0.298 N 
HETATM   17  S   UNL     1      41.628 -11.626   6.721  1.00  0.00    -0.052 SA
HETATM   18  C   UNL     1      42.216 -14.504   4.072  1.00  0.00     0.266 A 
HETATM   19  O   UNL     1      42.988 -15.262   3.501  1.00  0.00    -0.266 OA
BRANCH  16  20
HETATM   20  C   UNL     1      43.882 -13.738   5.687  1.00  0.00     0.138 C 
BRANCH  20  21
HETATM   21  C   UNL     1      43.906 -14.402   7.068  1.00  0.00     0.059 C 
BRANCH  21  22
HETATM   22  C   UNL     1      43.899 -15.907   6.945  1.00  0.00    -0.057 A 
HETATM   23  C   UNL     1      42.759 -16.637   7.300  1.00  0.00     0.010 A 
HETATM   24  C   UNL     1      42.762 -18.032   7.222  1.00  0.00     0.037 A 
HETATM   25  C   UNL     1      43.892 -18.718   6.778  1.00  0.00     0.068 A 
HETATM   26  C   UNL     1      45.032 -17.995   6.426  1.00  0.00     0.037 A 
HETATM   27  C   UNL     1      45.036 -16.597   6.511  1.00  0.00     0.010 A 
BRANCH  25  28
HETATM   28  O   UNL     1      43.761 -20.079   6.746  1.00  0.00    -0.356 OA
HETATM   29  C   UNL     1      43.623 -20.737   7.999  1.00  0.00     0.210 C 
ENDBRANCH  25  28
ENDBRANCH  21  22
ENDBRANCH  20  21
ENDBRANCH  16  20
ENDBRANCH  12  13
ENDBRANCH   1  12
BRANCH  11  30
HETATM   30  N   UNL     1      41.578 -17.402   1.423  1.00  0.00    -0.274 NA
HETATM   31  H   UNL     1      41.375 -17.259   2.414  1.00  0.00     0.129 HD
BRANCH  30  32
HETATM   32  C   UNL     1      42.990 -17.818   1.316  1.00  0.00     0.130 C 
BRANCH  32  33
HETATM   33  C   UNL     1      43.592 -18.243   2.679  1.00  0.00     0.164 C 
BRANCH  33  34
HETATM   34  O   UNL     1      42.674 -17.938   3.740  1.00  0.00    -0.390 OA
HETATM   35  H   UNL     1      41.799 -17.877   3.305  1.00  0.00     0.210 HD
ENDBRANCH  33  34
BRANCH  33  36
HETATM   36  C   UNL     1      43.944 -19.718   2.685  1.00  0.00    -0.029 A 
HETATM   37  C   UNL     1      43.452 -20.557   1.671  1.00  0.00     0.010 A 
HETATM   38  C   UNL     1      43.737 -21.923   1.676  1.00  0.00     0.001 A 
HETATM   39  C   UNL     1      44.518 -22.471   2.692  1.00  0.00     0.000 A 
HETATM   40  C   UNL     1      45.014 -21.652   3.704  1.00  0.00     0.001 A 
HETATM   41  C   UNL     1      44.726 -20.286   3.702  1.00  0.00     0.010 A 
ENDBRANCH  33  36
ENDBRANCH  32  33
ENDBRANCH  30  32
ENDBRANCH  11  30
TORSDOF 11
ENDMDL
MODEL 2
REMARK VINA RESULT:      -8.9      2.366      6.384
REMARK  11 active torsions:
REMARK  status: ('A' for Active; 'I' for Inactive)
REMARK    1  A    between atoms: O_2  and  C_3 
REMARK    2  A    between atoms: C_6  and  C_7 
REMARK    3  A    between atoms: C_7  and  C_8 
REMARK    4  A    between atoms: C_8  and  N_9 
REMARK    5  A    between atoms: C_13  and  C_14 
REMARK    6  A    between atoms: C_14  and  C_15 
REMARK    7  A    between atoms: C_25  and  N_26 
REMARK    8  A    between atoms: N_26  and  C_27 
REMARK    9  A    between atoms: C_27  and  C_28 
REMARK   10  A    between atoms: C_28  and  O_29 
REMARK   11  A    between atoms: C_28  and  C_30 
ROOT
HETATM    1  C   UNL     1      40.555 -13.311   5.398  1.00  0.00     0.074 A 
HETATM    2  C   UNL     1      39.648 -12.184   5.777  1.00  0.00     0.266 A 
HETATM    3  O   UNL     1      38.481 -12.179   5.376  1.00  0.00    -0.267 OA
HETATM    4  N   UNL     1      40.195 -11.193   6.572  1.00  0.00    -0.273 N 
HETATM    5  C   UNL     1      41.529 -11.265   6.925  1.00  0.00     0.138 A 
HETATM    6  N   UNL     1      42.332 -12.216   6.564  1.00  0.00    -0.218 NA
HETATM    7  C   UNL     1      39.397 -10.133   6.988  1.00  0.00     0.102 A 
HETATM    8  C   UNL     1      39.879  -9.143   7.750  1.00  0.00     0.018 A 
HETATM    9  C   UNL     1      41.260  -9.162   8.154  1.00  0.00     0.005 A 
HETATM   10  C   UNL     1      42.064 -10.161   7.774  1.00  0.00     0.051 A 
HETATM   11  C   UNL     1      41.844 -13.243   5.799  1.00  0.00     0.121 A 
ENDROOT
BRANCH   1  12
HETATM   12  C   UNL     1      39.961 -14.379   4.606  1.00  0.00     0.045 C 
BRANCH  12  13
HETATM   13  C   UNL     1      40.255 -14.726   3.349  1.00  0.00     0.077 A 
HETATM   14  S   UNL     1      40.279 -13.750   1.937  1.00  0.00    -0.055 SA
HETATM   15  C   UNL     1      40.888 -15.057   0.928  1.00  0.00     0.148 A 
HETATM   16  N   UNL     1      41.114 -16.176   1.701  1.00  0.00    -0.298 N 
HETATM   17  S   UNL     1      41.128 -14.874  -0.713  1.00  0.00    -0.052 SA
HETATM   18  C   UNL     1      40.738 -16.095   3.029  1.00  0.00     0.266 A 
HETATM   19  O   UNL     1      40.797 -17.003   3.848  1.00  0.00    -0.266 OA
BRANCH  16  20
HETATM   20  C   UNL     1      41.751 -17.409   1.235  1.00  0.00     0.138 C 
BRANCH  20  21
HETATM   21  C   UNL     1      43.241 -17.480   1.586  1.00  0.00     0.059 C 
BRANCH  21  22
HETATM   22  C   UNL     1      43.606 -18.841   2.129  1.00  0.00    -0.057 A 
HETATM   23  C   UNL     1      44.207 -18.960   3.387  1.00  0.00     0.010 A 
HETATM   24  C   UNL     1      44.580 -20.214   3.876  1.00  0.00     0.037 A 
HETATM   25  C   UNL     1      44.346 -21.368   3.128  1.00  0.00     0.068 A 
HETATM   26  C   UNL     1      43.749 -21.255   1.872  1.00  0.00     0.037 A 
HETATM   27  C   UNL     1      43.382 -19.998   1.374  1.00  0.00     0.010 A 
BRANCH  25  28
HETATM   28  O   UNL     1      44.754 -22.529   3.723  1.00  0.00    -0.356 OA
HETATM   29  C   UNL     1      45.128 -22.448   5.093  1.00  0.00     0.210 C 
ENDBRANCH  25  28
ENDBRANCH  21  22
ENDBRANCH  20  21
ENDBRANCH  16  20
ENDBRANCH  12  13
ENDBRANCH   1  12
BRANCH  11  30
HETATM   30  N   UNL     1      42.776 -14.222   5.472  1.00  0.00    -0.274 NA
HETATM   31  H   UNL     1      42.522 -15.052   6.013  1.00  0.00     0.129 HD
BRANCH  30  32
HETATM   32  C   UNL     1      44.224 -14.002   5.654  1.00  0.00     0.130 C 
BRANCH  32  33
HETATM   33  C   UNL     1      44.769 -14.651   6.952  1.00  0.00     0.164 C 
BRANCH  33  34
HETATM   34  O   UNL     1      44.286 -13.936   8.099  1.00  0.00    -0.390 OA
HETATM   35  H   UNL     1      43.488 -14.427   8.384  1.00  0.00     0.210 HD
ENDBRANCH  33  34
BRANCH  33  36
HETATM   36  C   UNL     1      44.384 -16.114   7.034  1.00  0.00    -0.029 A 
HETATM   37  C   UNL     1      43.145 -16.481   7.586  1.00  0.00     0.010 A 
HETATM   38  C   UNL     1      42.785 -17.824   7.701  1.00  0.00     0.001 A 
HETATM   39  C   UNL     1      43.656 -18.821   7.265  1.00  0.00     0.000 A 
HETATM   40  C   UNL     1      44.887 -18.474   6.715  1.00  0.00     0.001 A 
HETATM   41  C   UNL     1      45.250 -17.131   6.603  1.00  0.00     0.010 A 
ENDBRANCH  33  36
ENDBRANCH  32  33
ENDBRANCH  30  32
ENDBRANCH  11  30
TORSDOF 11
ENDMDL
MODEL 3
REMARK VINA RESULT:      -8.8      2.087      2.901
REMARK  11 active torsions:
REMARK  status: ('A' for Active; 'I' for Inactive)
REMARK    1  A    between atoms: O_2  and  C_3 
REMARK    2  A    between atoms: C_6  and  C_7 
REMARK    3  A    between atoms: C_7  and  C_8 
REMARK    4  A    between atoms: C_8  and  N_9 
REMARK    5  A    between atoms: C_13  and  C_14 
REMARK    6  A    between atoms: C_14  and  C_15 
REMARK    7  A    between atoms: C_25  and  N_26 
REMARK    8  A    between atoms: N_26  and  C_27 
REMARK    9  A    between atoms: C_27  and  C_28 
REMARK   10  A    between atoms: C_28  and  O_29 
REMARK   11  A    between atoms: C_28  and  C_30 
ROOT
HETATM    1  C   UNL     1      40.595 -12.889  -0.923  1.00  0.00     0.074 A 
HETATM    2  C   UNL     1      39.454 -12.247  -1.649  1.00  0.00     0.266 A 
HETATM    3  O   UNL     1      39.224 -11.046  -1.484  1.00  0.00    -0.267 OA
HETATM    4  N   UNL     1      38.711 -13.068  -2.477  1.00  0.00    -0.273 N 
HETATM    5  C   UNL     1      39.019 -14.414  -2.553  1.00  0.00     0.138 A 
HETATM    6  N   UNL     1      39.978 -14.984  -1.894  1.00  0.00    -0.218 NA
HETATM    7  C   UNL     1      37.658 -12.529  -3.207  1.00  0.00     0.102 A 
HETATM    8  C   UNL     1      36.901 -13.282  -4.016  1.00  0.00     0.018 A 
HETATM    9  C   UNL     1      37.173 -14.689  -4.141  1.00  0.00     0.005 A 
HETATM   10  C   UNL     1      38.175 -15.250  -3.455  1.00  0.00     0.051 A 
HETATM   11  C   UNL     1      40.769 -14.219  -1.077  1.00  0.00     0.121 A 
ENDROOT
BRANCH   1  12
HETATM   12  C   UNL     1      41.407 -12.010  -0.094  1.00  0.00     0.045 C 
BRANCH  12  13
HETATM   13  C   UNL     1      41.244 -11.727   1.203  1.00  0.00     0.077 A 
HETATM   14  S   UNL     1      40.161 -10.616   1.937  1.00  0.00    -0.055 SA
HETATM   15  C   UNL     1      40.626 -11.093   3.567  1.00  0.00     0.148 A 
HETATM   16  N   UNL     1      41.541 -12.122   3.507  1.00  0.00    -0.298 N 
HETATM   17  S   UNL     1      39.995 -10.353   4.923  1.00  0.00    -0.052 SA
HETATM   18  C   UNL     1      41.976 -12.490   2.247  1.00  0.00     0.266 A 
HETATM   19  O   UNL     1      42.831 -13.330   2.001  1.00  0.00    -0.266 OA
BRANCH  16  20
HETATM   20  C   UNL     1      42.047 -12.870   4.660  1.00  0.00     0.138 C 
BRANCH  20  21
HETATM   21  C   UNL     1      41.130 -14.028   5.067  1.00  0.00     0.059 C 
BRANCH  21  22
HETATM   22  C   UNL     1      41.890 -15.069   5.854  1.00  0.00    -0.057 A 
HETATM   23  C   UNL     1      41.250 -16.241   6.275  1.00  0.00     0.010 A 
HETATM   24  C   UNL     1      41.940 -17.189   7.035  1.00  0.00     0.037 A 
HETATM   25  C   UNL     1      43.279 -16.991   7.374  1.00  0.00     0.068 A 
HETATM   26  C   UNL     1      43.921 -15.825   6.958  1.00  0.00     0.037 A 
HETATM   27  C   UNL     1      43.230 -14.868   6.204  1.00  0.00     0.010 A 
BRANCH  25  28
HETATM   28  O   UNL     1      43.836 -17.996   8.115  1.00  0.00    -0.356 OA
HETATM   29  C   UNL     1      43.874 -19.286   7.516  1.00  0.00     0.210 C 
ENDBRANCH  25  28
ENDBRANCH  21  22
ENDBRANCH  20  21
ENDBRANCH  16  20
ENDBRANCH  12  13
ENDBRANCH   1  12
BRANCH  11  30
HETATM   30  N   UNL     1      41.779 -14.916  -0.422  1.00  0.00    -0.274 NA
HETATM   31  H   UNL     1      42.598 -14.877  -1.032  1.00  0.00     0.129 HD
BRANCH  30  32
HETATM   32  C   UNL     1      41.604 -16.323  -0.008  1.00  0.00     0.130 C 
BRANCH  32  33
HETATM   33  C   UNL     1      41.343 -16.471   1.512  1.00  0.00     0.164 C 
BRANCH  33  34
HETATM   34  O   UNL     1      39.988 -16.889   1.741  1.00  0.00    -0.390 OA
HETATM   35  H   UNL     1      39.528 -16.085   2.059  1.00  0.00     0.210 HD
ENDBRANCH  33  34
BRANCH  33  36
HETATM   36  C   UNL     1      42.316 -17.447   2.141  1.00  0.00    -0.029 A 
HETATM   37  C   UNL     1      42.438 -18.746   1.619  1.00  0.00     0.010 A 
HETATM   38  C   UNL     1      43.304 -19.671   2.204  1.00  0.00     0.001 A 
HETATM   39  C   UNL     1      44.062 -19.312   3.316  1.00  0.00     0.000 A 
HETATM   40  C   UNL     1      43.954 -18.029   3.845  1.00  0.00     0.001 A 
HETATM   41  C   UNL     1      43.085 -17.104   3.264  1.00  0.00     0.010 A 
ENDBRANCH  33  36
ENDBRANCH  32  33
ENDBRANCH  30  32
ENDBRANCH  11  30
TORSDOF 11
ENDMDL
MODEL 4
REMARK VINA RESULT:      -8.6      2.723      7.049
REMARK  11 active torsions:
REMARK  status: ('A' for Active; 'I' for Inactive)
REMARK    1  A    between atoms: O_2  and  C_3 
REMARK    2  A    between atoms: C_6  and  C_7 
REMARK    3  A    between atoms: C_7  and  C_8 
REMARK    4  A    between atoms: C_8  and  N_9 
REMARK    5  A    between atoms: C_13  and  C_14 
REMARK    6  A    between atoms: C_14  and  C_15 
REMARK    7  A    between atoms: C_25  and  N_26 
REMARK    8  A    between atoms: N_26  and  C_27 
REMARK    9  A    between atoms: C_27  and  C_28 
REMARK   10  A    between atoms: C_28  and  O_29 
REMARK   11  A    between atoms: C_28  and  C_30 
ROOT
HETATM    1  C   UNL     1      40.089 -12.833   5.159  1.00  0.00     0.074 A 
HETATM    2  C   UNL     1      39.368 -11.524   5.223  1.00  0.00     0.266 A 
HETATM    3  O   UNL     1      38.342 -11.359   4.557  1.00  0.00    -0.267 OA
HETATM    4  N   UNL     1      39.917 -10.558   6.046  1.00  0.00    -0.273 N 
HETATM    5  C   UNL     1      41.100 -10.824   6.710  1.00  0.00     0.138 A 
HETATM    6  N   UNL     1      41.752 -11.940   6.625  1.00  0.00    -0.218 NA
HETATM    7  C   UNL     1      39.279  -9.329   6.177  1.00  0.00     0.102 A 
HETATM    8  C   UNL     1      39.773  -8.356   6.953  1.00  0.00     0.018 A 
HETATM    9  C   UNL     1      40.999  -8.572   7.674  1.00  0.00     0.005 A 
HETATM   10  C   UNL     1      41.648  -9.738   7.574  1.00  0.00     0.051 A 
HETATM   11  C   UNL     1      41.246 -12.948   5.848  1.00  0.00     0.121 A 
ENDROOT
BRANCH   1  12
HETATM   12  C   UNL     1      39.478 -13.866   4.334  1.00  0.00     0.045 C 
BRANCH  12  13
HETATM   13  C   UNL     1      39.880 -14.299   3.134  1.00  0.00     0.077 A 
HETATM   14  S   UNL     1      39.788 -13.505   1.615  1.00  0.00    -0.055 SA
HETATM   15  C   UNL     1      40.658 -14.790   0.784  1.00  0.00     0.148 A 
HETATM   16  N   UNL     1      41.047 -15.752   1.691  1.00  0.00    -0.298 N 
HETATM   17  S   UNL     1      40.928 -14.759  -0.863  1.00  0.00    -0.052 SA
HETATM   18  C   UNL     1      40.609 -15.586   2.992  1.00  0.00     0.266 A 
HETATM   19  O   UNL     1      40.795 -16.366   3.916  1.00  0.00    -0.266 OA
BRANCH  16  20
HETATM   20  C   UNL     1      41.910 -16.896   1.391  1.00  0.00     0.138 C 
BRANCH  20  21
HETATM   21  C   UNL     1      43.335 -16.725   1.930  1.00  0.00     0.059 C 
BRANCH  21  22
HETATM   22  C   UNL     1      43.765 -17.940   2.717  1.00  0.00    -0.057 A 
HETATM   23  C   UNL     1      43.976 -17.847   4.097  1.00  0.00     0.010 A 
HETATM   24  C   UNL     1      44.410 -18.959   4.822  1.00  0.00     0.037 A 
HETATM   25  C   UNL     1      44.627 -20.182   4.187  1.00  0.00     0.068 A 
HETATM   26  C   UNL     1      44.420 -20.280   2.811  1.00  0.00     0.037 A 
HETATM   27  C   UNL     1      43.994 -19.164   2.079  1.00  0.00     0.010 A 
BRANCH  25  28
HETATM   28  O   UNL     1      45.045 -21.190   5.011  1.00  0.00    -0.356 OA
HETATM   29  C   UNL     1      44.740 -22.517   4.603  1.00  0.00     0.210 C 
ENDBRANCH  25  28
ENDBRANCH  21  22
ENDBRANCH  20  21
ENDBRANCH  16  20
ENDBRANCH  12  13
ENDBRANCH   1  12
BRANCH  11  30
HETATM   30  N   UNL     1      42.009 -14.111   5.828  1.00  0.00    -0.274 NA
HETATM   31  H   UNL     1      41.749 -14.639   6.664  1.00  0.00     0.129 HD
BRANCH  30  32
HETATM   32  C   UNL     1      43.483 -14.067   5.774  1.00  0.00     0.130 C 
BRANCH  32  33
HETATM   33  C   UNL     1      44.144 -14.552   7.090  1.00  0.00     0.164 C 
BRANCH  33  34
HETATM   34  O   UNL     1      44.953 -15.711   6.836  1.00  0.00    -0.390 OA
HETATM   35  H   UNL     1      44.535 -16.145   6.064  1.00  0.00     0.210 HD
ENDBRANCH  33  34
BRANCH  33  36
HETATM   36  C   UNL     1      44.972 -13.452   7.724  1.00  0.00    -0.029 A 
HETATM   37  C   UNL     1      44.463 -12.743   8.825  1.00  0.00     0.010 A 
HETATM   38  C   UNL     1      45.196 -11.704   9.403  1.00  0.00     0.001 A 
HETATM   39  C   UNL     1      46.446 -11.361   8.892  1.00  0.00     0.000 A 
HETATM   40  C   UNL     1      46.963 -12.056   7.801  1.00  0.00     0.001 A 
HETATM   41  C   UNL     1      46.231 -13.091   7.220  1.00  0.00     0.010 A 
ENDBRANCH  33  36
ENDBRANCH  32  33
ENDBRANCH  30  32
ENDBRANCH  11  30
TORSDOF 11
ENDMDL
MODEL 5
REMARK VINA RESULT:      -8.5      2.943      6.428
REMARK  11 active torsions:
REMARK  status: ('A' for Active; 'I' for Inactive)
REMARK    1  A    between atoms: O_2  and  C_3 
REMARK    2  A    between atoms: C_6  and  C_7 
REMARK    3  A    between atoms: C_7  and  C_8 
REMARK    4  A    between atoms: C_8  and  N_9 
REMARK    5  A    between atoms: C_13  and  C_14 
REMARK    6  A    between atoms: C_14  and  C_15 
REMARK    7  A    between atoms: C_25  and  N_26 
REMARK    8  A    between atoms: N_26  and  C_27 
REMARK    9  A    between atoms: C_27  and  C_28 
REMARK   10  A    between atoms: C_28  and  O_29 
REMARK   11  A    between atoms: C_28  and  C_30 
ROOT
HETATM    1  C   UNL     1      39.078 -11.954   4.740  1.00  0.00     0.074 A 
HETATM    2  C   UNL     1      39.135 -10.511   5.130  1.00  0.00     0.266 A 
HETATM    3  O   UNL     1      38.954  -9.640   4.274  1.00  0.00    -0.267 OA
HETATM    4  N   UNL     1      39.399 -10.242   6.460  1.00  0.00    -0.273 N 
HETATM    5  C   UNL     1      39.639 -11.289   7.330  1.00  0.00     0.138 A 
HETATM    6  N   UNL     1      39.633 -12.539   6.990  1.00  0.00    -0.218 NA
HETATM    7  C   UNL     1      39.434  -8.922   6.896  1.00  0.00     0.102 A 
HETATM    8  C   UNL     1      39.693  -8.606   8.171  1.00  0.00     0.018 A 
HETATM    9  C   UNL     1      39.949  -9.651   9.127  1.00  0.00     0.005 A 
HETATM   10  C   UNL     1      39.928 -10.934   8.750  1.00  0.00     0.051 A 
HETATM   11  C   UNL     1      39.351 -12.874   5.692  1.00  0.00     0.121 A 
ENDROOT
BRANCH   1  12
HETATM   12  C   UNL     1      38.747 -12.235   3.350  1.00  0.00     0.045 C 
BRANCH  12  13
HETATM   13  C   UNL     1      39.591 -12.445   2.334  1.00  0.00     0.077 A 
HETATM   14  S   UNL     1      40.361 -11.297   1.317  1.00  0.00    -0.055 SA
HETATM   15  C   UNL     1      41.296 -12.529   0.475  1.00  0.00     0.148 A 
HETATM   16  N   UNL     1      41.044 -13.765   1.031  1.00  0.00    -0.298 N 
HETATM   17  S   UNL     1      42.314 -12.159  -0.794  1.00  0.00    -0.052 SA
HETATM   18  C   UNL     1      40.077 -13.813   2.018  1.00  0.00     0.266 A 
HETATM   19  O   UNL     1      39.671 -14.824   2.576  1.00  0.00    -0.266 OA
BRANCH  16  20
HETATM   20  C   UNL     1      41.745 -15.004   0.687  1.00  0.00     0.138 C 
BRANCH  20  21
HETATM   21  C   UNL     1      42.780 -15.415   1.739  1.00  0.00     0.059 C 
BRANCH  21  22
HETATM   22  C   UNL     1      42.956 -16.915   1.769  1.00  0.00    -0.057 A 
HETATM   23  C   UNL     1      41.854 -17.757   1.576  1.00  0.00     0.010 A 
HETATM   24  C   UNL     1      42.007 -19.144   1.639  1.00  0.00     0.037 A 
HETATM   25  C   UNL     1      43.257 -19.712   1.882  1.00  0.00     0.068 A 
HETATM   26  C   UNL     1      44.357 -18.878   2.078  1.00  0.00     0.037 A 
HETATM   27  C   UNL     1      44.207 -17.486   2.024  1.00  0.00     0.010 A 
BRANCH  25  28
HETATM   28  O   UNL     1      43.268 -21.079   1.915  1.00  0.00    -0.356 OA
HETATM   29  C   UNL     1      44.369 -21.694   2.574  1.00  0.00     0.210 C 
ENDBRANCH  25  28
ENDBRANCH  21  22
ENDBRANCH  20  21
ENDBRANCH  16  20
ENDBRANCH  12  13
ENDBRANCH   1  12
BRANCH  11  30
HETATM   30  N   UNL     1      39.356 -14.239   5.426  1.00  0.00    -0.274 NA
HETATM   31  H   UNL     1      38.419 -14.579   5.652  1.00  0.00     0.129 HD
BRANCH  30  32
HETATM   32  C   UNL     1      40.323 -15.149   6.071  1.00  0.00     0.130 C 
BRANCH  32  33
HETATM   33  C   UNL     1      41.764 -14.974   5.526  1.00  0.00     0.164 C 
BRANCH  33  34
HETATM   34  O   UNL     1      42.444 -13.941   6.257  1.00  0.00    -0.390 OA
HETATM   35  H   UNL     1      42.992 -14.418   6.914  1.00  0.00     0.210 HD
ENDBRANCH  33  34
BRANCH  33  36
HETATM   36  C   UNL     1      42.536 -16.275   5.597  1.00  0.00    -0.029 A 
HETATM   37  C   UNL     1      41.906 -17.482   5.248  1.00  0.00     0.010 A 
HETATM   38  C   UNL     1      42.590 -18.695   5.337  1.00  0.00     0.001 A 
HETATM   39  C   UNL     1      43.913 -18.722   5.773  1.00  0.00     0.000 A 
HETATM   40  C   UNL     1      44.552 -17.534   6.121  1.00  0.00     0.001 A 
HETATM   41  C   UNL     1      43.868 -16.321   6.037  1.00  0.00     0.010 A 
ENDBRANCH  33  36
ENDBRANCH  32  33
ENDBRANCH  30  32
ENDBRANCH  11  30
TORSDOF 11
ENDMDL
MODEL 6
REMARK VINA RESULT:      -8.5      4.774      9.467
REMARK  11 active torsions:
REMARK  status: ('A' for Active; 'I' for Inactive)
REMARK    1  A    between atoms: O_2  and  C_3 
REMARK    2  A    between atoms: C_6  and  C_7 
REMARK    3  A    between atoms: C_7  and  C_8 
REMARK    4  A    between atoms: C_8  and  N_9 
REMARK    5  A    between atoms: C_13  and  C_14 
REMARK    6  A    between atoms: C_14  and  C_15 
REMARK    7  A    between atoms: C_25  and  N_26 
REMARK    8  A    between atoms: N_26  and  C_27 
REMARK    9  A    between atoms: C_27  and  C_28 
REMARK   10  A    between atoms: C_28  and  O_29 
REMARK   11  A    between atoms: C_28  and  C_30 
ROOT
HETATM    1  C   UNL     1      41.537 -10.344   7.143  1.00  0.00     0.074 A 
HETATM    2  C   UNL     1      40.398  -9.378   7.059  1.00  0.00     0.266 A 
HETATM    3  O   UNL     1      39.941  -9.067   5.956  1.00  0.00    -0.267 OA
HETATM    4  N   UNL     1      39.922  -8.881   8.259  1.00  0.00    -0.273 N 
HETATM    5  C   UNL     1      40.537  -9.253   9.440  1.00  0.00     0.138 A 
HETATM    6  N   UNL     1      41.552 -10.055   9.516  1.00  0.00    -0.218 NA
HETATM    7  C   UNL     1      38.843  -8.004   8.255  1.00  0.00     0.102 A 
HETATM    8  C   UNL     1      38.350  -7.487   9.387  1.00  0.00     0.018 A 
HETATM    9  C   UNL     1      38.944  -7.837  10.650  1.00  0.00     0.005 A 
HETATM   10  C   UNL     1      39.986  -8.675  10.700  1.00  0.00     0.051 A 
HETATM   11  C   UNL     1      42.053 -10.603   8.365  1.00  0.00     0.121 A 
ENDROOT
BRANCH   1  12
HETATM   12  C   UNL     1      42.000 -10.906   5.882  1.00  0.00     0.045 C 
BRANCH  12  13
HETATM   13  C   UNL     1      41.559 -12.008   5.266  1.00  0.00     0.077 A 
HETATM   14  S   UNL     1      40.360 -12.156   4.047  1.00  0.00    -0.055 SA
HETATM   15  C   UNL     1      40.635 -13.883   3.852  1.00  0.00     0.148 A 
HETATM   16  N   UNL     1      41.669 -14.285   4.671  1.00  0.00    -0.298 N 
HETATM   17  S   UNL     1      39.731 -14.815   2.804  1.00  0.00    -0.052 SA
HETATM   18  C   UNL     1      42.192 -13.328   5.521  1.00  0.00     0.266 A 
HETATM   19  O   UNL     1      43.060 -13.514   6.363  1.00  0.00    -0.266 OA
BRANCH  16  20
HETATM   20  C   UNL     1      42.272 -15.620   4.676  1.00  0.00     0.138 C 
BRANCH  20  21
HETATM   21  C   UNL     1      43.161 -15.877   3.455  1.00  0.00     0.059 C 
BRANCH  21  22
HETATM   22  C   UNL     1      43.559 -17.331   3.371  1.00  0.00    -0.057 A 
HETATM   23  C   UNL     1      43.612 -17.977   2.130  1.00  0.00     0.010 A 
HETATM   24  C   UNL     1      43.944 -19.332   2.053  1.00  0.00     0.037 A 
HETATM   25  C   UNL     1      44.241 -20.058   3.206  1.00  0.00     0.068 A 
HETATM   26  C   UNL     1      44.188 -19.420   4.445  1.00  0.00     0.037 A 
HETATM   27  C   UNL     1      43.847 -18.064   4.528  1.00  0.00     0.010 A 
BRANCH  25  28
HETATM   28  O   UNL     1      44.554 -21.372   2.990  1.00  0.00    -0.356 OA
HETATM   29  C   UNL     1      44.179 -21.920   1.733  1.00  0.00     0.210 C 
ENDBRANCH  25  28
ENDBRANCH  21  22
ENDBRANCH  20  21
ENDBRANCH  16  20
ENDBRANCH  12  13
ENDBRANCH   1  12
BRANCH  11  30
HETATM   30  N   UNL     1      43.133 -11.461   8.547  1.00  0.00    -0.274 NA
HETATM   31  H   UNL     1      42.743 -12.404   8.608  1.00  0.00     0.129 HD
BRANCH  30  32
HETATM   32  C   UNL     1      44.068 -11.297   9.678  1.00  0.00     0.130 C 
BRANCH  32  33
HETATM   33  C   UNL     1      43.643 -12.109  10.928  1.00  0.00     0.164 C 
BRANCH  33  34
HETATM   34  O   UNL     1      44.745 -12.900  11.399  1.00  0.00    -0.390 OA
HETATM   35  H   UNL     1      44.667 -12.883  12.375  1.00  0.00     0.210 HD
ENDBRANCH  33  34
BRANCH  33  36
HETATM   36  C   UNL     1      43.134 -11.196  12.025  1.00  0.00    -0.029 A 
HETATM   37  C   UNL     1      43.876 -10.059  12.389  1.00  0.00     0.010 A 
HETATM   38  C   UNL     1      43.441  -9.224  13.419  1.00  0.00     0.001 A 
HETATM   39  C   UNL     1      42.258  -9.509  14.099  1.00  0.00     0.000 A 
HETATM   40  C   UNL     1      41.511 -10.631  13.749  1.00  0.00     0.001 A 
HETATM   41  C   UNL     1      41.947 -11.470  12.722  1.00  0.00     0.010 A 
ENDBRANCH  33  36
ENDBRANCH  32  33
ENDBRANCH  30  32
ENDBRANCH  11  30
TORSDOF 11
ENDMDL
MODEL 7
REMARK VINA RESULT:      -8.4      2.720      6.034
REMARK  11 active torsions:
REMARK  status: ('A' for Active; 'I' for Inactive)
REMARK    1  A    between atoms: O_2  and  C_3 
REMARK    2  A    between atoms: C_6  and  C_7 
REMARK    3  A    between atoms: C_7  and  C_8 
REMARK    4  A    between atoms: C_8  and  N_9 
REMARK    5  A    between atoms: C_13  and  C_14 
REMARK    6  A    between atoms: C_14  and  C_15 
REMARK    7  A    between atoms: C_25  and  N_26 
REMARK    8  A    between atoms: N_26  and  C_27 
REMARK    9  A    between atoms: C_27  and  C_28 
REMARK   10  A    between atoms: C_28  and  O_29 
REMARK   11  A    between atoms: C_28  and  C_30 
ROOT
HETATM    1  C   UNL     1      38.245 -13.604  -0.275  1.00  0.00     0.074 A 
HETATM    2  C   UNL     1      37.234 -12.502  -0.252  1.00  0.00     0.266 A 
HETATM    3  O   UNL     1      36.611 -12.267   0.787  1.00  0.00    -0.267 OA
HETATM    4  N   UNL     1      37.057 -11.803  -1.432  1.00  0.00    -0.273 N 
HETATM    5  C   UNL     1      37.767 -12.179  -2.557  1.00  0.00     0.138 A 
HETATM    6  N   UNL     1      38.613 -13.160  -2.595  1.00  0.00    -0.218 NA
HETATM    7  C   UNL     1      36.156 -10.745  -1.471  1.00  0.00     0.102 A 
HETATM    8  C   UNL     1      35.941 -10.042  -2.590  1.00  0.00     0.018 A 
HETATM    9  C   UNL     1      36.651 -10.381  -3.794  1.00  0.00     0.005 A 
HETATM   10  C   UNL     1      37.525 -11.395  -3.802  1.00  0.00     0.051 A 
HETATM   11  C   UNL     1      38.853 -13.875  -1.451  1.00  0.00     0.121 A 
ENDROOT
BRANCH   1  12
HETATM   12  C   UNL     1      38.467 -14.302   0.984  1.00  0.00     0.045 C 
BRANCH  12  13
HETATM   13  C   UNL     1      39.522 -14.203   1.799  1.00  0.00     0.077 A 
HETATM   14  S   UNL     1      40.129 -12.820   2.615  1.00  0.00    -0.055 SA
HETATM   15  C   UNL     1      41.360 -13.746   3.468  1.00  0.00     0.148 A 
HETATM   16  N   UNL     1      41.235 -15.083   3.158  1.00  0.00    -0.298 N 
HETATM   17  S   UNL     1      42.469 -13.024   4.484  1.00  0.00    -0.052 SA
HETATM   18  C   UNL     1      40.288 -15.410   2.205  1.00  0.00     0.266 A 
HETATM   19  O   UNL     1      40.081 -16.529   1.754  1.00  0.00    -0.266 OA
BRANCH  16  20
HETATM   20  C   UNL     1      41.991 -16.169   3.784  1.00  0.00     0.138 C 
BRANCH  20  21
HETATM   21  C   UNL     1      43.284 -16.505   3.033  1.00  0.00     0.059 C 
BRANCH  21  22
HETATM   22  C   UNL     1      43.623 -17.971   3.168  1.00  0.00    -0.057 A 
HETATM   23  C   UNL     1      44.060 -18.482   4.396  1.00  0.00     0.010 A 
HETATM   24  C   UNL     1      44.410 -19.830   4.515  1.00  0.00     0.037 A 
HETATM   25  C   UNL     1      44.317 -20.688   3.419  1.00  0.00     0.068 A 
HETATM   26  C   UNL     1      43.885 -20.183   2.193  1.00  0.00     0.037 A 
HETATM   27  C   UNL     1      43.541 -18.831   2.068  1.00  0.00     0.010 A 
BRANCH  25  28
HETATM   28  O   UNL     1      44.685 -21.981   3.672  1.00  0.00    -0.356 OA
HETATM   29  C   UNL     1      45.055 -22.290   5.010  1.00  0.00     0.210 C 
ENDBRANCH  25  28
ENDBRANCH  21  22
ENDBRANCH  20  21
ENDBRANCH  16  20
ENDBRANCH  12  13
ENDBRANCH   1  12
BRANCH  11  30
HETATM   30  N   UNL     1      39.784 -14.899  -1.586  1.00  0.00    -0.274 NA
HETATM   31  H   UNL     1      39.546 -15.599  -0.880  1.00  0.00     0.129 HD
BRANCH  30  32
HETATM   32  C   UNL     1      41.235 -14.644  -1.483  1.00  0.00     0.130 C 
BRANCH  32  33
HETATM   33  C   UNL     1      41.868 -14.240  -2.838  1.00  0.00     0.164 C 
BRANCH  33  34
HETATM   34  O   UNL     1      40.985 -14.583  -3.916  1.00  0.00    -0.390 OA
HETATM   35  H   UNL     1      40.678 -15.490  -3.711  1.00  0.00     0.210 HD
ENDBRANCH  33  34
BRANCH  33  36
HETATM   36  C   UNL     1      42.197 -12.761  -2.868  1.00  0.00    -0.029 A 
HETATM   37  C   UNL     1      42.767 -12.149  -1.738  1.00  0.00     0.010 A 
HETATM   38  C   UNL     1      43.047 -10.781  -1.733  1.00  0.00     0.001 A 
HETATM   39  C   UNL     1      42.765 -10.006  -2.856  1.00  0.00     0.000 A 
HETATM   40  C   UNL     1      42.202 -10.598  -3.984  1.00  0.00     0.001 A 
HETATM   41  C   UNL     1      41.917 -11.964  -3.989  1.00  0.00     0.010 A 
ENDBRANCH  33  36
ENDBRANCH  32  33
ENDBRANCH  30  32
ENDBRANCH  11  30
TORSDOF 11
ENDMDL
MODEL 8
REMARK VINA RESULT:      -8.4      3.578      4.771
REMARK  11 active torsions:
REMARK  status: ('A' for Active; 'I' for Inactive)
REMARK    1  A    between atoms: O_2  and  C_3 
REMARK    2  A    between atoms: C_6  and  C_7 
REMARK    3  A    between atoms: C_7  and  C_8 
REMARK    4  A    between atoms: C_8  and  N_9 
REMARK    5  A    between atoms: C_13  and  C_14 
REMARK    6  A    between atoms: C_14  and  C_15 
REMARK    7  A    between atoms: C_25  and  N_26 
REMARK    8  A    between atoms: N_26  and  C_27 
REMARK    9  A    between atoms: C_27  and  C_28 
REMARK   10  A    between atoms: C_28  and  O_29 
REMARK   11  A    between atoms: C_28  and  C_30 
ROOT
HETATM    1  C   UNL     1      42.010 -13.860   1.708  1.00  0.00     0.074 A 
HETATM    2  C   UNL     1      42.201 -13.119   0.423  1.00  0.00     0.266 A 
HETATM    3  O   UNL     1      42.653 -11.971   0.441  1.00  0.00    -0.267 OA
HETATM    4  N   UNL     1      41.844 -13.789  -0.733  1.00  0.00    -0.273 N 
HETATM    5  C   UNL     1      41.298 -15.056  -0.643  1.00  0.00     0.138 A 
HETATM    6  N   UNL     1      41.090 -15.685   0.470  1.00  0.00    -0.218 NA
HETATM    7  C   UNL     1      42.026 -13.170  -1.965  1.00  0.00     0.102 A 
HETATM    8  C   UNL     1      41.689 -13.771  -3.113  1.00  0.00     0.018 A 
HETATM    9  C   UNL     1      41.119 -15.091  -3.087  1.00  0.00     0.005 A 
HETATM   10  C   UNL     1      40.923 -15.722  -1.924  1.00  0.00     0.051 A 
HETATM   11  C   UNL     1      41.448 -15.087   1.649  1.00  0.00     0.121 A 
ENDROOT
BRANCH   1  12
HETATM   12  C   UNL     1      42.437 -13.172   2.918  1.00  0.00     0.045 C 
BRANCH  12  13
HETATM   13  C   UNL     1      41.736 -12.306   3.658  1.00  0.00     0.077 A 
HETATM   14  S   UNL     1      40.566 -11.157   3.154  1.00  0.00    -0.055 SA
HETATM   15  C   UNL     1      40.187 -10.677   4.805  1.00  0.00     0.148 A 
HETATM   16  N   UNL     1      40.912 -11.444   5.691  1.00  0.00    -0.298 N 
HETATM   17  S   UNL     1      39.094  -9.463   5.149  1.00  0.00    -0.052 SA
HETATM   18  C   UNL     1      41.828 -12.322   5.142  1.00  0.00     0.266 A 
HETATM   19  O   UNL     1      42.605 -13.032   5.766  1.00  0.00    -0.266 OA
BRANCH  16  20
HETATM   20  C   UNL     1      40.756 -11.427   7.147  1.00  0.00     0.138 C 
BRANCH  20  21
HETATM   21  C   UNL     1      41.680 -10.417   7.834  1.00  0.00     0.059 C 
BRANCH  21  22
HETATM   22  C   UNL     1      41.614 -10.556   9.336  1.00  0.00    -0.057 A 
HETATM   23  C   UNL     1      42.783 -10.486  10.102  1.00  0.00     0.010 A 
HETATM   24  C   UNL     1      42.729 -10.650  11.488  1.00  0.00     0.037 A 
HETATM   25  C   UNL     1      41.512 -10.873  12.132  1.00  0.00     0.068 A 
HETATM   26  C   UNL     1      40.344 -10.947  11.373  1.00  0.00     0.037 A 
HETATM   27  C   UNL     1      40.395 -10.791   9.982  1.00  0.00     0.010 A 
BRANCH  25  28
HETATM   28  O   UNL     1      41.599 -11.013  13.490  1.00  0.00    -0.356 OA
HETATM   29  C   UNL     1      42.512 -10.155  14.163  1.00  0.00     0.210 C 
ENDBRANCH  25  28
ENDBRANCH  21  22
ENDBRANCH  20  21
ENDBRANCH  16  20
ENDBRANCH  12  13
ENDBRANCH   1  12
BRANCH  11  30
HETATM   30  N   UNL     1      41.198 -15.844   2.789  1.00  0.00    -0.274 NA
HETATM   31  H   UNL     1      41.627 -15.341   3.568  1.00  0.00     0.129 HD
BRANCH  30  32
HETATM   32  C   UNL     1      41.623 -17.255   2.887  1.00  0.00     0.130 C 
BRANCH  32  33
HETATM   33  C   UNL     1      43.149 -17.405   3.115  1.00  0.00     0.164 C 
BRANCH  33  34
HETATM   34  O   UNL     1      43.511 -16.863   4.394  1.00  0.00    -0.390 OA
HETATM   35  H   UNL     1      43.049 -17.429   5.047  1.00  0.00     0.210 HD
ENDBRANCH  33  34
BRANCH  33  36
HETATM   36  C   UNL     1      43.577 -18.855   3.008  1.00  0.00    -0.029 A 
HETATM   37  C   UNL     1      44.329 -19.438   4.042  1.00  0.00     0.010 A 
HETATM   38  C   UNL     1      44.761 -20.763   3.948  1.00  0.00     0.001 A 
HETATM   39  C   UNL     1      44.448 -21.522   2.823  1.00  0.00     0.000 A 
HETATM   40  C   UNL     1      43.702 -20.958   1.791  1.00  0.00     0.001 A 
HETATM   41  C   UNL     1      43.273 -19.634   1.881  1.00  0.00     0.010 A 
ENDBRANCH  33  36
ENDBRANCH  32  33
ENDBRANCH  30  32
ENDBRANCH  11  30
TORSDOF 11
ENDMDL
MODEL 9
REMARK VINA RESULT:      -8.4      5.887     10.355
REMARK  11 active torsions:
REMARK  status: ('A' for Active; 'I' for Inactive)
REMARK    1  A    between atoms: O_2  and  C_3 
REMARK    2  A    between atoms: C_6  and  C_7 
REMARK    3  A    between atoms: C_7  and  C_8 
REMARK    4  A    between atoms: C_8  and  N_9 
REMARK    5  A    between atoms: C_13  and  C_14 
REMARK    6  A    between atoms: C_14  and  C_15 
REMARK    7  A    between atoms: C_25  and  N_26 
REMARK    8  A    between atoms: N_26  and  C_27 
REMARK    9  A    between atoms: C_27  and  C_28 
REMARK   10  A    between atoms: C_28  and  O_29 
REMARK   11  A    between atoms: C_28  and  C_30 
ROOT
HETATM    1  C   UNL     1      40.259  -9.918  11.378  1.00  0.00     0.074 A 
HETATM    2  C   UNL     1      39.770  -8.997  12.450  1.00  0.00     0.266 A 
HETATM    3  O   UNL     1      38.764  -8.310  12.253  1.00  0.00    -0.267 OA
HETATM    4  N   UNL     1      40.502  -8.974  13.624  1.00  0.00    -0.273 N 
HETATM    5  C   UNL     1      41.645  -9.744  13.726  1.00  0.00     0.138 A 
HETATM    6  N   UNL     1      42.097 -10.511  12.785  1.00  0.00    -0.218 NA
HETATM    7  C   UNL     1      40.084  -8.163  14.674  1.00  0.00     0.102 A 
HETATM    8  C   UNL     1      40.761  -8.097  15.827  1.00  0.00     0.018 A 
HETATM    9  C   UNL     1      41.958  -8.878  15.997  1.00  0.00     0.005 A 
HETATM   10  C   UNL     1      42.398  -9.668  15.012  1.00  0.00     0.051 A 
HETATM   11  C   UNL     1      41.403 -10.600  11.608  1.00  0.00     0.121 A 
ENDROOT
BRANCH   1  12
HETATM   12  C   UNL     1      39.455  -9.980  10.165  1.00  0.00     0.045 C 
BRANCH  12  13
HETATM   13  C   UNL     1      39.863  -9.804   8.904  1.00  0.00     0.077 A 
HETATM   14  S   UNL     1      40.734  -8.490   8.225  1.00  0.00    -0.055 SA
HETATM   15  C   UNL     1      40.868  -9.268   6.651  1.00  0.00     0.148 A 
HETATM   16  N   UNL     1      40.304 -10.525   6.704  1.00  0.00    -0.298 N 
HETATM   17  S   UNL     1      41.591  -8.518   5.348  1.00  0.00    -0.052 SA
HETATM   18  C   UNL     1      39.679 -10.872   7.887  1.00  0.00     0.266 A 
HETATM   19  O   UNL     1      39.067 -11.911   8.097  1.00  0.00    -0.266 OA
BRANCH  16  20
HETATM   20  C   UNL     1      40.353 -11.518   5.629  1.00  0.00     0.138 C 
BRANCH  20  21
HETATM   21  C   UNL     1      41.744 -12.135   5.451  1.00  0.00     0.059 C 
BRANCH  21  22
HETATM   22  C   UNL     1      41.661 -13.639   5.355  1.00  0.00    -0.057 A 
HETATM   23  C   UNL     1      42.602 -14.351   4.602  1.00  0.00     0.010 A 
HETATM   24  C   UNL     1      42.507 -15.739   4.481  1.00  0.00     0.037 A 
HETATM   25  C   UNL     1      41.483 -16.440   5.118  1.00  0.00     0.068 A 
HETATM   26  C   UNL     1      40.540 -15.736   5.868  1.00  0.00     0.037 A 
HETATM   27  C   UNL     1      40.628 -14.343   5.984  1.00  0.00     0.010 A 
BRANCH  25  28
HETATM   28  O   UNL     1      41.507 -17.793   4.923  1.00  0.00    -0.356 OA
HETATM   29  C   UNL     1      42.676 -18.331   4.318  1.00  0.00     0.210 C 
ENDBRANCH  25  28
ENDBRANCH  21  22
ENDBRANCH  20  21
ENDBRANCH  16  20
ENDBRANCH  12  13
ENDBRANCH   1  12
BRANCH  11  30
HETATM   30  N   UNL     1      41.958 -11.457  10.664  1.00  0.00    -0.274 NA
HETATM   31  H   UNL     1      42.157 -12.332  11.152  1.00  0.00     0.129 HD
BRANCH  30  32
HETATM   32  C   UNL     1      43.170 -11.090   9.905  1.00  0.00     0.130 C 
BRANCH  32  33
HETATM   33  C   UNL     1      44.382 -11.995  10.242  1.00  0.00     0.164 C 
BRANCH  33  34
HETATM   34  O   UNL     1      43.947 -13.146  10.981  1.00  0.00    -0.390 OA
HETATM   35  H   UNL     1      44.723 -13.744  10.996  1.00  0.00     0.210 HD
ENDBRANCH  33  34
BRANCH  33  36
HETATM   36  C   UNL     1      45.117 -12.415   8.984  1.00  0.00    -0.029 A 
HETATM   37  C   UNL     1      44.551 -13.381   8.135  1.00  0.00     0.010 A 
HETATM   38  C   UNL     1      45.226 -13.805   6.989  1.00  0.00     0.001 A 
HETATM   39  C   UNL     1      46.473 -13.270   6.674  1.00  0.00     0.000 A 
HETATM   40  C   UNL     1      47.047 -12.311   7.505  1.00  0.00     0.001 A 
HETATM   41  C   UNL     1      46.375 -11.889   8.653  1.00  0.00     0.010 A 
ENDBRANCH  33  36
ENDBRANCH  32  33
ENDBRANCH  30  32
ENDBRANCH  11  30
TORSDOF 11
ENDMDL
MODEL 10
REMARK VINA RESULT:      -8.4      2.914      7.865
REMARK  11 active torsions:
REMARK  status: ('A' for Active; 'I' for Inactive)
REMARK    1  A    between atoms: O_2  and  C_3 
REMARK    2  A    between atoms: C_6  and  C_7 
REMARK    3  A    between atoms: C_7  and  C_8 
REMARK    4  A    between atoms: C_8  and  N_9 
REMARK    5  A    between atoms: C_13  and  C_14 
REMARK    6  A    between atoms: C_14  and  C_15 
REMARK    7  A    between atoms: C_25  and  N_26 
REMARK    8  A    between atoms: N_26  and  C_27 
REMARK    9  A    between atoms: C_27  and  C_28 
REMARK   10  A    between atoms: C_28  and  O_29 
REMARK   11  A    between atoms: C_28  and  C_30 
ROOT
HETATM    1  C   UNL     1      43.719 -17.410   4.176  1.00  0.00     0.074 A 
HETATM    2  C   UNL     1      44.064 -18.598   3.335  1.00  0.00     0.266 A 
HETATM    3  O   UNL     1      44.163 -18.471   2.111  1.00  0.00    -0.267 OA
HETATM    4  N   UNL     1      44.251 -19.794   4.004  1.00  0.00    -0.273 N 
HETATM    5  C   UNL     1      44.066 -19.842   5.373  1.00  0.00     0.138 A 
HETATM    6  N   UNL     1      43.725 -18.826   6.102  1.00  0.00    -0.218 NA
HETATM    7  C   UNL     1      44.606 -20.930   3.286  1.00  0.00     0.102 A 
HETATM    8  C   UNL     1      44.790 -22.114   3.884  1.00  0.00     0.018 A 
HETATM    9  C   UNL     1      44.616 -22.229   5.307  1.00  0.00     0.005 A 
HETATM   10  C   UNL     1      44.271 -21.162   6.037  1.00  0.00     0.051 A 
HETATM   11  C   UNL     1      43.551 -17.607   5.503  1.00  0.00     0.121 A 
ENDROOT
BRANCH   1  12
HETATM   12  C   UNL     1      43.576 -16.142   3.475  1.00  0.00     0.045 C 
BRANCH  12  13
HETATM   13  C   UNL     1      42.459 -15.609   2.967  1.00  0.00     0.077 A 
HETATM   14  S   UNL     1      41.002 -16.391   2.509  1.00  0.00    -0.055 SA
HETATM   15  C   UNL     1      40.193 -14.874   2.133  1.00  0.00     0.148 A 
HETATM   16  N   UNL     1      41.028 -13.816   2.425  1.00  0.00    -0.298 N 
HETATM   17  S   UNL     1      38.641 -14.821   1.522  1.00  0.00    -0.052 SA
HETATM   18  C   UNL     1      42.310 -14.137   2.833  1.00  0.00     0.266 A 
HETATM   19  O   UNL     1      43.208 -13.339   3.068  1.00  0.00    -0.266 OA
BRANCH  16  20
HETATM   20  C   UNL     1      40.650 -12.403   2.375  1.00  0.00     0.138 C 
BRANCH  20  21
HETATM   21  C   UNL     1      39.422 -12.084   3.235  1.00  0.00     0.059 C 
BRANCH  21  22
HETATM   22  C   UNL     1      39.824 -11.759   4.654  1.00  0.00    -0.057 A 
HETATM   23  C   UNL     1      40.897 -10.895   4.902  1.00  0.00     0.010 A 
HETATM   24  C   UNL     1      41.294 -10.621   6.213  1.00  0.00     0.037 A 
HETATM   25  C   UNL     1      40.622 -11.191   7.294  1.00  0.00     0.068 A 
HETATM   26  C   UNL     1      39.554 -12.054   7.052  1.00  0.00     0.037 A 
HETATM   27  C   UNL     1      39.158 -12.338   5.739  1.00  0.00     0.010 A 
BRANCH  25  28
HETATM   28  O   UNL     1      41.109 -10.837   8.522  1.00  0.00    -0.356 OA
HETATM   29  C   UNL     1      41.726  -9.560   8.621  1.00  0.00     0.210 C 
ENDBRANCH  25  28
ENDBRANCH  21  22
ENDBRANCH  20  21
ENDBRANCH  16  20
ENDBRANCH  12  13
ENDBRANCH   1  12
BRANCH  11  30
HETATM   30  N   UNL     1      43.198 -16.575   6.367  1.00  0.00    -0.274 NA
HETATM   31  H   UNL     1      42.534 -15.988   5.858  1.00  0.00     0.129 HD
BRANCH  30  32
HETATM   32  C   UNL     1      44.213 -15.682   6.958  1.00  0.00     0.130 C 
BRANCH  32  33
HETATM   33  C   UNL     1      44.128 -14.235   6.409  1.00  0.00     0.164 C 
BRANCH  33  34
HETATM   34  O   UNL     1      42.756 -13.863   6.211  1.00  0.00    -0.390 OA
HETATM   35  H   UNL     1      42.790 -12.944   5.874  1.00  0.00     0.210 HD
ENDBRANCH  33  34
BRANCH  33  36
HETATM   36  C   UNL     1      44.818 -13.256   7.339  1.00  0.00    -0.029 A 
HETATM   37  C   UNL     1      46.193 -13.006   7.194  1.00  0.00     0.010 A 
HETATM   38  C   UNL     1      46.854 -12.133   8.060  1.00  0.00     0.001 A 
HETATM   39  C   UNL     1      46.151 -11.496   9.081  1.00  0.00     0.000 A 
HETATM   40  C   UNL     1      44.787 -11.733   9.237  1.00  0.00     0.001 A 
HETATM   41  C   UNL     1      44.126 -12.609   8.374  1.00  0.00     0.010 A 
ENDBRANCH  33  36
ENDBRANCH  32  33
ENDBRANCH  30  32
ENDBRANCH  11  30
TORSDOF 11
ENDMDL
