MODEL 1
REMARK VINA RESULT:      -8.7      0.000      0.000
REMARK  3 active torsions:
REMARK  status: ('A' for Active; 'I' for Inactive)
REMARK    1  A    between atoms: C_7  and  C_8 
REMARK    2  A    between atoms: C_17  and  C_18 
REMARK       I    between atoms: C_18  and  N_19 
REMARK    3  A    between atoms: N_19  and  C_20 
ROOT
HETATM    1  C   UNL     1      41.201 -15.098   4.399  1.00  0.00     0.206 C 
HETATM    2  N   UNL     1      41.046 -13.785   5.035  1.00  0.00    -0.084 N 
HETATM    3  C   UNL     1      41.944 -13.253   5.919  1.00  0.00     0.725 A 
HETATM    4  N   UNL     1      41.534 -12.071   6.301  1.00  0.00    -0.054 NA
HETATM    5  C   UNL     1      40.341 -11.936   5.638  1.00  0.00     0.275 A 
HETATM    6  N   UNL     1      39.984 -12.968   4.865  1.00  0.00    -0.149 NA
HETATM    7  N   UNL     1      43.022 -13.976   6.282  1.00  0.00    -0.192 N 
HETATM    8  C   UNL     1      43.176 -15.319   5.947  1.00  0.00     0.037 C 
HETATM    9  C   UNL     1      44.248 -16.058   6.708  1.00  0.00     0.070 C 
HETATM   10  C   UNL     1      42.335 -15.884   5.044  1.00  0.00     0.063 C 
HETATM   11  H   UNL     1      43.608 -13.608   7.028  1.00  0.00     0.184 HD
ENDROOT
BRANCH  10  12
HETATM   12  C   UNL     1      42.345 -17.327   4.684  1.00  0.00     0.256 C 
HETATM   13  N   UNL     1      43.351 -17.672   3.809  1.00  0.00    -0.323 N 
HETATM   14  H   UNL     1      43.935 -16.923   3.459  1.00  0.00     0.169 HD
HETATM   15  O   UNL     1      41.477 -18.053   5.153  1.00  0.00    -0.267 OA
BRANCH  13  16
HETATM   16  C   UNL     1      43.692 -18.969   3.370  1.00  0.00     0.035 A 
HETATM   17  C   UNL     1      43.274 -19.518   2.155  1.00  0.00     0.029 A 
HETATM   18  C   UNL     1      43.631 -20.825   1.807  1.00  0.00     0.002 A 
HETATM   19  C   UNL     1      44.403 -21.596   2.671  1.00  0.00     0.000 A 
HETATM   20  C   UNL     1      44.826 -21.060   3.884  1.00  0.00     0.002 A 
HETATM   21  C   UNL     1      44.477 -19.751   4.229  1.00  0.00     0.029 A 
ENDBRANCH  13  16
ENDBRANCH  10  12
BRANCH   1  22
HETATM   22  C   UNL     1      41.430 -14.912   2.921  1.00  0.00     0.015 A 
HETATM   23  C   UNL     1      40.988 -15.697   1.864  1.00  0.00     0.036 A 
HETATM   24  C   UNL     1      40.177 -16.943   1.848  1.00  0.00     0.070 C 
HETATM   25  N   UNL     1      41.424 -15.070   0.723  1.00  0.00    -0.278 N 
HETATM   26  C   UNL     1      41.162 -15.439  -0.649  1.00  0.00     0.179 C 
HETATM   27  N   UNL     1      42.187 -13.989   0.967  1.00  0.00    -0.185 NA
HETATM   28  C   UNL     1      42.160 -13.872   2.293  1.00  0.00     0.150 A 
ENDBRANCH   1  22
TORSDOF 3
ENDMDL
MODEL 2
REMARK VINA RESULT:      -8.3      0.926      1.425
REMARK  3 active torsions:
REMARK  status: ('A' for Active; 'I' for Inactive)
REMARK    1  A    between atoms: C_7  and  C_8 
REMARK    2  A    between atoms: C_17  and  C_18 
REMARK       I    between atoms: C_18  and  N_19 
REMARK    3  A    between atoms: N_19  and  C_20 
ROOT
HETATM    1  C   UNL     1      40.567 -14.853   4.703  1.00  0.00     0.206 C 
HETATM    2  N   UNL     1      40.345 -13.544   5.327  1.00  0.00    -0.084 N 
HETATM    3  C   UNL     1      41.295 -12.868   6.043  1.00  0.00     0.725 A 
HETATM    4  N   UNL     1      40.801 -11.731   6.461  1.00  0.00    -0.054 NA
HETATM    5  C   UNL     1      39.510 -11.774   5.997  1.00  0.00     0.275 A 
HETATM    6  N   UNL     1      39.173 -12.874   5.314  1.00  0.00    -0.149 NA
HETATM    7  N   UNL     1      42.501 -13.435   6.242  1.00  0.00    -0.192 N 
HETATM    8  C   UNL     1      42.773 -14.761   5.916  1.00  0.00     0.037 C 
HETATM    9  C   UNL     1      44.039 -15.329   6.509  1.00  0.00     0.070 C 
HETATM   10  C   UNL     1      41.881 -15.464   5.173  1.00  0.00     0.063 C 
HETATM   11  H   UNL     1      43.144 -12.967   6.876  1.00  0.00     0.184 HD
ENDROOT
BRANCH  10  12
HETATM   12  C   UNL     1      42.021 -16.909   4.847  1.00  0.00     0.256 C 
HETATM   13  N   UNL     1      42.974 -17.169   3.887  1.00  0.00    -0.323 N 
HETATM   14  H   UNL     1      43.433 -16.372   3.464  1.00  0.00     0.169 HD
HETATM   15  O   UNL     1      41.290 -17.711   5.415  1.00  0.00    -0.267 OA
BRANCH  13  16
HETATM   16  C   UNL     1      43.417 -18.435   3.446  1.00  0.00     0.035 A 
HETATM   17  C   UNL     1      43.024 -19.025   2.243  1.00  0.00     0.029 A 
HETATM   18  C   UNL     1      43.486 -20.298   1.893  1.00  0.00     0.002 A 
HETATM   19  C   UNL     1      44.339 -20.994   2.745  1.00  0.00     0.000 A 
HETATM   20  C   UNL     1      44.738 -20.416   3.947  1.00  0.00     0.002 A 
HETATM   21  C   UNL     1      44.284 -19.140   4.293  1.00  0.00     0.029 A 
ENDBRANCH  13  16
ENDBRANCH  10  12
BRANCH   1  22
HETATM   22  C   UNL     1      40.535 -14.702   3.203  1.00  0.00     0.015 A 
HETATM   23  C   UNL     1      41.439 -14.050   2.373  1.00  0.00     0.036 A 
HETATM   24  C   UNL     1      42.686 -13.306   2.685  1.00  0.00     0.070 C 
HETATM   25  N   UNL     1      40.980 -14.246   1.094  1.00  0.00    -0.278 N 
HETATM   26  C   UNL     1      41.601 -13.837  -0.145  1.00  0.00     0.179 C 
HETATM   27  N   UNL     1      39.805 -14.899   1.043  1.00  0.00    -0.185 NA
HETATM   28  C   UNL     1      39.555 -15.207   2.314  1.00  0.00     0.150 A 
ENDBRANCH   1  22
TORSDOF 3
ENDMDL
MODEL 3
REMARK VINA RESULT:      -7.7      1.846      5.528
REMARK  3 active torsions:
REMARK  status: ('A' for Active; 'I' for Inactive)
REMARK    1  A    between atoms: C_7  and  C_8 
REMARK    2  A    between atoms: C_17  and  C_18 
REMARK       I    between atoms: C_18  and  N_19 
REMARK    3  A    between atoms: N_19  and  C_20 
ROOT
HETATM    1  C   UNL     1      41.788 -16.645   4.601  1.00  0.00     0.206 C 
HETATM    2  N   UNL     1      42.542 -17.335   5.654  1.00  0.00    -0.084 N 
HETATM    3  C   UNL     1      43.574 -18.201   5.413  1.00  0.00     0.725 A 
HETATM    4  N   UNL     1      44.048 -18.643   6.549  1.00  0.00    -0.054 NA
HETATM    5  C   UNL     1      43.237 -18.034   7.472  1.00  0.00     0.275 A 
HETATM    6  N   UNL     1      42.282 -17.239   6.976  1.00  0.00    -0.149 NA
HETATM    7  N   UNL     1      43.908 -18.492   4.140  1.00  0.00    -0.192 N 
HETATM    8  C   UNL     1      43.135 -18.102   3.050  1.00  0.00     0.037 C 
HETATM    9  C   UNL     1      43.457 -18.791   1.747  1.00  0.00     0.070 C 
HETATM   10  C   UNL     1      42.125 -17.214   3.229  1.00  0.00     0.063 C 
HETATM   11  H   UNL     1      44.595 -19.227   3.989  1.00  0.00     0.184 HD
ENDROOT
BRANCH  10  12
HETATM   12  C   UNL     1      41.177 -16.801   2.159  1.00  0.00     0.256 C 
HETATM   13  N   UNL     1      41.653 -15.785   1.361  1.00  0.00    -0.323 N 
HETATM   14  H   UNL     1      42.552 -15.388   1.606  1.00  0.00     0.169 HD
HETATM   15  O   UNL     1      40.087 -17.355   2.098  1.00  0.00    -0.267 OA
BRANCH  13  16
HETATM   16  C   UNL     1      41.045 -15.254   0.203  1.00  0.00     0.035 A 
HETATM   17  C   UNL     1      40.137 -14.193   0.214  1.00  0.00     0.029 A 
HETATM   18  C   UNL     1      39.555 -13.745  -0.977  1.00  0.00     0.002 A 
HETATM   19  C   UNL     1      39.871 -14.357  -2.187  1.00  0.00     0.000 A 
HETATM   20  C   UNL     1      40.775 -15.415  -2.210  1.00  0.00     0.002 A 
HETATM   21  C   UNL     1      41.364 -15.857  -1.022  1.00  0.00     0.029 A 
ENDBRANCH  13  16
ENDBRANCH  10  12
BRANCH   1  22
HETATM   22  C   UNL     1      42.074 -15.167   4.670  1.00  0.00     0.015 A 
HETATM   23  C   UNL     1      41.206 -14.124   4.968  1.00  0.00     0.036 A 
HETATM   24  C   UNL     1      39.756 -14.125   5.295  1.00  0.00     0.070 C 
HETATM   25  N   UNL     1      41.970 -12.983   4.946  1.00  0.00    -0.278 N 
HETATM   26  C   UNL     1      41.563 -11.634   5.266  1.00  0.00     0.179 C 
HETATM   27  N   UNL     1      43.244 -13.202   4.573  1.00  0.00    -0.185 NA
HETATM   28  C   UNL     1      43.316 -14.525   4.443  1.00  0.00     0.150 A 
ENDBRANCH   1  22
TORSDOF 3
ENDMDL
MODEL 4
REMARK VINA RESULT:      -7.5      2.487      5.373
REMARK  3 active torsions:
REMARK  status: ('A' for Active; 'I' for Inactive)
REMARK    1  A    between atoms: C_7  and  C_8 
REMARK    2  A    between atoms: C_17  and  C_18 
REMARK       I    between atoms: C_18  and  N_19 
REMARK    3  A    between atoms: N_19  and  C_20 
ROOT
HETATM    1  C   UNL     1      42.030 -13.212   0.594  1.00  0.00     0.206 C 
HETATM    2  N   UNL     1      42.274 -12.139  -0.376  1.00  0.00    -0.084 N 
HETATM    3  C   UNL     1      41.914 -12.204  -1.695  1.00  0.00     0.725 A 
HETATM    4  N   UNL     1      42.255 -11.094  -2.296  1.00  0.00    -0.054 NA
HETATM    5  C   UNL     1      42.863 -10.382  -1.294  1.00  0.00     0.275 A 
HETATM    6  N   UNL     1      42.921 -10.986  -0.102  1.00  0.00    -0.149 NA
HETATM    7  N   UNL     1      41.341 -13.329  -2.168  1.00  0.00    -0.192 N 
HETATM    8  C   UNL     1      41.266 -14.505  -1.428  1.00  0.00     0.037 C 
HETATM    9  C   UNL     1      40.914 -15.744  -2.213  1.00  0.00     0.070 C 
HETATM   10  C   UNL     1      41.573 -14.485  -0.106  1.00  0.00     0.063 C 
HETATM   11  H   UNL     1      41.194 -13.396  -3.173  1.00  0.00     0.184 HD
ENDROOT
BRANCH  10  12
HETATM   12  C   UNL     1      41.621 -15.696   0.758  1.00  0.00     0.256 C 
HETATM   13  N   UNL     1      42.893 -16.188   0.950  1.00  0.00    -0.323 N 
HETATM   14  H   UNL     1      43.645 -15.728   0.453  1.00  0.00     0.169 HD
HETATM   15  O   UNL     1      40.568 -16.152   1.185  1.00  0.00    -0.267 OA
BRANCH  13  16
HETATM   16  C   UNL     1      43.278 -17.246   1.801  1.00  0.00     0.035 A 
HETATM   17  C   UNL     1      43.475 -18.561   1.372  1.00  0.00     0.029 A 
HETATM   18  C   UNL     1      43.828 -19.559   2.286  1.00  0.00     0.002 A 
HETATM   19  C   UNL     1      43.980 -19.255   3.635  1.00  0.00     0.000 A 
HETATM   20  C   UNL     1      43.787 -17.948   4.074  1.00  0.00     0.002 A 
HETATM   21  C   UNL     1      43.444 -16.947   3.160  1.00  0.00     0.029 A 
ENDBRANCH  13  16
ENDBRANCH  10  12
BRANCH   1  22
HETATM   22  C   UNL     1      41.017 -12.747   1.608  1.00  0.00     0.015 A 
HETATM   23  C   UNL     1      41.142 -12.657   2.989  1.00  0.00     0.036 A 
HETATM   24  C   UNL     1      42.278 -12.988   3.888  1.00  0.00     0.070 C 
HETATM   25  N   UNL     1      39.956 -12.131   3.439  1.00  0.00    -0.278 N 
HETATM   26  C   UNL     1      39.603 -11.766   4.791  1.00  0.00     0.179 C 
HETATM   27  N   UNL     1      39.046 -11.958   2.464  1.00  0.00    -0.185 NA
HETATM   28  C   UNL     1      39.698 -12.294   1.353  1.00  0.00     0.150 A 
ENDBRANCH   1  22
TORSDOF 3
ENDMDL
MODEL 5
REMARK VINA RESULT:      -7.4      2.412      3.398
REMARK  3 active torsions:
REMARK  status: ('A' for Active; 'I' for Inactive)
REMARK    1  A    between atoms: C_7  and  C_8 
REMARK    2  A    between atoms: C_17  and  C_18 
REMARK       I    between atoms: C_18  and  N_19 
REMARK    3  A    between atoms: N_19  and  C_20 
ROOT
HETATM    1  C   UNL     1      39.577 -13.361   1.828  1.00  0.00     0.206 C 
HETATM    2  N   UNL     1      38.830 -12.187   2.293  1.00  0.00    -0.084 N 
HETATM    3  C   UNL     1      38.796 -11.768   3.595  1.00  0.00     0.725 A 
HETATM    4  N   UNL     1      38.057 -10.693   3.689  1.00  0.00    -0.054 NA
HETATM    5  C   UNL     1      37.626 -10.509   2.400  1.00  0.00     0.275 A 
HETATM    6  N   UNL     1      38.052 -11.410   1.508  1.00  0.00    -0.149 NA
HETATM    7  N   UNL     1      39.440 -12.486   4.536  1.00  0.00    -0.192 N 
HETATM    8  C   UNL     1      39.987 -13.741   4.284  1.00  0.00     0.037 C 
HETATM    9  C   UNL     1      40.360 -14.543   5.506  1.00  0.00     0.070 C 
HETATM   10  C   UNL     1      40.080 -14.186   3.006  1.00  0.00     0.063 C 
HETATM   11  H   UNL     1      39.300 -12.222   5.509  1.00  0.00     0.184 HD
ENDROOT
BRANCH  10  12
HETATM   12  C   UNL     1      40.556 -15.544   2.627  1.00  0.00     0.256 C 
HETATM   13  N   UNL     1      41.891 -15.755   2.891  1.00  0.00    -0.323 N 
HETATM   14  H   UNL     1      42.420 -14.971   3.252  1.00  0.00     0.169 HD
HETATM   15  O   UNL     1      39.763 -16.319   2.109  1.00  0.00    -0.267 OA
BRANCH  13  16
HETATM   16  C   UNL     1      42.608 -16.963   2.751  1.00  0.00     0.035 A 
HETATM   17  C   UNL     1      43.081 -17.455   1.533  1.00  0.00     0.029 A 
HETATM   18  C   UNL     1      43.757 -18.678   1.476  1.00  0.00     0.002 A 
HETATM   19  C   UNL     1      43.960 -19.423   2.635  1.00  0.00     0.000 A 
HETATM   20  C   UNL     1      43.493 -18.942   3.855  1.00  0.00     0.002 A 
HETATM   21  C   UNL     1      42.826 -17.716   3.914  1.00  0.00     0.029 A 
ENDBRANCH  13  16
ENDBRANCH  10  12
BRANCH   1  22
HETATM   22  C   UNL     1      40.712 -12.912   0.944  1.00  0.00     0.015 A 
HETATM   23  C   UNL     1      41.037 -13.333  -0.339  1.00  0.00     0.036 A 
HETATM   24  C   UNL     1      40.396 -14.338  -1.227  1.00  0.00     0.070 C 
HETATM   25  N   UNL     1      42.124 -12.583  -0.716  1.00  0.00    -0.278 N 
HETATM   26  C   UNL     1      42.801 -12.578  -1.992  1.00  0.00     0.179 C 
HETATM   27  N   UNL     1      42.577 -11.775   0.260  1.00  0.00    -0.185 NA
HETATM   28  C   UNL     1      41.702 -11.946   1.249  1.00  0.00     0.150 A 
ENDBRANCH   1  22
TORSDOF 3
ENDMDL
MODEL 6
REMARK VINA RESULT:      -7.3      1.274      1.728
REMARK  3 active torsions:
REMARK  status: ('A' for Active; 'I' for Inactive)
REMARK    1  A    between atoms: C_7  and  C_8 
REMARK    2  A    between atoms: C_17  and  C_18 
REMARK       I    between atoms: C_18  and  N_19 
REMARK    3  A    between atoms: N_19  and  C_20 
ROOT
HETATM    1  C   UNL     1      41.428 -15.222   4.421  1.00  0.00     0.206 C 
HETATM    2  N   UNL     1      40.735 -14.105   5.075  1.00  0.00    -0.084 N 
HETATM    3  C   UNL     1      41.331 -13.249   5.961  1.00  0.00     0.725 A 
HETATM    4  N   UNL     1      40.460 -12.359   6.360  1.00  0.00    -0.054 NA
HETATM    5  C   UNL     1      39.316 -12.740   5.706  1.00  0.00     0.275 A 
HETATM    6  N   UNL     1      39.424 -13.818   4.922  1.00  0.00    -0.149 NA
HETATM    7  N   UNL     1      42.618 -13.447   6.307  1.00  0.00    -0.192 N 
HETATM    8  C   UNL     1      43.325 -14.593   5.954  1.00  0.00     0.037 C 
HETATM    9  C   UNL     1      44.619 -14.812   6.699  1.00  0.00     0.070 C 
HETATM   10  C   UNL     1      42.796 -15.455   5.049  1.00  0.00     0.063 C 
HETATM   11  H   UNL     1      42.999 -12.872   7.054  1.00  0.00     0.184 HD
ENDROOT
BRANCH  10  12
HETATM   12  C   UNL     1      43.416 -16.753   4.671  1.00  0.00     0.256 C 
HETATM   13  N   UNL     1      43.378 -17.696   5.675  1.00  0.00    -0.323 N 
HETATM   14  H   UNL     1      42.996 -17.406   6.566  1.00  0.00     0.169 HD
HETATM   15  O   UNL     1      43.913 -16.863   3.558  1.00  0.00    -0.267 OA
BRANCH  13  16
HETATM   16  C   UNL     1      43.779 -19.047   5.591  1.00  0.00     0.035 A 
HETATM   17  C   UNL     1      43.646 -19.967   6.633  1.00  0.00     0.029 A 
HETATM   18  C   UNL     1      44.097 -21.282   6.480  1.00  0.00     0.002 A 
HETATM   19  C   UNL     1      44.690 -21.687   5.288  1.00  0.00     0.000 A 
HETATM   20  C   UNL     1      44.827 -20.779   4.242  1.00  0.00     0.002 A 
HETATM   21  C   UNL     1      44.368 -19.467   4.391  1.00  0.00     0.029 A 
ENDBRANCH  13  16
ENDBRANCH  10  12
BRANCH   1  22
HETATM   22  C   UNL     1      41.539 -14.942   2.944  1.00  0.00     0.015 A 
HETATM   23  C   UNL     1      41.142 -15.735   1.875  1.00  0.00     0.036 A 
HETATM   24  C   UNL     1      40.506 -17.077   1.839  1.00  0.00     0.070 C 
HETATM   25  N   UNL     1      41.420 -15.005   0.745  1.00  0.00    -0.278 N 
HETATM   26  C   UNL     1      41.127 -15.347  -0.628  1.00  0.00     0.179 C 
HETATM   27  N   UNL     1      42.045 -13.842   1.002  1.00  0.00    -0.185 NA
HETATM   28  C   UNL     1      42.084 -13.787   2.332  1.00  0.00     0.150 A 
ENDBRANCH   1  22
TORSDOF 3
ENDMDL
MODEL 7
REMARK VINA RESULT:      -7.3      2.575      5.879
REMARK  3 active torsions:
REMARK  status: ('A' for Active; 'I' for Inactive)
REMARK    1  A    between atoms: C_7  and  C_8 
REMARK    2  A    between atoms: C_17  and  C_18 
REMARK       I    between atoms: C_18  and  N_19 
REMARK    3  A    between atoms: N_19  and  C_20 
ROOT
HETATM    1  C   UNL     1      43.455 -15.607   3.662  1.00  0.00     0.206 C 
HETATM    2  N   UNL     1      43.512 -16.889   2.951  1.00  0.00    -0.084 N 
HETATM    3  C   UNL     1      43.036 -18.067   3.460  1.00  0.00     0.725 A 
HETATM    4  N   UNL     1      43.222 -19.026   2.589  1.00  0.00    -0.054 NA
HETATM    5  C   UNL     1      43.857 -18.380   1.559  1.00  0.00     0.275 A 
HETATM    6  N   UNL     1      44.080 -17.073   1.739  1.00  0.00    -0.149 NA
HETATM    7  N   UNL     1      42.522 -18.089   4.705  1.00  0.00    -0.192 N 
HETATM    8  C   UNL     1      42.618 -17.009   5.579  1.00  0.00     0.037 C 
HETATM    9  C   UNL     1      42.303 -17.314   7.023  1.00  0.00     0.070 C 
HETATM   10  C   UNL     1      43.046 -15.808   5.115  1.00  0.00     0.063 C 
HETATM   11  H   UNL     1      42.287 -18.995   5.103  1.00  0.00     0.184 HD
ENDROOT
BRANCH  10  12
HETATM   12  C   UNL     1      43.280 -14.616   5.975  1.00  0.00     0.256 C 
HETATM   13  N   UNL     1      44.483 -14.645   6.644  1.00  0.00    -0.323 N 
HETATM   14  H   UNL     1      45.052 -15.476   6.536  1.00  0.00     0.169 HD
HETATM   15  O   UNL     1      42.408 -13.759   6.036  1.00  0.00    -0.267 OA
BRANCH  13  16
HETATM   16  C   UNL     1      45.041 -13.622   7.440  1.00  0.00     0.035 A 
HETATM   17  C   UNL     1      44.400 -13.052   8.542  1.00  0.00     0.029 A 
HETATM   18  C   UNL     1      45.009 -12.019   9.262  1.00  0.00     0.002 A 
HETATM   19  C   UNL     1      46.261 -11.543   8.883  1.00  0.00     0.000 A 
HETATM   20  C   UNL     1      46.910 -12.103   7.786  1.00  0.00     0.002 A 
HETATM   21  C   UNL     1      46.306 -13.142   7.072  1.00  0.00     0.029 A 
ENDBRANCH  13  16
ENDBRANCH  10  12
BRANCH   1  22
HETATM   22  C   UNL     1      42.505 -14.682   2.945  1.00  0.00     0.015 A 
HETATM   23  C   UNL     1      41.201 -14.922   2.530  1.00  0.00     0.036 A 
HETATM   24  C   UNL     1      40.349 -16.134   2.647  1.00  0.00     0.070 C 
HETATM   25  N   UNL     1      40.762 -13.746   1.974  1.00  0.00    -0.278 N 
HETATM   26  C   UNL     1      39.447 -13.442   1.460  1.00  0.00     0.179 C 
HETATM   27  N   UNL     1      41.712 -12.795   1.920  1.00  0.00    -0.185 NA
HETATM   28  C   UNL     1      42.753 -13.347   2.540  1.00  0.00     0.150 A 
ENDBRANCH   1  22
TORSDOF 3
ENDMDL
MODEL 8
REMARK VINA RESULT:      -7.2      2.095      2.713
REMARK  3 active torsions:
REMARK  status: ('A' for Active; 'I' for Inactive)
REMARK    1  A    between atoms: C_7  and  C_8 
REMARK    2  A    between atoms: C_17  and  C_18 
REMARK       I    between atoms: C_18  and  N_19 
REMARK    3  A    between atoms: N_19  and  C_20 
ROOT
HETATM    1  C   UNL     1      41.294 -14.845   2.050  1.00  0.00     0.206 C 
HETATM    2  N   UNL     1      40.479 -13.769   2.627  1.00  0.00    -0.084 N 
HETATM    3  C   UNL     1      40.968 -12.806   3.467  1.00  0.00     0.725 A 
HETATM    4  N   UNL     1      40.004 -11.987   3.801  1.00  0.00    -0.054 NA
HETATM    5  C   UNL     1      38.917 -12.521   3.156  1.00  0.00     0.275 A 
HETATM    6  N   UNL     1      39.149 -13.627   2.440  1.00  0.00    -0.149 NA
HETATM    7  N   UNL     1      42.262 -12.850   3.840  1.00  0.00    -0.192 N 
HETATM    8  C   UNL     1      43.089 -13.936   3.566  1.00  0.00     0.037 C 
HETATM    9  C   UNL     1      44.383 -13.977   4.339  1.00  0.00     0.070 C 
HETATM   10  C   UNL     1      42.666 -14.899   2.708  1.00  0.00     0.063 C 
HETATM   11  H   UNL     1      42.568 -12.196   4.557  1.00  0.00     0.184 HD
ENDROOT
BRANCH  10  12
HETATM   12  C   UNL     1      43.422 -16.147   2.417  1.00  0.00     0.256 C 
HETATM   13  N   UNL     1      43.009 -17.230   3.161  1.00  0.00    -0.323 N 
HETATM   14  H   UNL     1      42.291 -17.065   3.856  1.00  0.00     0.169 HD
HETATM   15  O   UNL     1      44.330 -16.104   1.596  1.00  0.00    -0.267 OA
BRANCH  13  16
HETATM   16  C   UNL     1      43.446 -18.566   3.039  1.00  0.00     0.035 A 
HETATM   17  C   UNL     1      43.168 -19.382   1.940  1.00  0.00     0.029 A 
HETATM   18  C   UNL     1      43.613 -20.708   1.911  1.00  0.00     0.002 A 
HETATM   19  C   UNL     1      44.334 -21.231   2.980  1.00  0.00     0.000 A 
HETATM   20  C   UNL     1      44.619 -20.426   4.080  1.00  0.00     0.002 A 
HETATM   21  C   UNL     1      44.182 -19.099   4.107  1.00  0.00     0.029 A 
ENDBRANCH  13  16
ENDBRANCH  10  12
BRANCH   1  22
HETATM   22  C   UNL     1      41.404 -14.642   0.560  1.00  0.00     0.015 A 
HETATM   23  C   UNL     1      41.786 -13.503  -0.138  1.00  0.00     0.036 A 
HETATM   24  C   UNL     1      42.188 -12.155   0.339  1.00  0.00     0.070 C 
HETATM   25  N   UNL     1      41.769 -13.856  -1.466  1.00  0.00    -0.278 N 
HETATM   26  C   UNL     1      42.160 -13.055  -2.603  1.00  0.00     0.179 C 
HETATM   27  N   UNL     1      41.321 -15.106  -1.679  1.00  0.00    -0.185 NA
HETATM   28  C   UNL     1      41.137 -15.594  -0.454  1.00  0.00     0.150 A 
ENDBRANCH   1  22
TORSDOF 3
ENDMDL
MODEL 9
REMARK VINA RESULT:      -7.0      2.376      5.209
REMARK  3 active torsions:
REMARK  status: ('A' for Active; 'I' for Inactive)
REMARK    1  A    between atoms: C_7  and  C_8 
REMARK    2  A    between atoms: C_17  and  C_18 
REMARK       I    between atoms: C_18  and  N_19 
REMARK    3  A    between atoms: N_19  and  C_20 
ROOT
HETATM    1  C   UNL     1      41.886 -13.355   1.777  1.00  0.00     0.206 C 
HETATM    2  N   UNL     1      42.158 -12.850   0.426  1.00  0.00    -0.084 N 
HETATM    3  C   UNL     1      42.001 -13.592  -0.714  1.00  0.00     0.725 A 
HETATM    4  N   UNL     1      42.311 -12.864  -1.755  1.00  0.00    -0.054 NA
HETATM    5  C   UNL     1      42.692 -11.674  -1.190  1.00  0.00     0.275 A 
HETATM    6  N   UNL     1      42.637 -11.619   0.146  1.00  0.00    -0.149 NA
HETATM    7  N   UNL     1      41.621 -14.881  -0.615  1.00  0.00    -0.192 N 
HETATM    8  C   UNL     1      41.559 -15.558   0.600  1.00  0.00     0.037 C 
HETATM    9  C   UNL     1      41.453 -17.060   0.502  1.00  0.00     0.070 C 
HETATM   10  C   UNL     1      41.668 -14.862   1.760  1.00  0.00     0.063 C 
HETATM   11  H   UNL     1      41.629 -15.442  -1.464  1.00  0.00     0.184 HD
ENDROOT
BRANCH  10  12
HETATM   12  C   UNL     1      41.712 -15.489   3.109  1.00  0.00     0.256 C 
HETATM   13  N   UNL     1      42.983 -15.822   3.522  1.00  0.00    -0.323 N 
HETATM   14  H   UNL     1      43.737 -15.666   2.865  1.00  0.00     0.169 HD
HETATM   15  O   UNL     1      40.658 -15.677   3.702  1.00  0.00    -0.267 OA
BRANCH  13  16
HETATM   16  C   UNL     1      43.366 -16.324   4.784  1.00  0.00     0.035 A 
HETATM   17  C   UNL     1      43.392 -15.561   5.953  1.00  0.00     0.029 A 
HETATM   18  C   UNL     1      43.815 -16.127   7.161  1.00  0.00     0.002 A 
HETATM   19  C   UNL     1      44.219 -17.458   7.209  1.00  0.00     0.000 A 
HETATM   20  C   UNL     1      44.196 -18.229   6.050  1.00  0.00     0.002 A 
HETATM   21  C   UNL     1      43.766 -17.666   4.844  1.00  0.00     0.029 A 
ENDBRANCH  13  16
ENDBRANCH  10  12
BRANCH   1  22
HETATM   22  C   UNL     1      40.694 -12.631   2.349  1.00  0.00     0.015 A 
HETATM   23  C   UNL     1      40.580 -11.960   3.559  1.00  0.00     0.036 A 
HETATM   24  C   UNL     1      41.563 -11.750   4.654  1.00  0.00     0.070 C 
HETATM   25  N   UNL     1      39.310 -11.437   3.580  1.00  0.00    -0.278 N 
HETATM   26  C   UNL     1      38.716 -10.586   4.584  1.00  0.00     0.179 C 
HETATM   27  N   UNL     1      38.570 -11.794   2.515  1.00  0.00    -0.185 NA
HETATM   28  C   UNL     1      39.417 -12.484   1.753  1.00  0.00     0.150 A 
ENDBRANCH   1  22
TORSDOF 3
ENDMDL
MODEL 10
REMARK VINA RESULT:      -7.0      1.921      6.345
REMARK  3 active torsions:
REMARK  status: ('A' for Active; 'I' for Inactive)
REMARK    1  A    between atoms: C_7  and  C_8 
REMARK    2  A    between atoms: C_17  and  C_18 
REMARK       I    between atoms: C_18  and  N_19 
REMARK    3  A    between atoms: N_19  and  C_20 
ROOT
HETATM    1  C   UNL     1      43.220 -16.078   3.138  1.00  0.00     0.206 C 
HETATM    2  N   UNL     1      43.550 -17.504   3.031  1.00  0.00    -0.084 N 
HETATM    3  C   UNL     1      43.661 -18.345   4.105  1.00  0.00     0.725 A 
HETATM    4  N   UNL     1      43.952 -19.550   3.687  1.00  0.00    -0.054 NA
HETATM    5  C   UNL     1      44.044 -19.385   2.328  1.00  0.00     0.275 A 
HETATM    6  N   UNL     1      43.828 -18.144   1.875  1.00  0.00    -0.149 NA
HETATM    7  N   UNL     1      43.511 -17.852   5.349  1.00  0.00    -0.192 N 
HETATM    8  C   UNL     1      43.433 -16.487   5.615  1.00  0.00     0.037 C 
HETATM    9  C   UNL     1      43.611 -16.096   7.061  1.00  0.00     0.070 C 
HETATM   10  C   UNL     1      43.281 -15.613   4.588  1.00  0.00     0.063 C 
HETATM   11  H   UNL     1      43.717 -18.470   6.130  1.00  0.00     0.184 HD
ENDROOT
BRANCH  10  12
HETATM   12  C   UNL     1      43.283 -14.133   4.744  1.00  0.00     0.256 C 
HETATM   13  N   UNL     1      42.074 -13.620   5.158  1.00  0.00    -0.323 N 
HETATM   14  H   UNL     1      41.306 -14.272   5.258  1.00  0.00     0.169 HD
HETATM   15  O   UNL     1      44.306 -13.517   4.474  1.00  0.00    -0.267 OA
BRANCH  13  16
HETATM   16  C   UNL     1      41.788 -12.281   5.502  1.00  0.00     0.035 A 
HETATM   17  C   UNL     1      41.845 -11.780   6.804  1.00  0.00     0.029 A 
HETATM   18  C   UNL     1      41.516 -10.445   7.065  1.00  0.00     0.002 A 
HETATM   19  C   UNL     1      41.123  -9.603   6.029  1.00  0.00     0.000 A 
HETATM   20  C   UNL     1      41.064 -10.092   4.727  1.00  0.00     0.002 A 
HETATM   21  C   UNL     1      41.401 -11.423   4.464  1.00  0.00     0.029 A 
ENDBRANCH  13  16
ENDBRANCH  10  12
BRANCH   1  22
HETATM   22  C   UNL     1      41.860 -15.834   2.538  1.00  0.00     0.015 A 
HETATM   23  C   UNL     1      41.420 -14.752   1.785  1.00  0.00     0.036 A 
HETATM   24  C   UNL     1      42.123 -13.518   1.348  1.00  0.00     0.070 C 
HETATM   25  N   UNL     1      40.122 -15.038   1.441  1.00  0.00    -0.278 N 
HETATM   26  C   UNL     1      39.237 -14.271   0.595  1.00  0.00     0.179 C 
HETATM   27  N   UNL     1      39.665 -16.179   1.987  1.00  0.00    -0.185 NA
HETATM   28  C   UNL     1      40.725 -16.679   2.619  1.00  0.00     0.150 A 
ENDBRANCH   1  22
TORSDOF 3
ENDMDL
