MODEL 1
REMARK VINA RESULT:      -7.6      0.000      0.000
REMARK  7 active torsions:
REMARK  status: ('A' for Active; 'I' for Inactive)
REMARK    1  A    between atoms: O_2  and  C_3 
REMARK    2  A    between atoms: C_4  and  C_5 
REMARK    3  A    between atoms: C_5  and  N_6 
REMARK    4  A    between atoms: N_6  and  C_7 
REMARK    5  A    between atoms: C_9  and  N_10 
REMARK    6  A    between atoms: N_10  and  C_11 
REMARK    7  A    between atoms: C_11  and  C_12 
ROOT
HETATM    1  C   UNL     1      44.420 -18.220   5.217  1.00  0.00     0.181 A 
HETATM    2  N   UNL     1      44.054 -17.695   4.044  1.00  0.00    -0.207 NA
HETATM    3  C   UNL     1      43.983 -18.541   2.998  1.00  0.00     0.119 A 
HETATM    4  C   UNL     1      44.201 -19.931   3.126  1.00  0.00     0.031 A 
HETATM    5  C   UNL     1      44.568 -20.391   4.406  1.00  0.00     0.048 A 
HETATM    6  N   UNL     1      44.670 -19.509   5.403  1.00  0.00    -0.330 N 
HETATM    7  H   UNL     1      44.921 -19.778   6.345  1.00  0.00     0.168 HD
HETATM    8  C   UNL     1      44.053 -20.893   2.101  1.00  0.00     0.017 A 
HETATM    9  C   UNL     1      44.302 -22.247   2.341  1.00  0.00     0.001 A 
HETATM   10  C   UNL     1      44.692 -22.674   3.607  1.00  0.00     0.002 A 
HETATM   11  C   UNL     1      44.819 -21.750   4.642  1.00  0.00     0.030 A 
ENDROOT
BRANCH   1  12
HETATM   12  N   UNL     1      44.561 -17.419   6.348  1.00  0.00    -0.258 NA
HETATM   13  H   UNL     1      45.050 -18.009   7.030  1.00  0.00     0.130 HD
BRANCH  12  14
HETATM   14  C   UNL     1      43.232 -17.211   6.966  1.00  0.00     0.136 C 
BRANCH  14  15
HETATM   15  C   UNL     1      42.514 -16.042   6.327  1.00  0.00    -0.012 A 
HETATM   16  C   UNL     1      43.136 -14.777   6.263  1.00  0.00     0.075 A 
HETATM   17  C   UNL     1      42.424 -13.679   5.768  1.00  0.00     0.037 A 
HETATM   18  C   UNL     1      41.104 -13.823   5.339  1.00  0.00     0.003 A 
HETATM   19  C   UNL     1      40.483 -15.065   5.400  1.00  0.00     0.001 A 
HETATM   20  C   UNL     1      41.179 -16.164   5.897  1.00  0.00     0.011 A 
BRANCH  16  21
HETATM   21  O   UNL     1      44.424 -14.720   6.729  1.00  0.00    -0.355 OA
HETATM   22  C   UNL     1      44.757 -13.634   7.590  1.00  0.00     0.210 C 
ENDBRANCH  16  21
ENDBRANCH  14  15
ENDBRANCH  12  14
ENDBRANCH   1  12
BRANCH   3  23
HETATM   23  N   UNL     1      43.678 -17.922   1.784  1.00  0.00    -0.273 NA
HETATM   24  H   UNL     1      43.208 -18.635   1.224  1.00  0.00     0.129 HD
BRANCH  23  25
HETATM   25  C   UNL     1      42.805 -16.754   1.909  1.00  0.00     0.120 C 
BRANCH  25  26
HETATM   26  C   UNL     1      41.432 -17.158   1.464  1.00  0.00    -0.022 C 
HETATM   27  C   UNL     1      40.299 -16.856   2.111  1.00  0.00     0.008 C 
ENDBRANCH  25  26
ENDBRANCH  23  25
ENDBRANCH   3  23
TORSDOF 7
ENDMDL
MODEL 2
REMARK VINA RESULT:      -7.6      2.381      6.711
REMARK  7 active torsions:
REMARK  status: ('A' for Active; 'I' for Inactive)
REMARK    1  A    between atoms: O_2  and  C_3 
REMARK    2  A    between atoms: C_4  and  C_5 
REMARK    3  A    between atoms: C_5  and  N_6 
REMARK    4  A    between atoms: N_6  and  C_7 
REMARK    5  A    between atoms: C_9  and  N_10 
REMARK    6  A    between atoms: N_10  and  C_11 
REMARK    7  A    between atoms: C_11  and  C_12 
ROOT
HETATM    1  C   UNL     1      42.519 -16.711   1.434  1.00  0.00     0.181 A 
HETATM    2  N   UNL     1      41.765 -16.513   2.519  1.00  0.00    -0.207 NA
HETATM    3  C   UNL     1      40.697 -15.706   2.374  1.00  0.00     0.119 A 
HETATM    4  C   UNL     1      40.325 -15.149   1.130  1.00  0.00     0.031 A 
HETATM    5  C   UNL     1      41.176 -15.426   0.042  1.00  0.00     0.048 A 
HETATM    6  N   UNL     1      42.249 -16.196   0.243  1.00  0.00    -0.330 N 
HETATM    7  H   UNL     1      42.892 -16.438  -0.499  1.00  0.00     0.168 HD
HETATM    8  C   UNL     1      39.171 -14.373   0.878  1.00  0.00     0.017 A 
HETATM    9  C   UNL     1      38.906 -13.866  -0.397  1.00  0.00     0.001 A 
HETATM   10  C   UNL     1      39.777 -14.130  -1.451  1.00  0.00     0.002 A 
HETATM   11  C   UNL     1      40.908 -14.915  -1.236  1.00  0.00     0.030 A 
ENDROOT
BRANCH   1  12
HETATM   12  N   UNL     1      43.668 -17.497   1.493  1.00  0.00    -0.258 NA
HETATM   13  H   UNL     1      43.421 -18.362   0.999  1.00  0.00     0.130 HD
BRANCH  12  14
HETATM   14  C   UNL     1      43.877 -17.948   2.888  1.00  0.00     0.136 C 
BRANCH  14  15
HETATM   15  C   UNL     1      43.998 -19.455   2.957  1.00  0.00    -0.012 A 
HETATM   16  C   UNL     1      44.575 -20.070   4.088  1.00  0.00     0.075 A 
HETATM   17  C   UNL     1      44.780 -21.454   4.097  1.00  0.00     0.037 A 
HETATM   18  C   UNL     1      44.419 -22.232   2.996  1.00  0.00     0.003 A 
HETATM   19  C   UNL     1      43.852 -21.635   1.877  1.00  0.00     0.001 A 
HETATM   20  C   UNL     1      43.649 -20.257   1.854  1.00  0.00     0.011 A 
BRANCH  16  21
HETATM   21  O   UNL     1      44.924 -19.229   5.113  1.00  0.00    -0.355 OA
HETATM   22  C   UNL     1      44.215 -19.371   6.341  1.00  0.00     0.210 C 
ENDBRANCH  16  21
ENDBRANCH  14  15
ENDBRANCH  12  14
ENDBRANCH   1  12
BRANCH   3  23
HETATM   23  N   UNL     1      39.996 -15.470   3.558  1.00  0.00    -0.273 NA
HETATM   24  H   UNL     1      39.723 -16.391   3.904  1.00  0.00     0.129 HD
BRANCH  23  25
HETATM   25  C   UNL     1      40.775 -14.780   4.588  1.00  0.00     0.120 C 
BRANCH  25  26
HETATM   26  C   UNL     1      40.641 -15.559   5.862  1.00  0.00    -0.022 C 
HETATM   27  C   UNL     1      40.931 -16.859   5.997  1.00  0.00     0.008 C 
ENDBRANCH  25  26
ENDBRANCH  23  25
ENDBRANCH   3  23
TORSDOF 7
ENDMDL
MODEL 3
REMARK VINA RESULT:      -7.5      1.964      6.800
REMARK  7 active torsions:
REMARK  status: ('A' for Active; 'I' for Inactive)
REMARK    1  A    between atoms: O_2  and  C_3 
REMARK    2  A    between atoms: C_4  and  C_5 
REMARK    3  A    between atoms: C_5  and  N_6 
REMARK    4  A    between atoms: N_6  and  C_7 
REMARK    5  A    between atoms: C_9  and  N_10 
REMARK    6  A    between atoms: N_10  and  C_11 
REMARK    7  A    between atoms: C_11  and  C_12 
ROOT
HETATM    1  C   UNL     1      42.600 -17.133   5.377  1.00  0.00     0.181 A 
HETATM    2  N   UNL     1      43.021 -16.158   6.188  1.00  0.00    -0.207 NA
HETATM    3  C   UNL     1      42.591 -14.912   5.912  1.00  0.00     0.119 A 
HETATM    4  C   UNL     1      41.676 -14.635   4.872  1.00  0.00     0.031 A 
HETATM    5  C   UNL     1      41.280 -15.731   4.079  1.00  0.00     0.048 A 
HETATM    6  N   UNL     1      41.767 -16.941   4.364  1.00  0.00    -0.330 N 
HETATM    7  H   UNL     1      41.514 -17.767   3.838  1.00  0.00     0.168 HD
HETATM    8  C   UNL     1      41.106 -13.375   4.579  1.00  0.00     0.017 A 
HETATM    9  C   UNL     1      40.213 -13.216   3.517  1.00  0.00     0.001 A 
HETATM   10  C   UNL     1      39.858 -14.308   2.730  1.00  0.00     0.002 A 
HETATM   11  C   UNL     1      40.384 -15.567   3.014  1.00  0.00     0.030 A 
ENDROOT
BRANCH   1  12
HETATM   12  N   UNL     1      43.023 -18.448   5.557  1.00  0.00    -0.258 NA
HETATM   13  H   UNL     1      43.227 -18.525   6.560  1.00  0.00     0.130 HD
BRANCH  12  14
HETATM   14  C   UNL     1      44.350 -18.623   4.925  1.00  0.00     0.136 C 
BRANCH  14  15
HETATM   15  C   UNL     1      44.331 -19.767   3.934  1.00  0.00    -0.012 A 
HETATM   16  C   UNL     1      43.754 -19.591   2.658  1.00  0.00     0.075 A 
HETATM   17  C   UNL     1      43.645 -20.682   1.790  1.00  0.00     0.037 A 
HETATM   18  C   UNL     1      44.099 -21.944   2.175  1.00  0.00     0.003 A 
HETATM   19  C   UNL     1      44.665 -22.128   3.431  1.00  0.00     0.001 A 
HETATM   20  C   UNL     1      44.775 -21.050   4.306  1.00  0.00     0.011 A 
BRANCH  16  21
HETATM   21  O   UNL     1      43.311 -18.326   2.372  1.00  0.00    -0.355 OA
HETATM   22  C   UNL     1      43.919 -17.657   1.270  1.00  0.00     0.210 C 
ENDBRANCH  16  21
ENDBRANCH  14  15
ENDBRANCH  12  14
ENDBRANCH   1  12
BRANCH   3  23
HETATM   23  N   UNL     1      43.129 -13.926   6.741  1.00  0.00    -0.273 NA
HETATM   24  H   UNL     1      42.677 -14.054   7.648  1.00  0.00     0.129 HD
BRANCH  23  25
HETATM   25  C   UNL     1      44.581 -14.011   6.909  1.00  0.00     0.120 C 
BRANCH  25  26
HETATM   26  C   UNL     1      44.952 -13.191   8.107  1.00  0.00    -0.022 C 
HETATM   27  C   UNL     1      46.084 -12.485   8.228  1.00  0.00     0.008 C 
ENDBRANCH  25  26
ENDBRANCH  23  25
ENDBRANCH   3  23
TORSDOF 7
ENDMDL
MODEL 4
REMARK VINA RESULT:      -7.5      1.850      6.954
REMARK  7 active torsions:
REMARK  status: ('A' for Active; 'I' for Inactive)
REMARK    1  A    between atoms: O_2  and  C_3 
REMARK    2  A    between atoms: C_4  and  C_5 
REMARK    3  A    between atoms: C_5  and  N_6 
REMARK    4  A    between atoms: N_6  and  C_7 
REMARK    5  A    between atoms: C_9  and  N_10 
REMARK    6  A    between atoms: N_10  and  C_11 
REMARK    7  A    between atoms: C_11  and  C_12 
ROOT
HETATM    1  C   UNL     1      41.872 -16.853   3.500  1.00  0.00     0.181 A 
HETATM    2  N   UNL     1      42.272 -16.863   4.775  1.00  0.00    -0.207 NA
HETATM    3  C   UNL     1      41.910 -15.810   5.532  1.00  0.00     0.119 A 
HETATM    4  C   UNL     1      41.083 -14.772   5.048  1.00  0.00     0.031 A 
HETATM    5  C   UNL     1      40.701 -14.856   3.695  1.00  0.00     0.048 A 
HETATM    6  N   UNL     1      41.120 -15.897   2.971  1.00  0.00    -0.330 N 
HETATM    7  H   UNL     1      40.873 -16.018   1.998  1.00  0.00     0.168 HD
HETATM    8  C   UNL     1      40.584 -13.686   5.804  1.00  0.00     0.017 A 
HETATM    9  C   UNL     1      39.775 -12.710   5.217  1.00  0.00     0.001 A 
HETATM   10  C   UNL     1      39.435 -12.799   3.870  1.00  0.00     0.002 A 
HETATM   11  C   UNL     1      39.890 -13.874   3.109  1.00  0.00     0.030 A 
ENDROOT
BRANCH   1  12
HETATM   12  N   UNL     1      42.229 -17.878   2.628  1.00  0.00    -0.258 NA
HETATM   13  H   UNL     1      41.774 -18.716   3.005  1.00  0.00     0.130 HD
BRANCH  12  14
HETATM   14  C   UNL     1      43.672 -18.171   2.787  1.00  0.00     0.136 C 
BRANCH  14  15
HETATM   15  C   UNL     1      43.908 -19.659   2.933  1.00  0.00    -0.012 A 
HETATM   16  C   UNL     1      44.503 -20.170   4.106  1.00  0.00     0.075 A 
HETATM   17  C   UNL     1      44.816 -21.532   4.188  1.00  0.00     0.037 A 
HETATM   18  C   UNL     1      44.546 -22.388   3.120  1.00  0.00     0.003 A 
HETATM   19  C   UNL     1      43.963 -21.893   1.960  1.00  0.00     0.001 A 
HETATM   20  C   UNL     1      43.652 -20.538   1.864  1.00  0.00     0.011 A 
BRANCH  16  21
HETATM   21  O   UNL     1      44.758 -19.256   5.095  1.00  0.00    -0.355 OA
HETATM   22  C   UNL     1      44.170 -19.497   6.371  1.00  0.00     0.210 C 
ENDBRANCH  16  21
ENDBRANCH  14  15
ENDBRANCH  12  14
ENDBRANCH   1  12
BRANCH   3  23
HETATM   23  N   UNL     1      42.427 -15.836   6.829  1.00  0.00    -0.273 NA
HETATM   24  H   UNL     1      42.170 -16.750   7.208  1.00  0.00     0.129 HD
BRANCH  23  25
HETATM   25  C   UNL     1      43.880 -15.677   6.899  1.00  0.00     0.120 C 
BRANCH  25  26
HETATM   26  C   UNL     1      44.177 -14.210   6.984  1.00  0.00    -0.022 C 
HETATM   27  C   UNL     1      45.405 -13.682   7.070  1.00  0.00     0.008 C 
ENDBRANCH  25  26
ENDBRANCH  23  25
ENDBRANCH   3  23
TORSDOF 7
ENDMDL
MODEL 5
REMARK VINA RESULT:      -7.4      2.174      4.531
REMARK  7 active torsions:
REMARK  status: ('A' for Active; 'I' for Inactive)
REMARK    1  A    between atoms: O_2  and  C_3 
REMARK    2  A    between atoms: C_4  and  C_5 
REMARK    3  A    between atoms: C_5  and  N_6 
REMARK    4  A    between atoms: N_6  and  C_7 
REMARK    5  A    between atoms: C_9  and  N_10 
REMARK    6  A    between atoms: N_10  and  C_11 
REMARK    7  A    between atoms: C_11  and  C_12 
ROOT
HETATM    1  C   UNL     1      43.792 -18.159   2.136  1.00  0.00     0.181 A 
HETATM    2  N   UNL     1      43.940 -17.644   3.360  1.00  0.00    -0.207 NA
HETATM    3  C   UNL     1      44.179 -18.515   4.358  1.00  0.00     0.119 A 
HETATM    4  C   UNL     1      44.350 -19.900   4.136  1.00  0.00     0.031 A 
HETATM    5  C   UNL     1      44.189 -20.346   2.810  1.00  0.00     0.048 A 
HETATM    6  N   UNL     1      43.908 -19.451   1.859  1.00  0.00    -0.330 N 
HETATM    7  H   UNL     1      43.790 -19.707   0.888  1.00  0.00     0.168 HD
HETATM    8  C   UNL     1      44.695 -20.862   5.113  1.00  0.00     0.017 A 
HETATM    9  C   UNL     1      44.832 -22.212   4.780  1.00  0.00     0.001 A 
HETATM   10  C   UNL     1      44.640 -22.633   3.467  1.00  0.00     0.002 A 
HETATM   11  C   UNL     1      44.325 -21.701   2.479  1.00  0.00     0.030 A 
ENDROOT
BRANCH   1  12
HETATM   12  N   UNL     1      43.502 -17.343   1.044  1.00  0.00    -0.258 NA
HETATM   13  H   UNL     1      43.846 -16.413   1.311  1.00  0.00     0.130 HD
BRANCH  12  14
HETATM   14  C   UNL     1      42.037 -17.153   0.955  1.00  0.00     0.136 C 
BRANCH  14  15
HETATM   15  C   UNL     1      41.701 -15.780   0.415  1.00  0.00    -0.012 A 
HETATM   16  C   UNL     1      41.738 -14.655   1.265  1.00  0.00     0.075 A 
HETATM   17  C   UNL     1      41.323 -13.408   0.784  1.00  0.00     0.037 A 
HETATM   18  C   UNL     1      40.871 -13.268  -0.529  1.00  0.00     0.003 A 
HETATM   19  C   UNL     1      40.828 -14.371  -1.373  1.00  0.00     0.001 A 
HETATM   20  C   UNL     1      41.234 -15.619  -0.903  1.00  0.00     0.011 A 
BRANCH  16  21
HETATM   21  O   UNL     1      42.170 -14.886   2.545  1.00  0.00    -0.355 OA
HETATM   22  C   UNL     1      43.251 -14.090   3.022  1.00  0.00     0.210 C 
ENDBRANCH  16  21
ENDBRANCH  14  15
ENDBRANCH  12  14
ENDBRANCH   1  12
BRANCH   3  23
HETATM   23  N   UNL     1      44.240 -17.929   5.624  1.00  0.00    -0.273 NA
HETATM   24  H   UNL     1      45.235 -17.844   5.839  1.00  0.00     0.129 HD
BRANCH  23  25
HETATM   25  C   UNL     1      43.615 -16.608   5.703  1.00  0.00     0.120 C 
BRANCH  25  26
HETATM   26  C   UNL     1      44.298 -15.843   6.796  1.00  0.00    -0.022 C 
HETATM   27  C   UNL     1      44.480 -14.516   6.802  1.00  0.00     0.008 C 
ENDBRANCH  25  26
ENDBRANCH  23  25
ENDBRANCH   3  23
TORSDOF 7
ENDMDL
MODEL 6
REMARK VINA RESULT:      -7.4      2.262      6.119
REMARK  7 active torsions:
REMARK  status: ('A' for Active; 'I' for Inactive)
REMARK    1  A    between atoms: O_2  and  C_3 
REMARK    2  A    between atoms: C_4  and  C_5 
REMARK    3  A    between atoms: C_5  and  N_6 
REMARK    4  A    between atoms: N_6  and  C_7 
REMARK    5  A    between atoms: C_9  and  N_10 
REMARK    6  A    between atoms: N_10  and  C_11 
REMARK    7  A    between atoms: C_11  and  C_12 
ROOT
HETATM    1  C   UNL     1      41.912 -17.791   2.068  1.00  0.00     0.181 A 
HETATM    2  N   UNL     1      41.333 -16.983   1.175  1.00  0.00    -0.207 NA
HETATM    3  C   UNL     1      40.640 -15.938   1.664  1.00  0.00     0.119 A 
HETATM    4  C   UNL     1      40.578 -15.643   3.044  1.00  0.00     0.031 A 
HETATM    5  C   UNL     1      41.231 -16.546   3.906  1.00  0.00     0.048 A 
HETATM    6  N   UNL     1      41.870 -17.593   3.378  1.00  0.00    -0.330 N 
HETATM    7  H   UNL     1      42.364 -18.271   3.943  1.00  0.00     0.168 HD
HETATM    8  C   UNL     1      39.952 -14.517   3.627  1.00  0.00     0.017 A 
HETATM    9  C   UNL     1      39.949 -14.330   5.011  1.00  0.00     0.001 A 
HETATM   10  C   UNL     1      40.576 -15.250   5.845  1.00  0.00     0.002 A 
HETATM   11  C   UNL     1      41.224 -16.355   5.295  1.00  0.00     0.030 A 
ENDROOT
BRANCH   1  12
HETATM   12  N   UNL     1      42.617 -18.921   1.661  1.00  0.00    -0.258 NA
HETATM   13  H   UNL     1      42.159 -19.705   2.140  1.00  0.00     0.130 HD
BRANCH  12  14
HETATM   14  C   UNL     1      43.968 -18.895   2.265  1.00  0.00     0.136 C 
BRANCH  14  15
HETATM   15  C   UNL     1      44.196 -20.111   3.137  1.00  0.00    -0.012 A 
HETATM   16  C   UNL     1      44.393 -19.960   4.526  1.00  0.00     0.075 A 
HETATM   17  C   UNL     1      44.708 -21.078   5.307  1.00  0.00     0.037 A 
HETATM   18  C   UNL     1      44.831 -22.339   4.723  1.00  0.00     0.003 A 
HETATM   19  C   UNL     1      44.642 -22.497   3.356  1.00  0.00     0.001 A 
HETATM   20  C   UNL     1      44.333 -21.390   2.567  1.00  0.00     0.011 A 
BRANCH  16  21
HETATM   21  O   UNL     1      44.279 -18.683   5.012  1.00  0.00    -0.355 OA
HETATM   22  C   UNL     1      45.074 -18.344   6.144  1.00  0.00     0.210 C 
ENDBRANCH  16  21
ENDBRANCH  14  15
ENDBRANCH  12  14
ENDBRANCH   1  12
BRANCH   3  23
HETATM   23  N   UNL     1      39.989 -15.179   0.689  1.00  0.00    -0.273 NA
HETATM   24  H   UNL     1      39.662 -14.338   1.169  1.00  0.00     0.129 HD
BRANCH  23  25
HETATM   25  C   UNL     1      40.841 -14.790  -0.435  1.00  0.00     0.120 C 
BRANCH  25  26
HETATM   26  C   UNL     1      41.191 -13.342  -0.267  1.00  0.00    -0.022 C 
HETATM   27  C   UNL     1      40.454 -12.452   0.409  1.00  0.00     0.008 C 
ENDBRANCH  25  26
ENDBRANCH  23  25
ENDBRANCH   3  23
TORSDOF 7
ENDMDL
MODEL 7
REMARK VINA RESULT:      -7.4      1.896      4.848
REMARK  7 active torsions:
REMARK  status: ('A' for Active; 'I' for Inactive)
REMARK    1  A    between atoms: O_2  and  C_3 
REMARK    2  A    between atoms: C_4  and  C_5 
REMARK    3  A    between atoms: C_5  and  N_6 
REMARK    4  A    between atoms: N_6  and  C_7 
REMARK    5  A    between atoms: C_9  and  N_10 
REMARK    6  A    between atoms: N_10  and  C_11 
REMARK    7  A    between atoms: C_11  and  C_12 
ROOT
HETATM    1  C   UNL     1      41.080 -17.293   4.011  1.00  0.00     0.181 A 
HETATM    2  N   UNL     1      42.080 -17.966   3.432  1.00  0.00    -0.207 NA
HETATM    3  C   UNL     1      42.319 -17.697   2.135  1.00  0.00     0.119 A 
HETATM    4  C   UNL     1      41.616 -16.702   1.420  1.00  0.00     0.031 A 
HETATM    5  C   UNL     1      40.589 -16.038   2.120  1.00  0.00     0.048 A 
HETATM    6  N   UNL     1      40.358 -16.369   3.393  1.00  0.00    -0.330 N 
HETATM    7  H   UNL     1      39.642 -15.923   3.950  1.00  0.00     0.168 HD
HETATM    8  C   UNL     1      41.870 -16.297   0.090  1.00  0.00     0.017 A 
HETATM    9  C   UNL     1      41.103 -15.301  -0.521  1.00  0.00     0.001 A 
HETATM   10  C   UNL     1      40.075 -14.679   0.181  1.00  0.00     0.002 A 
HETATM   11  C   UNL     1      39.820 -15.041   1.504  1.00  0.00     0.030 A 
ENDROOT
BRANCH   1  12
HETATM   12  N   UNL     1      40.730 -17.531   5.338  1.00  0.00    -0.258 NA
HETATM   13  H   UNL     1      39.744 -17.813   5.304  1.00  0.00     0.130 HD
BRANCH  12  14
HETATM   14  C   UNL     1      40.692 -16.243   6.068  1.00  0.00     0.136 C 
BRANCH  14  15
HETATM   15  C   UNL     1      42.084 -15.675   6.237  1.00  0.00    -0.012 A 
HETATM   16  C   UNL     1      43.046 -16.371   6.999  1.00  0.00     0.075 A 
HETATM   17  C   UNL     1      44.295 -15.788   7.239  1.00  0.00     0.037 A 
HETATM   18  C   UNL     1      44.597 -14.523   6.733  1.00  0.00     0.003 A 
HETATM   19  C   UNL     1      43.655 -13.829   5.984  1.00  0.00     0.001 A 
HETATM   20  C   UNL     1      42.406 -14.397   5.743  1.00  0.00     0.011 A 
BRANCH  16  21
HETATM   21  O   UNL     1      42.658 -17.595   7.479  1.00  0.00    -0.355 OA
HETATM   22  C   UNL     1      43.687 -18.538   7.767  1.00  0.00     0.210 C 
ENDBRANCH  16  21
ENDBRANCH  14  15
ENDBRANCH  12  14
ENDBRANCH   1  12
BRANCH   3  23
HETATM   23  N   UNL     1      43.318 -18.488   1.564  1.00  0.00    -0.273 NA
HETATM   24  H   UNL     1      44.067 -17.842   1.309  1.00  0.00     0.129 HD
BRANCH  23  25
HETATM   25  C   UNL     1      43.852 -19.517   2.457  1.00  0.00     0.120 C 
BRANCH  25  26
HETATM   26  C   UNL     1      43.653 -20.847   1.796  1.00  0.00    -0.022 C 
HETATM   27  C   UNL     1      44.284 -21.976   2.145  1.00  0.00     0.008 C 
ENDBRANCH  25  26
ENDBRANCH  23  25
ENDBRANCH   3  23
TORSDOF 7
ENDMDL
MODEL 8
REMARK VINA RESULT:      -7.4      3.321      6.079
REMARK  7 active torsions:
REMARK  status: ('A' for Active; 'I' for Inactive)
REMARK    1  A    between atoms: O_2  and  C_3 
REMARK    2  A    between atoms: C_4  and  C_5 
REMARK    3  A    between atoms: C_5  and  N_6 
REMARK    4  A    between atoms: N_6  and  C_7 
REMARK    5  A    between atoms: C_9  and  N_10 
REMARK    6  A    between atoms: N_10  and  C_11 
REMARK    7  A    between atoms: C_11  and  C_12 
ROOT
HETATM    1  C   UNL     1      41.359 -17.173   1.999  1.00  0.00     0.181 A 
HETATM    2  N   UNL     1      41.343 -16.707   3.251  1.00  0.00    -0.207 NA
HETATM    3  C   UNL     1      42.100 -17.362   4.151  1.00  0.00     0.119 A 
HETATM    4  C   UNL     1      42.940 -18.442   3.799  1.00  0.00     0.031 A 
HETATM    5  C   UNL     1      42.898 -18.853   2.452  1.00  0.00     0.048 A 
HETATM    6  N   UNL     1      42.099 -18.200   1.604  1.00  0.00    -0.330 N 
HETATM    7  H   UNL     1      42.031 -18.442   0.624  1.00  0.00     0.168 HD
HETATM    8  C   UNL     1      43.831 -19.118   4.663  1.00  0.00     0.017 A 
HETATM    9  C   UNL     1      44.613 -20.182   4.205  1.00  0.00     0.001 A 
HETATM   10  C   UNL     1      44.534 -20.588   2.876  1.00  0.00     0.002 A 
HETATM   11  C   UNL     1      43.683 -19.921   1.996  1.00  0.00     0.030 A 
ENDROOT
BRANCH   1  12
HETATM   12  N   UNL     1      40.578 -16.588   1.005  1.00  0.00    -0.258 NA
HETATM   13  H   UNL     1      40.390 -17.344   0.338  1.00  0.00     0.130 HD
BRANCH  12  14
HETATM   14  C   UNL     1      41.411 -15.644   0.226  1.00  0.00     0.136 C 
BRANCH  14  15
HETATM   15  C   UNL     1      40.653 -15.119  -0.975  1.00  0.00    -0.012 A 
HETATM   16  C   UNL     1      39.529 -14.286  -0.796  1.00  0.00     0.075 A 
HETATM   17  C   UNL     1      38.772 -13.893  -1.906  1.00  0.00     0.037 A 
HETATM   18  C   UNL     1      39.119 -14.320  -3.188  1.00  0.00     0.003 A 
HETATM   19  C   UNL     1      40.223 -15.144  -3.374  1.00  0.00     0.001 A 
HETATM   20  C   UNL     1      40.981 -15.545  -2.276  1.00  0.00     0.011 A 
BRANCH  16  21
HETATM   21  O   UNL     1      39.245 -13.935   0.498  1.00  0.00    -0.355 OA
HETATM   22  C   UNL     1      37.895 -14.080   0.931  1.00  0.00     0.210 C 
ENDBRANCH  16  21
ENDBRANCH  14  15
ENDBRANCH  12  14
ENDBRANCH   1  12
BRANCH   3  23
HETATM   23  N   UNL     1      41.978 -16.881   5.456  1.00  0.00    -0.273 NA
HETATM   24  H   UNL     1      42.171 -17.681   6.062  1.00  0.00     0.129 HD
BRANCH  23  25
HETATM   25  C   UNL     1      42.902 -15.794   5.784  1.00  0.00     0.120 C 
BRANCH  25  26
HETATM   26  C   UNL     1      43.594 -16.151   7.064  1.00  0.00    -0.022 C 
HETATM   27  C   UNL     1      43.206 -17.125   7.897  1.00  0.00     0.008 C 
ENDBRANCH  25  26
ENDBRANCH  23  25
ENDBRANCH   3  23
TORSDOF 7
ENDMDL
MODEL 9
REMARK VINA RESULT:      -7.4      2.430      4.776
REMARK  7 active torsions:
REMARK  status: ('A' for Active; 'I' for Inactive)
REMARK    1  A    between atoms: O_2  and  C_3 
REMARK    2  A    between atoms: C_4  and  C_5 
REMARK    3  A    between atoms: C_5  and  N_6 
REMARK    4  A    between atoms: N_6  and  C_7 
REMARK    5  A    between atoms: C_9  and  N_10 
REMARK    6  A    between atoms: N_10  and  C_11 
REMARK    7  A    between atoms: C_11  and  C_12 
ROOT
HETATM    1  C   UNL     1      43.406 -17.776   1.880  1.00  0.00     0.181 A 
HETATM    2  N   UNL     1      43.613 -17.265   3.097  1.00  0.00    -0.207 NA
HETATM    3  C   UNL     1      43.956 -18.133   4.068  1.00  0.00     0.119 A 
HETATM    4  C   UNL     1      44.169 -19.508   3.820  1.00  0.00     0.031 A 
HETATM    5  C   UNL     1      43.938 -19.950   2.503  1.00  0.00     0.048 A 
HETATM    6  N   UNL     1      43.557 -19.060   1.583  1.00  0.00    -0.330 N 
HETATM    7  H   UNL     1      43.384 -19.313   0.619  1.00  0.00     0.168 HD
HETATM    8  C   UNL     1      44.619 -20.462   4.762  1.00  0.00     0.017 A 
HETATM    9  C   UNL     1      44.790 -21.802   4.406  1.00  0.00     0.001 A 
HETATM   10  C   UNL     1      44.528 -22.220   3.104  1.00  0.00     0.002 A 
HETATM   11  C   UNL     1      44.109 -21.295   2.149  1.00  0.00     0.030 A 
ENDROOT
BRANCH   1  12
HETATM   12  N   UNL     1      43.009 -16.965   0.819  1.00  0.00    -0.258 NA
HETATM   13  H   UNL     1      43.148 -16.005   1.155  1.00  0.00     0.130 HD
BRANCH  12  14
HETATM   14  C   UNL     1      41.541 -17.060   0.657  1.00  0.00     0.136 C 
BRANCH  14  15
HETATM   15  C   UNL     1      40.857 -15.810   1.167  1.00  0.00    -0.012 A 
HETATM   16  C   UNL     1      40.963 -14.600   0.449  1.00  0.00     0.075 A 
HETATM   17  C   UNL     1      40.419 -13.426   0.982  1.00  0.00     0.037 A 
HETATM   18  C   UNL     1      39.775 -13.442   2.220  1.00  0.00     0.003 A 
HETATM   19  C   UNL     1      39.669 -14.628   2.936  1.00  0.00     0.001 A 
HETATM   20  C   UNL     1      40.211 -15.801   2.418  1.00  0.00     0.011 A 
BRANCH  16  21
HETATM   21  O   UNL     1      41.634 -14.670  -0.745  1.00  0.00    -0.355 OA
HETATM   22  C   UNL     1      40.858 -14.564  -1.935  1.00  0.00     0.210 C 
ENDBRANCH  16  21
ENDBRANCH  14  15
ENDBRANCH  12  14
ENDBRANCH   1  12
BRANCH   3  23
HETATM   23  N   UNL     1      44.077 -17.555   5.333  1.00  0.00    -0.273 NA
HETATM   24  H   UNL     1      44.535 -16.655   5.180  1.00  0.00     0.129 HD
BRANCH  23  25
HETATM   25  C   UNL     1      42.802 -17.337   6.017  1.00  0.00     0.120 C 
BRANCH  25  26
HETATM   26  C   UNL     1      42.983 -17.715   7.456  1.00  0.00    -0.022 C 
HETATM   27  C   UNL     1      44.008 -18.432   7.935  1.00  0.00     0.008 C 
ENDBRANCH  25  26
ENDBRANCH  23  25
ENDBRANCH   3  23
TORSDOF 7
ENDMDL
MODEL 10
REMARK VINA RESULT:      -7.3      2.509      6.628
REMARK  7 active torsions:
REMARK  status: ('A' for Active; 'I' for Inactive)
REMARK    1  A    between atoms: O_2  and  C_3 
REMARK    2  A    between atoms: C_4  and  C_5 
REMARK    3  A    between atoms: C_5  and  N_6 
REMARK    4  A    between atoms: N_6  and  C_7 
REMARK    5  A    between atoms: C_9  and  N_10 
REMARK    6  A    between atoms: N_10  and  C_11 
REMARK    7  A    between atoms: C_11  and  C_12 
ROOT
HETATM    1  C   UNL     1      41.597 -16.737   3.718  1.00  0.00     0.181 A 
HETATM    2  N   UNL     1      41.286 -16.698   2.419  1.00  0.00    -0.207 NA
HETATM    3  C   UNL     1      40.544 -15.654   2.005  1.00  0.00     0.119 A 
HETATM    4  C   UNL     1      40.168 -14.598   2.865  1.00  0.00     0.031 A 
HETATM    5  C   UNL     1      40.553 -14.723   4.215  1.00  0.00     0.048 A 
HETATM    6  N   UNL     1      41.251 -15.798   4.589  1.00  0.00    -0.330 N 
HETATM    7  H   UNL     1      41.564 -15.941   5.540  1.00  0.00     0.168 HD
HETATM    8  C   UNL     1      39.473 -13.426   2.488  1.00  0.00     0.017 A 
HETATM    9  C   UNL     1      39.147 -12.446   3.429  1.00  0.00     0.001 A 
HETATM   10  C   UNL     1      39.513 -12.605   4.762  1.00  0.00     0.002 A 
HETATM   11  C   UNL     1      40.223 -13.738   5.156  1.00  0.00     0.030 A 
ENDROOT
BRANCH   1  12
HETATM   12  N   UNL     1      42.326 -17.798   4.250  1.00  0.00    -0.258 NA
HETATM   13  H   UNL     1      42.704 -17.442   5.135  1.00  0.00     0.130 HD
BRANCH  12  14
HETATM   14  C   UNL     1      43.537 -18.017   3.426  1.00  0.00     0.136 C 
BRANCH  14  15
HETATM   15  C   UNL     1      43.796 -19.494   3.227  1.00  0.00    -0.012 A 
HETATM   16  C   UNL     1      44.416 -20.250   4.244  1.00  0.00     0.075 A 
HETATM   17  C   UNL     1      44.748 -21.589   4.010  1.00  0.00     0.037 A 
HETATM   18  C   UNL     1      44.474 -22.183   2.778  1.00  0.00     0.003 A 
HETATM   19  C   UNL     1      43.866 -21.446   1.768  1.00  0.00     0.001 A 
HETATM   20  C   UNL     1      43.536 -20.110   1.988  1.00  0.00     0.011 A 
BRANCH  16  21
HETATM   21  O   UNL     1      44.672 -19.581   5.413  1.00  0.00    -0.355 OA
HETATM   22  C   UNL     1      43.944 -19.987   6.569  1.00  0.00     0.210 C 
ENDBRANCH  16  21
ENDBRANCH  14  15
ENDBRANCH  12  14
ENDBRANCH   1  12
BRANCH   3  23
HETATM   23  N   UNL     1      40.182 -15.710   0.658  1.00  0.00    -0.273 NA
HETATM   24  H   UNL     1      39.694 -14.833   0.469  1.00  0.00     0.129 HD
BRANCH  23  25
HETATM   25  C   UNL     1      41.312 -15.842  -0.262  1.00  0.00     0.120 C 
BRANCH  25  26
HETATM   26  C   UNL     1      40.960 -15.121  -1.528  1.00  0.00    -0.022 C 
HETATM   27  C   UNL     1      40.872 -15.694  -2.735  1.00  0.00     0.008 C 
ENDBRANCH  25  26
ENDBRANCH  23  25
ENDBRANCH   3  23
TORSDOF 7
ENDMDL
