MODEL 1
REMARK VINA RESULT:      -8.9      0.000      0.000
REMARK  6 active torsions:
REMARK  status: ('A' for Active; 'I' for Inactive)
REMARK    1  A    between atoms: C_2  and  C_3 
REMARK    2  A    between atoms: C_3  and  C_4 
REMARK    3  A    between atoms: C_4  and  C_5 
REMARK    4  A    between atoms: C_4  and  C_21 
REMARK       I    between atoms: C_5  and  N_6 
REMARK    5  A    between atoms: N_6  and  C_7 
REMARK    6  A    between atoms: C_14  and  C_15 
REMARK       I    between atoms: C_15  and  N_16 
ROOT
HETATM    1  C   UNL     1      40.774 -16.241   1.529  1.00  0.00     0.035 A 
HETATM    2  C   UNL     1      41.152 -15.938   0.214  1.00  0.00     0.046 A 
HETATM    3  C   UNL     1      40.541 -14.855  -0.455  1.00  0.00     0.030 A 
HETATM    4  C   UNL     1      39.558 -14.129   0.206  1.00  0.00     0.063 A 
HETATM    5  N   UNL     1      39.150 -13.177  -0.686  1.00  0.00    -0.277 N 
HETATM    6  H   UNL     1      38.433 -12.474  -0.547  1.00  0.00     0.189 HD
HETATM    7  N   UNL     1      39.803 -13.196  -1.859  1.00  0.00    -0.168 NA
HETATM    8  C   UNL     1      40.671 -14.225  -1.729  1.00  0.00     0.156 A 
HETATM    9  C   UNL     1      39.157 -14.403   1.515  1.00  0.00     0.034 A 
HETATM   10  C   UNL     1      39.798 -15.464   2.167  1.00  0.00     0.032 A 
ENDROOT
BRANCH   1  11
HETATM   11  N   UNL     1      41.358 -17.284   2.282  1.00  0.00    -0.327 N 
HETATM   12  C   UNL     1      42.664 -17.336   2.750  1.00  0.00     0.231 C 
HETATM   13  O   UNL     1      43.551 -16.543   2.442  1.00  0.00    -0.272 OA
HETATM   14  H   UNL     1      40.794 -18.115   2.396  1.00  0.00     0.169 HD
BRANCH  12  15
HETATM   15  C   UNL     1      42.941 -18.567   3.645  1.00  0.00     0.115 C 
BRANCH  15  16
HETATM   16  C   UNL     1      44.049 -19.460   3.006  1.00  0.00    -0.001 C 
HETATM   17  C   UNL     1      44.626 -20.474   4.006  1.00  0.00     0.011 C 
BRANCH  16  18
HETATM   18  C   UNL     1      43.574 -20.191   1.725  1.00  0.00     0.001 C 
HETATM   19  C   UNL     1      43.874 -21.684   1.671  1.00  0.00     0.005 C 
ENDBRANCH  16  18
ENDBRANCH  15  16
BRANCH  15  20
HETATM   20  C   UNL     1      43.262 -18.135   5.076  1.00  0.00    -0.045 A 
HETATM   21  C   UNL     1      42.220 -17.794   5.954  1.00  0.00     0.008 A 
HETATM   22  C   UNL     1      42.491 -17.419   7.272  1.00  0.00     0.001 A 
HETATM   23  C   UNL     1      43.806 -17.377   7.730  1.00  0.00     0.000 A 
HETATM   24  C   UNL     1      44.850 -17.711   6.871  1.00  0.00     0.001 A 
HETATM   25  C   UNL     1      44.580 -18.091   5.555  1.00  0.00     0.008 A 
ENDBRANCH  15  20
ENDBRANCH  12  15
ENDBRANCH   1  11
BRANCH   8  26
HETATM   26  C   UNL     1      41.610 -14.568  -2.808  1.00  0.00     0.270 C 
HETATM   27  N   UNL     1      42.672 -13.712  -2.917  1.00  0.00    -0.365 N 
HETATM   28  H   UNL     1      42.746 -12.945  -2.259  1.00  0.00     0.159 HD
HETATM   29  H   UNL     1      43.384 -13.889  -3.608  1.00  0.00     0.159 HD
HETATM   30  O   UNL     1      41.495 -15.534  -3.555  1.00  0.00    -0.266 OA
ENDBRANCH   8  26
TORSDOF 6
ENDMDL
MODEL 2
REMARK VINA RESULT:      -8.8      1.191      3.344
REMARK  6 active torsions:
REMARK  status: ('A' for Active; 'I' for Inactive)
REMARK    1  A    between atoms: C_2  and  C_3 
REMARK    2  A    between atoms: C_3  and  C_4 
REMARK    3  A    between atoms: C_4  and  C_5 
REMARK    4  A    between atoms: C_4  and  C_21 
REMARK       I    between atoms: C_5  and  N_6 
REMARK    5  A    between atoms: N_6  and  C_7 
REMARK    6  A    between atoms: C_14  and  C_15 
REMARK       I    between atoms: C_15  and  N_16 
ROOT
HETATM    1  C   UNL     1      41.715 -15.985   2.052  1.00  0.00     0.035 A 
HETATM    2  C   UNL     1      41.807 -15.738   0.675  1.00  0.00     0.046 A 
HETATM    3  C   UNL     1      40.746 -15.083   0.013  1.00  0.00     0.030 A 
HETATM    4  C   UNL     1      39.622 -14.719   0.745  1.00  0.00     0.063 A 
HETATM    5  N   UNL     1      38.777 -14.134  -0.156  1.00  0.00    -0.277 N 
HETATM    6  H   UNL     1      37.854 -13.757   0.025  1.00  0.00     0.189 HD
HETATM    7  N   UNL     1      39.263 -14.052  -1.405  1.00  0.00    -0.168 NA
HETATM    8  C   UNL     1      40.483 -14.630  -1.316  1.00  0.00     0.156 A 
HETATM    9  C   UNL     1      39.498 -14.950   2.116  1.00  0.00     0.034 A 
HETATM   10  C   UNL     1      40.575 -15.575   2.756  1.00  0.00     0.032 A 
ENDROOT
BRANCH   1  11
HETATM   11  N   UNL     1      42.743 -16.603   2.797  1.00  0.00    -0.327 N 
HETATM   12  C   UNL     1      42.596 -17.637   3.711  1.00  0.00     0.231 C 
HETATM   13  O   UNL     1      41.518 -18.065   4.119  1.00  0.00    -0.272 OA
HETATM   14  H   UNL     1      43.655 -16.174   2.731  1.00  0.00     0.169 HD
BRANCH  12  15
HETATM   15  C   UNL     1      43.943 -18.161   4.261  1.00  0.00     0.115 C 
BRANCH  15  16
HETATM   16  C   UNL     1      44.014 -17.950   5.805  1.00  0.00    -0.001 C 
HETATM   17  C   UNL     1      45.458 -17.988   6.331  1.00  0.00     0.011 C 
BRANCH  16  18
HETATM   18  C   UNL     1      43.314 -16.650   6.273  1.00  0.00     0.001 C 
HETATM   19  C   UNL     1      44.236 -15.566   6.817  1.00  0.00     0.005 C 
ENDBRANCH  16  18
ENDBRANCH  15  16
BRANCH  15  20
HETATM   20  C   UNL     1      44.176 -19.611   3.835  1.00  0.00    -0.045 A 
HETATM   21  C   UNL     1      44.593 -20.560   4.784  1.00  0.00     0.008 A 
HETATM   22  C   UNL     1      44.787 -21.894   4.419  1.00  0.00     0.001 A 
HETATM   23  C   UNL     1      44.571 -22.298   3.104  1.00  0.00     0.000 A 
HETATM   24  C   UNL     1      44.158 -21.368   2.152  1.00  0.00     0.001 A 
HETATM   25  C   UNL     1      43.958 -20.036   2.516  1.00  0.00     0.008 A 
ENDBRANCH  15  20
ENDBRANCH  12  15
ENDBRANCH   1  11
BRANCH   8  26
HETATM   26  C   UNL     1      41.369 -14.718  -2.486  1.00  0.00     0.270 C 
HETATM   27  N   UNL     1      42.409 -13.829  -2.468  1.00  0.00    -0.365 N 
HETATM   28  H   UNL     1      42.504 -13.212  -1.669  1.00  0.00     0.159 HD
HETATM   29  H   UNL     1      43.086 -13.841  -3.213  1.00  0.00     0.159 HD
HETATM   30  O   UNL     1      41.231 -15.514  -3.409  1.00  0.00    -0.266 OA
ENDBRANCH   8  26
TORSDOF 6
ENDMDL
MODEL 3
REMARK VINA RESULT:      -8.3      2.168      2.733
REMARK  6 active torsions:
REMARK  status: ('A' for Active; 'I' for Inactive)
REMARK    1  A    between atoms: C_2  and  C_3 
REMARK    2  A    between atoms: C_3  and  C_4 
REMARK    3  A    between atoms: C_4  and  C_5 
REMARK    4  A    between atoms: C_4  and  C_21 
REMARK       I    between atoms: C_5  and  N_6 
REMARK    5  A    between atoms: N_6  and  C_7 
REMARK    6  A    between atoms: C_14  and  C_15 
REMARK       I    between atoms: C_15  and  N_16 
ROOT
HETATM    1  C   UNL     1      41.554 -15.763   0.011  1.00  0.00     0.035 A 
HETATM    2  C   UNL     1      41.935 -14.426   0.188  1.00  0.00     0.046 A 
HETATM    3  C   UNL     1      41.737 -13.500  -0.859  1.00  0.00     0.030 A 
HETATM    4  C   UNL     1      41.186 -13.949  -2.054  1.00  0.00     0.063 A 
HETATM    5  N   UNL     1      41.137 -12.850  -2.865  1.00  0.00    -0.277 N 
HETATM    6  H   UNL     1      40.802 -12.808  -3.820  1.00  0.00     0.189 HD
HETATM    7  N   UNL     1      41.575 -11.716  -2.294  1.00  0.00    -0.168 NA
HETATM    8  C   UNL     1      41.944 -12.101  -1.051  1.00  0.00     0.156 A 
HETATM    9  C   UNL     1      40.797 -15.272  -2.264  1.00  0.00     0.034 A 
HETATM   10  C   UNL     1      40.977 -16.165  -1.200  1.00  0.00     0.032 A 
ENDROOT
BRANCH   1  11
HETATM   11  N   UNL     1      41.685 -16.745   1.018  1.00  0.00    -0.327 N 
HETATM   12  C   UNL     1      42.837 -17.449   1.342  1.00  0.00     0.231 C 
HETATM   13  O   UNL     1      43.880 -17.427   0.692  1.00  0.00    -0.272 OA
HETATM   14  H   UNL     1      40.828 -17.032   1.469  1.00  0.00     0.169 HD
BRANCH  12  15
HETATM   15  C   UNL     1      42.663 -18.364   2.577  1.00  0.00     0.115 C 
BRANCH  15  16
HETATM   16  C   UNL     1      43.833 -19.392   2.655  1.00  0.00    -0.001 C 
HETATM   17  C   UNL     1      44.228 -19.715   4.105  1.00  0.00     0.011 C 
BRANCH  16  18
HETATM   18  C   UNL     1      43.542 -20.703   1.881  1.00  0.00     0.001 C 
HETATM   19  C   UNL     1      44.369 -21.912   2.301  1.00  0.00     0.005 C 
ENDBRANCH  16  18
ENDBRANCH  15  16
BRANCH  15  20
HETATM   20  C   UNL     1      42.502 -17.532   3.850  1.00  0.00    -0.045 A 
HETATM   21  C   UNL     1      41.479 -17.840   4.762  1.00  0.00     0.008 A 
HETATM   22  C   UNL     1      41.331 -17.107   5.941  1.00  0.00     0.001 A 
HETATM   23  C   UNL     1      42.199 -16.055   6.225  1.00  0.00     0.000 A 
HETATM   24  C   UNL     1      43.218 -15.737   5.329  1.00  0.00     0.001 A 
HETATM   25  C   UNL     1      43.371 -16.472   4.153  1.00  0.00     0.008 A 
ENDBRANCH  15  20
ENDBRANCH  12  15
ENDBRANCH   1  11
BRANCH   8  26
HETATM   26  C   UNL     1      42.463 -11.128  -0.078  1.00  0.00     0.270 C 
HETATM   27  N   UNL     1      41.741 -11.059   1.083  1.00  0.00    -0.365 N 
HETATM   28  H   UNL     1      40.944 -11.675   1.194  1.00  0.00     0.159 HD
HETATM   29  H   UNL     1      42.044 -10.444   1.820  1.00  0.00     0.159 HD
HETATM   30  O   UNL     1      43.460 -10.433  -0.246  1.00  0.00    -0.266 OA
ENDBRANCH   8  26
TORSDOF 6
ENDMDL
MODEL 4
REMARK VINA RESULT:      -8.3      2.181      4.143
REMARK  6 active torsions:
REMARK  status: ('A' for Active; 'I' for Inactive)
REMARK    1  A    between atoms: C_2  and  C_3 
REMARK    2  A    between atoms: C_3  and  C_4 
REMARK    3  A    between atoms: C_4  and  C_5 
REMARK    4  A    between atoms: C_4  and  C_21 
REMARK       I    between atoms: C_5  and  N_6 
REMARK    5  A    between atoms: N_6  and  C_7 
REMARK    6  A    between atoms: C_14  and  C_15 
REMARK       I    between atoms: C_15  and  N_16 
ROOT
HETATM    1  C   UNL     1      42.606 -16.126   1.765  1.00  0.00     0.035 A 
HETATM    2  C   UNL     1      42.123 -14.831   2.001  1.00  0.00     0.046 A 
HETATM    3  C   UNL     1      41.245 -14.235   1.070  1.00  0.00     0.030 A 
HETATM    4  C   UNL     1      40.900 -14.945  -0.074  1.00  0.00     0.063 A 
HETATM    5  N   UNL     1      40.070 -14.117  -0.777  1.00  0.00    -0.277 N 
HETATM    6  H   UNL     1      39.633 -14.303  -1.672  1.00  0.00     0.189 HD
HETATM    7  N   UNL     1      39.815 -12.943  -0.177  1.00  0.00    -0.168 NA
HETATM    8  C   UNL     1      40.531 -13.004   0.969  1.00  0.00     0.156 A 
HETATM    9  C   UNL     1      41.363 -16.235  -0.340  1.00  0.00     0.034 A 
HETATM   10  C   UNL     1      42.210 -16.815   0.612  1.00  0.00     0.032 A 
ENDROOT
BRANCH   1  11
HETATM   11  N   UNL     1      43.460 -16.808   2.660  1.00  0.00    -0.327 N 
HETATM   12  C   UNL     1      43.099 -17.821   3.538  1.00  0.00     0.231 C 
HETATM   13  O   UNL     1      41.943 -18.168   3.773  1.00  0.00    -0.272 OA
HETATM   14  H   UNL     1      44.399 -16.446   2.737  1.00  0.00     0.169 HD
BRANCH  12  15
HETATM   15  C   UNL     1      44.304 -18.434   4.289  1.00  0.00     0.115 C 
BRANCH  15  16
HETATM   16  C   UNL     1      44.197 -18.134   5.816  1.00  0.00    -0.001 C 
HETATM   17  C   UNL     1      45.577 -18.046   6.489  1.00  0.00     0.011 C 
BRANCH  16  18
HETATM   18  C   UNL     1      43.374 -16.859   6.128  1.00  0.00     0.001 C 
HETATM   19  C   UNL     1      42.200 -17.052   7.080  1.00  0.00     0.005 C 
ENDBRANCH  16  18
ENDBRANCH  15  16
BRANCH  15  20
HETATM   20  C   UNL     1      44.440 -19.924   3.972  1.00  0.00    -0.045 A 
HETATM   21  C   UNL     1      44.697 -20.839   5.007  1.00  0.00     0.008 A 
HETATM   22  C   UNL     1      44.800 -22.206   4.741  1.00  0.00     0.001 A 
HETATM   23  C   UNL     1      44.651 -22.677   3.439  1.00  0.00     0.000 A 
HETATM   24  C   UNL     1      44.397 -21.783   2.402  1.00  0.00     0.001 A 
HETATM   25  C   UNL     1      44.288 -20.417   2.667  1.00  0.00     0.008 A 
ENDBRANCH  15  20
ENDBRANCH  12  15
ENDBRANCH   1  11
BRANCH   8  26
HETATM   26  C   UNL     1      40.500 -11.901   1.942  1.00  0.00     0.270 C 
HETATM   27  N   UNL     1      41.636 -11.138   1.958  1.00  0.00    -0.365 N 
HETATM   28  H   UNL     1      42.380 -11.365   1.308  1.00  0.00     0.159 HD
HETATM   29  H   UNL     1      41.690 -10.340   2.570  1.00  0.00     0.159 HD
HETATM   30  O   UNL     1      39.555 -11.646   2.681  1.00  0.00    -0.266 OA
ENDBRANCH   8  26
TORSDOF 6
ENDMDL
MODEL 5
REMARK VINA RESULT:      -8.3      1.524      3.366
REMARK  6 active torsions:
REMARK  status: ('A' for Active; 'I' for Inactive)
REMARK    1  A    between atoms: C_2  and  C_3 
REMARK    2  A    between atoms: C_3  and  C_4 
REMARK    3  A    between atoms: C_4  and  C_5 
REMARK    4  A    between atoms: C_4  and  C_21 
REMARK       I    between atoms: C_5  and  N_6 
REMARK    5  A    between atoms: N_6  and  C_7 
REMARK    6  A    between atoms: C_14  and  C_15 
REMARK       I    between atoms: C_15  and  N_16 
ROOT
HETATM    1  C   UNL     1      41.489 -14.915   1.481  1.00  0.00     0.035 A 
HETATM    2  C   UNL     1      41.312 -15.282   0.139  1.00  0.00     0.046 A 
HETATM    3  C   UNL     1      40.398 -14.567  -0.664  1.00  0.00     0.030 A 
HETATM    4  C   UNL     1      39.677 -13.526  -0.093  1.00  0.00     0.063 A 
HETATM    5  N   UNL     1      38.877 -13.048  -1.093  1.00  0.00    -0.277 N 
HETATM    6  H   UNL     1      38.205 -12.292  -1.032  1.00  0.00     0.189 HD
HETATM    7  N   UNL     1      39.037 -13.663  -2.276  1.00  0.00    -0.168 NA
HETATM    8  C   UNL     1      39.979 -14.601  -2.028  1.00  0.00     0.156 A 
HETATM    9  C   UNL     1      39.827 -13.135   1.239  1.00  0.00     0.034 A 
HETATM   10  C   UNL     1      40.760 -13.841   2.008  1.00  0.00     0.032 A 
ENDROOT
BRANCH   1  11
HETATM   11  N   UNL     1      42.406 -15.554   2.344  1.00  0.00    -0.327 N 
HETATM   12  C   UNL     1      42.215 -16.757   3.011  1.00  0.00     0.231 C 
HETATM   13  O   UNL     1      41.150 -17.368   3.065  1.00  0.00    -0.272 OA
HETATM   14  H   UNL     1      43.235 -15.027   2.576  1.00  0.00     0.169 HD
BRANCH  12  15
HETATM   15  C   UNL     1      43.470 -17.232   3.781  1.00  0.00     0.115 C 
BRANCH  15  16
HETATM   16  C   UNL     1      43.292 -16.979   5.310  1.00  0.00    -0.001 C 
HETATM   17  C   UNL     1      43.482 -15.499   5.679  1.00  0.00     0.011 C 
BRANCH  16  18
HETATM   18  C   UNL     1      41.936 -17.491   5.856  1.00  0.00     0.001 C 
HETATM   19  C   UNL     1      40.973 -16.413   6.341  1.00  0.00     0.005 C 
ENDBRANCH  16  18
ENDBRANCH  15  16
BRANCH  15  20
HETATM   20  C   UNL     1      43.795 -18.687   3.441  1.00  0.00    -0.045 A 
HETATM   21  C   UNL     1      43.475 -19.197   2.172  1.00  0.00     0.008 A 
HETATM   22  C   UNL     1      43.787 -20.516   1.835  1.00  0.00     0.001 A 
HETATM   23  C   UNL     1      44.418 -21.344   2.760  1.00  0.00     0.000 A 
HETATM   24  C   UNL     1      44.740 -20.853   4.023  1.00  0.00     0.001 A 
HETATM   25  C   UNL     1      44.435 -19.533   4.360  1.00  0.00     0.008 A 
ENDBRANCH  15  20
ENDBRANCH  12  15
ENDBRANCH   1  11
BRANCH   8  26
HETATM   26  C   UNL     1      40.466 -15.488  -3.095  1.00  0.00     0.270 C 
HETATM   27  N   UNL     1      39.670 -16.577  -3.324  1.00  0.00    -0.365 N 
HETATM   28  H   UNL     1      38.823 -16.680  -2.778  1.00  0.00     0.159 HD
HETATM   29  H   UNL     1      39.909 -17.221  -4.060  1.00  0.00     0.159 HD
HETATM   30  O   UNL     1      41.482 -15.296  -3.756  1.00  0.00    -0.266 OA
ENDBRANCH   8  26
TORSDOF 6
ENDMDL
MODEL 6
REMARK VINA RESULT:      -8.2      2.156      3.955
REMARK  6 active torsions:
REMARK  status: ('A' for Active; 'I' for Inactive)
REMARK    1  A    between atoms: C_2  and  C_3 
REMARK    2  A    between atoms: C_3  and  C_4 
REMARK    3  A    between atoms: C_4  and  C_5 
REMARK    4  A    between atoms: C_4  and  C_21 
REMARK       I    between atoms: C_5  and  N_6 
REMARK    5  A    between atoms: N_6  and  C_7 
REMARK    6  A    between atoms: C_14  and  C_15 
REMARK       I    between atoms: C_15  and  N_16 
ROOT
HETATM    1  C   UNL     1      42.029 -15.660   0.715  1.00  0.00     0.035 A 
HETATM    2  C   UNL     1      42.279 -14.282   0.672  1.00  0.00     0.046 A 
HETATM    3  C   UNL     1      41.822 -13.525  -0.429  1.00  0.00     0.030 A 
HETATM    4  C   UNL     1      41.151 -14.177  -1.457  1.00  0.00     0.063 A 
HETATM    5  N   UNL     1      40.856 -13.204  -2.370  1.00  0.00    -0.277 N 
HETATM    6  H   UNL     1      40.378 -13.319  -3.256  1.00  0.00     0.189 HD
HETATM    7  N   UNL     1      41.244 -11.968  -2.014  1.00  0.00    -0.168 NA
HETATM    8  C   UNL     1      41.838 -12.150  -0.812  1.00  0.00     0.156 A 
HETATM    9  C   UNL     1      40.886 -15.547  -1.446  1.00  0.00     0.034 A 
HETATM   10  C   UNL     1      41.325 -16.271  -0.330  1.00  0.00     0.032 A 
ENDROOT
BRANCH   1  11
HETATM   11  N   UNL     1      42.421 -16.484   1.794  1.00  0.00    -0.327 N 
HETATM   12  C   UNL     1      43.695 -16.979   2.037  1.00  0.00     0.231 C 
HETATM   13  O   UNL     1      44.642 -16.893   1.258  1.00  0.00    -0.272 OA
HETATM   14  H   UNL     1      41.674 -16.829   2.380  1.00  0.00     0.169 HD
BRANCH  12  15
HETATM   15  C   UNL     1      43.804 -17.751   3.373  1.00  0.00     0.115 C 
BRANCH  15  16
HETATM   16  C   UNL     1      42.613 -17.379   4.309  1.00  0.00    -0.001 C 
HETATM   17  C   UNL     1      42.295 -18.497   5.316  1.00  0.00     0.011 C 
BRANCH  16  18
HETATM   18  C   UNL     1      42.823 -16.038   5.055  1.00  0.00     0.001 C 
HETATM   19  C   UNL     1      41.647 -15.070   5.011  1.00  0.00     0.005 C 
ENDBRANCH  16  18
ENDBRANCH  15  16
BRANCH  15  20
HETATM   20  C   UNL     1      43.931 -19.253   3.122  1.00  0.00    -0.045 A 
HETATM   21  C   UNL     1      43.270 -19.838   2.028  1.00  0.00     0.008 A 
HETATM   22  C   UNL     1      43.394 -21.205   1.768  1.00  0.00     0.001 A 
HETATM   23  C   UNL     1      44.175 -22.006   2.597  1.00  0.00     0.000 A 
HETATM   24  C   UNL     1      44.835 -21.441   3.686  1.00  0.00     0.001 A 
HETATM   25  C   UNL     1      44.717 -20.075   3.944  1.00  0.00     0.008 A 
ENDBRANCH  15  20
ENDBRANCH  12  15
ENDBRANCH   1  11
BRANCH   8  26
HETATM   26  C   UNL     1      42.385 -11.014  -0.056  1.00  0.00     0.270 C 
HETATM   27  N   UNL     1      41.656 -10.676   1.052  1.00  0.00    -0.365 N 
HETATM   28  H   UNL     1      40.835 -11.226   1.276  1.00  0.00     0.159 HD
HETATM   29  H   UNL     1      41.975  -9.931   1.649  1.00  0.00     0.159 HD
HETATM   30  O   UNL     1      43.409 -10.405  -0.350  1.00  0.00    -0.266 OA
ENDBRANCH   8  26
TORSDOF 6
ENDMDL
MODEL 7
REMARK VINA RESULT:      -8.2      2.815      8.273
REMARK  6 active torsions:
REMARK  status: ('A' for Active; 'I' for Inactive)
REMARK    1  A    between atoms: C_2  and  C_3 
REMARK    2  A    between atoms: C_3  and  C_4 
REMARK    3  A    between atoms: C_4  and  C_5 
REMARK    4  A    between atoms: C_4  and  C_21 
REMARK       I    between atoms: C_5  and  N_6 
REMARK    5  A    between atoms: N_6  and  C_7 
REMARK    6  A    between atoms: C_14  and  C_15 
REMARK       I    between atoms: C_15  and  N_16 
ROOT
HETATM    1  C   UNL     1      42.960 -17.602   2.537  1.00  0.00     0.035 A 
HETATM    2  C   UNL     1      43.197 -17.763   3.909  1.00  0.00     0.046 A 
HETATM    3  C   UNL     1      43.789 -18.956   4.377  1.00  0.00     0.030 A 
HETATM    4  C   UNL     1      44.102 -19.953   3.461  1.00  0.00     0.063 A 
HETATM    5  N   UNL     1      44.633 -20.972   4.202  1.00  0.00    -0.277 N 
HETATM    6  H   UNL     1      44.963 -21.869   3.864  1.00  0.00     0.189 HD
HETATM    7  N   UNL     1      44.727 -20.715   5.516  1.00  0.00    -0.168 NA
HETATM    8  C   UNL     1      44.214 -19.469   5.640  1.00  0.00     0.156 A 
HETATM    9  C   UNL     1      43.878 -19.826   2.089  1.00  0.00     0.034 A 
HETATM   10  C   UNL     1      43.316 -18.622   1.646  1.00  0.00     0.032 A 
ENDROOT
BRANCH   1  11
HETATM   11  N   UNL     1      42.404 -16.428   1.980  1.00  0.00    -0.327 N 
HETATM   12  C   UNL     1      41.054 -16.146   1.823  1.00  0.00     0.231 C 
HETATM   13  O   UNL     1      40.143 -16.950   2.008  1.00  0.00    -0.272 OA
HETATM   14  H   UNL     1      43.060 -15.784   1.563  1.00  0.00     0.169 HD
BRANCH  12  15
HETATM   15  C   UNL     1      40.788 -14.718   1.290  1.00  0.00     0.115 C 
BRANCH  15  16
HETATM   16  C   UNL     1      42.003 -13.791   1.603  1.00  0.00    -0.001 C 
HETATM   17  C   UNL     1      42.037 -12.552   0.693  1.00  0.00     0.011 C 
BRANCH  16  18
HETATM   18  C   UNL     1      42.069 -13.359   3.089  1.00  0.00     0.001 C 
HETATM   19  C   UNL     1      43.378 -13.667   3.805  1.00  0.00     0.005 C 
ENDBRANCH  16  18
ENDBRANCH  15  16
BRANCH  15  20
HETATM   20  C   UNL     1      40.419 -14.754  -0.194  1.00  0.00    -0.045 A 
HETATM   21  C   UNL     1      39.319 -14.015  -0.659  1.00  0.00     0.008 A 
HETATM   22  C   UNL     1      38.980 -14.016  -2.013  1.00  0.00     0.001 A 
HETATM   23  C   UNL     1      39.733 -14.757  -2.921  1.00  0.00     0.000 A 
HETATM   24  C   UNL     1      40.827 -15.495  -2.476  1.00  0.00     0.001 A 
HETATM   25  C   UNL     1      41.170 -15.491  -1.123  1.00  0.00     0.008 A 
ENDBRANCH  15  20
ENDBRANCH  12  15
ENDBRANCH   1  11
BRANCH   8  26
HETATM   26  C   UNL     1      44.161 -18.796   6.946  1.00  0.00     0.270 C 
HETATM   27  N   UNL     1      43.773 -19.608   7.977  1.00  0.00    -0.365 N 
HETATM   28  H   UNL     1      43.579 -20.583   7.779  1.00  0.00     0.159 HD
HETATM   29  H   UNL     1      43.741 -19.241   8.914  1.00  0.00     0.159 HD
HETATM   30  O   UNL     1      44.445 -17.619   7.140  1.00  0.00    -0.266 OA
ENDBRANCH   8  26
TORSDOF 6
ENDMDL
MODEL 8
REMARK VINA RESULT:      -8.1      2.488      8.357
REMARK  6 active torsions:
REMARK  status: ('A' for Active; 'I' for Inactive)
REMARK    1  A    between atoms: C_2  and  C_3 
REMARK    2  A    between atoms: C_3  and  C_4 
REMARK    3  A    between atoms: C_4  and  C_5 
REMARK    4  A    between atoms: C_4  and  C_21 
REMARK       I    between atoms: C_5  and  N_6 
REMARK    5  A    between atoms: N_6  and  C_7 
REMARK    6  A    between atoms: C_14  and  C_15 
REMARK       I    between atoms: C_15  and  N_16 
ROOT
HETATM    1  C   UNL     1      42.115 -17.825   2.665  1.00  0.00     0.035 A 
HETATM    2  C   UNL     1      42.225 -17.789   4.062  1.00  0.00     0.046 A 
HETATM    3  C   UNL     1      43.196 -18.588   4.705  1.00  0.00     0.030 A 
HETATM    4  C   UNL     1      44.005 -19.410   3.931  1.00  0.00     0.063 A 
HETATM    5  N   UNL     1      44.814 -20.061   4.819  1.00  0.00    -0.277 N 
HETATM    6  H   UNL     1      45.526 -20.751   4.609  1.00  0.00     0.189 HD
HETATM    7  N   UNL     1      44.629 -19.711   6.103  1.00  0.00    -0.168 NA
HETATM    8  C   UNL     1      43.634 -18.796   6.047  1.00  0.00     0.156 A 
HETATM    9  C   UNL     1      43.921 -19.471   2.539  1.00  0.00     0.034 A 
HETATM   10  C   UNL     1      42.970 -18.649   1.922  1.00  0.00     0.032 A 
ENDROOT
BRANCH   1  11
HETATM   11  N   UNL     1      41.196 -17.034   1.940  1.00  0.00    -0.327 N 
HETATM   12  C   UNL     1      41.425 -15.769   1.418  1.00  0.00     0.231 C 
HETATM   13  O   UNL     1      42.422 -15.086   1.645  1.00  0.00    -0.272 OA
HETATM   14  H   UNL     1      40.250 -17.387   1.894  1.00  0.00     0.169 HD
BRANCH  12  15
HETATM   15  C   UNL     1      40.243 -15.235   0.575  1.00  0.00     0.115 C 
BRANCH  15  16
HETATM   16  C   UNL     1      39.438 -14.173   1.386  1.00  0.00    -0.001 C 
HETATM   17  C   UNL     1      37.969 -14.093   0.939  1.00  0.00     0.011 C 
BRANCH  16  18
HETATM   18  C   UNL     1      39.515 -14.393   2.917  1.00  0.00     0.001 C 
HETATM   19  C   UNL     1      39.805 -13.148   3.747  1.00  0.00     0.005 C 
ENDBRANCH  16  18
ENDBRANCH  15  16
BRANCH  15  20
HETATM   20  C   UNL     1      40.733 -14.720  -0.779  1.00  0.00    -0.045 A 
HETATM   21  C   UNL     1      41.080 -13.367  -0.929  1.00  0.00     0.008 A 
HETATM   22  C   UNL     1      41.552 -12.883  -2.151  1.00  0.00     0.001 A 
HETATM   23  C   UNL     1      41.680 -13.741  -3.240  1.00  0.00     0.000 A 
HETATM   24  C   UNL     1      41.339 -15.085  -3.108  1.00  0.00     0.001 A 
HETATM   25  C   UNL     1      40.872 -15.572  -1.886  1.00  0.00     0.008 A 
ENDBRANCH  15  20
ENDBRANCH  12  15
ENDBRANCH   1  11
BRANCH   8  26
HETATM   26  C   UNL     1      43.144 -18.133   7.265  1.00  0.00     0.270 C 
HETATM   27  N   UNL     1      43.808 -18.497   8.405  1.00  0.00    -0.365 N 
HETATM   28  H   UNL     1      44.574 -19.155   8.329  1.00  0.00     0.159 HD
HETATM   29  H   UNL     1      43.561 -18.067   9.282  1.00  0.00     0.159 HD
HETATM   30  O   UNL     1      42.235 -17.310   7.296  1.00  0.00    -0.266 OA
ENDBRANCH   8  26
TORSDOF 6
ENDMDL
MODEL 9
REMARK VINA RESULT:      -7.9      1.909      3.817
REMARK  6 active torsions:
REMARK  status: ('A' for Active; 'I' for Inactive)
REMARK    1  A    between atoms: C_2  and  C_3 
REMARK    2  A    between atoms: C_3  and  C_4 
REMARK    3  A    between atoms: C_4  and  C_5 
REMARK    4  A    between atoms: C_4  and  C_21 
REMARK       I    between atoms: C_5  and  N_6 
REMARK    5  A    between atoms: N_6  and  C_7 
REMARK    6  A    between atoms: C_14  and  C_15 
REMARK       I    between atoms: C_15  and  N_16 
ROOT
HETATM    1  C   UNL     1      41.642 -15.055   3.532  1.00  0.00     0.035 A 
HETATM    2  C   UNL     1      41.104 -14.956   2.241  1.00  0.00     0.046 A 
HETATM    3  C   UNL     1      40.067 -14.032   1.989  1.00  0.00     0.030 A 
HETATM    4  C   UNL     1      39.591 -13.257   3.039  1.00  0.00     0.063 A 
HETATM    5  N   UNL     1      38.597 -12.489   2.500  1.00  0.00    -0.277 N 
HETATM    6  H   UNL     1      38.018 -11.810   2.980  1.00  0.00     0.189 HD
HETATM    7  N   UNL     1      38.406 -12.668   1.182  1.00  0.00    -0.168 NA
HETATM    8  C   UNL     1      39.312 -13.616   0.851  1.00  0.00     0.156 A 
HETATM    9  C   UNL     1      40.103 -13.331   4.335  1.00  0.00     0.034 A 
HETATM   10  C   UNL     1      41.150 -14.235   4.554  1.00  0.00     0.032 A 
ENDROOT
BRANCH   1  11
HETATM   11  N   UNL     1      42.703 -15.928   3.863  1.00  0.00    -0.327 N 
HETATM   12  C   UNL     1      42.590 -17.245   4.287  1.00  0.00     0.231 C 
HETATM   13  O   UNL     1      41.533 -17.798   4.584  1.00  0.00    -0.272 OA
HETATM   14  H   UNL     1      43.623 -15.512   3.893  1.00  0.00     0.169 HD
BRANCH  12  15
HETATM   15  C   UNL     1      43.956 -17.952   4.449  1.00  0.00     0.115 C 
BRANCH  15  16
HETATM   16  C   UNL     1      44.292 -18.136   5.961  1.00  0.00    -0.001 C 
HETATM   17  C   UNL     1      44.543 -16.794   6.668  1.00  0.00     0.011 C 
BRANCH  16  18
HETATM   18  C   UNL     1      43.216 -18.945   6.728  1.00  0.00     0.001 C 
HETATM   19  C   UNL     1      43.735 -20.130   7.533  1.00  0.00     0.005 C 
ENDBRANCH  16  18
ENDBRANCH  15  16
BRANCH  15  20
HETATM   20  C   UNL     1      43.986 -19.260   3.658  1.00  0.00    -0.045 A 
HETATM   21  C   UNL     1      43.263 -19.368   2.458  1.00  0.00     0.008 A 
HETATM   22  C   UNL     1      43.297 -20.546   1.709  1.00  0.00     0.001 A 
HETATM   23  C   UNL     1      44.051 -21.632   2.148  1.00  0.00     0.000 A 
HETATM   24  C   UNL     1      44.772 -21.540   3.336  1.00  0.00     0.001 A 
HETATM   25  C   UNL     1      44.743 -20.362   4.083  1.00  0.00     0.008 A 
ENDBRANCH  15  20
ENDBRANCH  12  15
ENDBRANCH   1  11
BRANCH   8  26
HETATM   26  C   UNL     1      39.447 -14.085  -0.537  1.00  0.00     0.270 C 
HETATM   27  N   UNL     1      38.256 -14.253  -1.188  1.00  0.00    -0.365 N 
HETATM   28  H   UNL     1      37.399 -14.031  -0.695  1.00  0.00     0.159 HD
HETATM   29  H   UNL     1      38.254 -14.539  -2.154  1.00  0.00     0.159 HD
HETATM   30  O   UNL     1      40.514 -14.302  -1.101  1.00  0.00    -0.266 OA
ENDBRANCH   8  26
TORSDOF 6
ENDMDL
MODEL 10
REMARK VINA RESULT:      -7.9      2.841      7.855
REMARK  6 active torsions:
REMARK  status: ('A' for Active; 'I' for Inactive)
REMARK    1  A    between atoms: C_2  and  C_3 
REMARK    2  A    between atoms: C_3  and  C_4 
REMARK    3  A    between atoms: C_4  and  C_5 
REMARK    4  A    between atoms: C_4  and  C_21 
REMARK       I    between atoms: C_5  and  N_6 
REMARK    5  A    between atoms: N_6  and  C_7 
REMARK    6  A    between atoms: C_14  and  C_15 
REMARK       I    between atoms: C_15  and  N_16 
ROOT
HETATM    1  C   UNL     1      43.097 -16.851   1.474  1.00  0.00     0.035 A 
HETATM    2  C   UNL     1      43.423 -18.213   1.530  1.00  0.00     0.046 A 
HETATM    3  C   UNL     1      43.780 -18.793   2.767  1.00  0.00     0.030 A 
HETATM    4  C   UNL     1      43.820 -17.987   3.898  1.00  0.00     0.063 A 
HETATM    5  N   UNL     1      44.209 -18.811   4.916  1.00  0.00    -0.277 N 
HETATM    6  H   UNL     1      44.355 -18.559   5.887  1.00  0.00     0.189 HD
HETATM    7  N   UNL     1      44.393 -20.092   4.558  1.00  0.00    -0.168 NA
HETATM    8  C   UNL     1      44.126 -20.098   3.231  1.00  0.00     0.156 A 
HETATM    9  C   UNL     1      43.503 -16.628   3.877  1.00  0.00     0.034 A 
HETATM   10  C   UNL     1      43.124 -16.082   2.644  1.00  0.00     0.032 A 
ENDROOT
BRANCH   1  11
HETATM   11  N   UNL     1      42.696 -16.199   0.286  1.00  0.00    -0.327 N 
HETATM   12  C   UNL     1      41.455 -15.634   0.031  1.00  0.00     0.231 C 
HETATM   13  O   UNL     1      40.467 -15.754   0.753  1.00  0.00    -0.272 OA
HETATM   14  H   UNL     1      43.347 -16.247  -0.485  1.00  0.00     0.169 HD
BRANCH  12  15
HETATM   15  C   UNL     1      41.390 -14.893  -1.326  1.00  0.00     0.115 C 
BRANCH  15  16
HETATM   16  C   UNL     1      39.957 -15.002  -1.931  1.00  0.00    -0.001 C 
HETATM   17  C   UNL     1      39.063 -13.819  -1.524  1.00  0.00     0.011 C 
BRANCH  16  18
HETATM   18  C   UNL     1      39.960 -15.157  -3.473  1.00  0.00     0.001 C 
HETATM   19  C   UNL     1      39.088 -16.279  -4.023  1.00  0.00     0.005 C 
ENDBRANCH  16  18
ENDBRANCH  15  16
BRANCH  15  20
HETATM   20  C   UNL     1      41.879 -13.452  -1.180  1.00  0.00    -0.045 A 
HETATM   21  C   UNL     1      41.787 -12.804   0.063  1.00  0.00     0.008 A 
HETATM   22  C   UNL     1      42.250 -11.496   0.222  1.00  0.00     0.001 A 
HETATM   23  C   UNL     1      42.808 -10.816  -0.858  1.00  0.00     0.000 A 
HETATM   24  C   UNL     1      42.905 -11.445  -2.097  1.00  0.00     0.001 A 
HETATM   25  C   UNL     1      42.448 -12.754  -2.256  1.00  0.00     0.008 A 
ENDBRANCH  15  20
ENDBRANCH  12  15
ENDBRANCH   1  11
BRANCH   8  26
HETATM   26  C   UNL     1      44.188 -21.342   2.450  1.00  0.00     0.270 C 
HETATM   27  N   UNL     1      44.562 -22.440   3.176  1.00  0.00    -0.365 N 
HETATM   28  H   UNL     1      44.743 -22.326   4.167  1.00  0.00     0.159 HD
HETATM   29  H   UNL     1      44.599 -23.342   2.730  1.00  0.00     0.159 HD
HETATM   30  O   UNL     1      43.920 -21.433   1.257  1.00  0.00    -0.266 OA
ENDBRANCH   8  26
TORSDOF 6
ENDMDL
