MODEL 1
REMARK VINA RESULT:      -9.6      0.000      0.000
REMARK  7 active torsions:
REMARK  status: ('A' for Active; 'I' for Inactive)
REMARK       I    between atoms: C_2  and  N_3 
REMARK    1  A    between atoms: N_3  and  C_4 
REMARK    2  A    between atoms: C_6  and  N_7 
REMARK       I    between atoms: N_7  and  C_8 
REMARK    3  A    between atoms: C_8  and  C_9 
REMARK       I    between atoms: C_9  and  N_10 
REMARK    4  A    between atoms: N_10  and  C_11 
REMARK    5  A    between atoms: C_11  and  C_12 
REMARK    6  A    between atoms: C_12  and  O_13 
REMARK    7  A    between atoms: C_12  and  C_14 
ROOT
HETATM    1  C   UNL     1      44.617 -12.654   8.614  1.00  0.00     0.309 C 
HETATM    2  N   UNL     1      43.895 -13.277   7.626  1.00  0.00    -0.350 N 
HETATM    3  O   UNL     1      45.773 -12.900   8.934  1.00  0.00    -0.262 OA
HETATM    4  H   UNL     1      42.892 -13.092   7.615  1.00  0.00     0.163 HD
ENDROOT
BRANCH   1   5
HETATM    5  C   UNL     1      43.819 -11.584   9.389  1.00  0.00     0.313 C 
HETATM    6  N   UNL     1      43.392 -12.049  10.615  1.00  0.00    -0.319 N 
HETATM    7  H   UNL     1      43.676 -13.005  10.821  1.00  0.00     0.169 HD
HETATM    8  O   UNL     1      43.618 -10.498   8.863  1.00  0.00    -0.262 OA
BRANCH   6   9
HETATM    9  C   UNL     1      42.569 -11.390  11.544  1.00  0.00     0.037 A 
HETATM   10  C   UNL     1      41.223 -11.092  11.312  1.00  0.00     0.059 A 
HETATM   11  C   UNL     1      40.427 -10.496  12.302  1.00  0.00     0.036 A 
HETATM   12  C   UNL     1      41.013 -10.149  13.518  1.00  0.00     0.029 A 
HETATM   13  C   UNL     1      42.364 -10.419  13.751  1.00  0.00     0.004 A 
HETATM   14  C   UNL     1      43.136 -11.042  12.771  1.00  0.00     0.029 A 
BRANCH  11  15
HETATM   15  N   UNL     1      39.085 -10.249  11.964  1.00  0.00    -0.327 N 
HETATM   16  C   UNL     1      38.307  -9.132  12.021  1.00  0.00     0.218 C 
HETATM   17  C   UNL     1      38.765  -7.904  12.756  1.00  0.00     0.117 C 
HETATM   18  O   UNL     1      37.187  -9.165  11.503  1.00  0.00    -0.274 OA
HETATM   19  H   UNL     1      38.555 -11.044  11.624  1.00  0.00     0.169 HD
ENDBRANCH  11  15
ENDBRANCH   6   9
ENDBRANCH   1   5
BRANCH   2  20
HETATM   20  C   UNL     1      44.367 -14.479   6.962  1.00  0.00     0.159 C 
BRANCH  20  21
HETATM   21  C   UNL     1      43.414 -14.913   5.836  1.00  0.00     0.171 C 
BRANCH  21  22
HETATM   22  O   UNL     1      42.070 -14.593   6.227  1.00  0.00    -0.389 OA
HETATM   23  H   UNL     1      42.154 -13.974   6.974  1.00  0.00     0.210 HD
ENDBRANCH  21  22
BRANCH  21  24
HETATM   24  C   UNL     1      43.553 -16.369   5.510  1.00  0.00     0.000 A 
HETATM   25  C   UNL     1      43.596 -16.943   4.198  1.00  0.00     0.001 A 
HETATM   26  C   UNL     1      43.733 -18.329   4.344  1.00  0.00     0.044 A 
HETATM   27  C   UNL     1      43.531 -16.400   2.898  1.00  0.00     0.014 A 
HETATM   28  C   UNL     1      43.799 -19.186   3.234  1.00  0.00     0.030 A 
HETATM   29  N   UNL     1      43.780 -18.584   5.698  1.00  0.00    -0.360 N 
HETATM   30  C   UNL     1      43.730 -18.621   1.956  1.00  0.00     0.002 A 
HETATM   31  C   UNL     1      43.600 -17.247   1.788  1.00  0.00     0.001 A 
HETATM   32  C   UNL     1      43.926 -19.879   6.326  1.00  0.00     0.155 C 
HETATM   33  C   UNL     1      43.672 -17.415   6.405  1.00  0.00     0.101 A 
ENDBRANCH  21  24
ENDBRANCH  20  21
ENDBRANCH   2  20
TORSDOF 7
ENDMDL
MODEL 2
REMARK VINA RESULT:      -9.3      1.633      2.216
REMARK  7 active torsions:
REMARK  status: ('A' for Active; 'I' for Inactive)
REMARK       I    between atoms: C_2  and  N_3 
REMARK    1  A    between atoms: N_3  and  C_4 
REMARK    2  A    between atoms: C_6  and  N_7 
REMARK       I    between atoms: N_7  and  C_8 
REMARK    3  A    between atoms: C_8  and  C_9 
REMARK       I    between atoms: C_9  and  N_10 
REMARK    4  A    between atoms: N_10  and  C_11 
REMARK    5  A    between atoms: C_11  and  C_12 
REMARK    6  A    between atoms: C_12  and  O_13 
REMARK    7  A    between atoms: C_12  and  C_14 
ROOT
HETATM    1  C   UNL     1      45.146 -12.727   8.072  1.00  0.00     0.309 C 
HETATM    2  N   UNL     1      44.174 -13.580   7.611  1.00  0.00    -0.350 N 
HETATM    3  O   UNL     1      46.350 -12.820   7.872  1.00  0.00    -0.262 OA
HETATM    4  H   UNL     1      43.248 -13.476   8.024  1.00  0.00     0.163 HD
ENDROOT
BRANCH   1   5
HETATM    5  C   UNL     1      44.603 -11.589   8.964  1.00  0.00     0.313 C 
HETATM    6  N   UNL     1      43.255 -11.734   9.219  1.00  0.00    -0.319 N 
HETATM    7  H   UNL     1      42.838 -12.561   8.796  1.00  0.00     0.169 HD
HETATM    8  O   UNL     1      45.363 -10.696   9.313  1.00  0.00    -0.262 OA
BRANCH   6   9
HETATM    9  C   UNL     1      42.412 -10.848   9.910  1.00  0.00     0.037 A 
HETATM   10  C   UNL     1      42.153 -10.935  11.281  1.00  0.00     0.059 A 
HETATM   11  C   UNL     1      41.358  -9.981  11.934  1.00  0.00     0.036 A 
HETATM   12  C   UNL     1      40.776  -8.962  11.183  1.00  0.00     0.029 A 
HETATM   13  C   UNL     1      41.008  -8.879   9.807  1.00  0.00     0.004 A 
HETATM   14  C   UNL     1      41.826  -9.815   9.175  1.00  0.00     0.029 A 
BRANCH  11  15
HETATM   15  N   UNL     1      41.170 -10.161  13.316  1.00  0.00    -0.327 N 
HETATM   16  C   UNL     1      41.877  -9.754  14.407  1.00  0.00     0.218 C 
HETATM   17  C   UNL     1      43.255  -9.172  14.265  1.00  0.00     0.117 C 
HETATM   18  O   UNL     1      41.386  -9.925  15.527  1.00  0.00    -0.274 OA
HETATM   19  H   UNL     1      40.366 -10.716  13.589  1.00  0.00     0.169 HD
ENDBRANCH  11  15
ENDBRANCH   6   9
ENDBRANCH   1   5
BRANCH   2  20
HETATM   20  C   UNL     1      44.493 -14.850   6.981  1.00  0.00     0.159 C 
BRANCH  20  21
HETATM   21  C   UNL     1      43.424 -15.255   5.954  1.00  0.00     0.171 C 
BRANCH  21  22
HETATM   22  O   UNL     1      42.131 -15.134   6.569  1.00  0.00    -0.389 OA
HETATM   23  H   UNL     1      42.262 -14.559   7.343  1.00  0.00     0.210 HD
ENDBRANCH  21  22
BRANCH  21  24
HETATM   24  C   UNL     1      43.646 -16.640   5.425  1.00  0.00     0.000 A 
HETATM   25  C   UNL     1      43.654 -17.029   4.047  1.00  0.00     0.001 A 
HETATM   26  C   UNL     1      43.897 -18.407   3.995  1.00  0.00     0.044 A 
HETATM   27  C   UNL     1      43.476 -16.324   2.838  1.00  0.00     0.014 A 
HETATM   28  C   UNL     1      43.959 -19.100   2.775  1.00  0.00     0.030 A 
HETATM   29  N   UNL     1      44.041 -18.835   5.297  1.00  0.00    -0.360 N 
HETATM   30  C   UNL     1      43.777 -18.378   1.592  1.00  0.00     0.002 A 
HETATM   31  C   UNL     1      43.541 -17.008   1.620  1.00  0.00     0.001 A 
HETATM   32  C   UNL     1      44.314 -20.187   5.733  1.00  0.00     0.155 C 
HETATM   33  C   UNL     1      43.891 -17.783   6.161  1.00  0.00     0.101 A 
ENDBRANCH  21  24
ENDBRANCH  20  21
ENDBRANCH   2  20
TORSDOF 7
ENDMDL
MODEL 3
REMARK VINA RESULT:      -9.2      1.906      2.559
REMARK  7 active torsions:
REMARK  status: ('A' for Active; 'I' for Inactive)
REMARK       I    between atoms: C_2  and  N_3 
REMARK    1  A    between atoms: N_3  and  C_4 
REMARK    2  A    between atoms: C_6  and  N_7 
REMARK       I    between atoms: N_7  and  C_8 
REMARK    3  A    between atoms: C_8  and  C_9 
REMARK       I    between atoms: C_9  and  N_10 
REMARK    4  A    between atoms: N_10  and  C_11 
REMARK    5  A    between atoms: C_11  and  C_12 
REMARK    6  A    between atoms: C_12  and  O_13 
REMARK    7  A    between atoms: C_12  and  C_14 
ROOT
HETATM    1  C   UNL     1      45.060 -13.612   7.337  1.00  0.00     0.309 C 
HETATM    2  N   UNL     1      44.147 -14.601   7.607  1.00  0.00    -0.350 N 
HETATM    3  O   UNL     1      45.831 -13.573   6.386  1.00  0.00    -0.262 OA
HETATM    4  H   UNL     1      43.721 -14.582   8.533  1.00  0.00     0.163 HD
ENDROOT
BRANCH   1   5
HETATM    5  C   UNL     1      45.101 -12.494   8.402  1.00  0.00     0.313 C 
HETATM    6  N   UNL     1      43.869 -12.300   8.991  1.00  0.00    -0.319 N 
HETATM    7  H   UNL     1      43.140 -12.923   8.647  1.00  0.00     0.169 HD
HETATM    8  O   UNL     1      46.150 -11.894   8.590  1.00  0.00    -0.262 OA
BRANCH   6   9
HETATM    9  C   UNL     1      43.510 -11.316   9.927  1.00  0.00     0.037 A 
HETATM   10  C   UNL     1      42.500 -10.374   9.712  1.00  0.00     0.059 A 
HETATM   11  C   UNL     1      42.134  -9.458  10.710  1.00  0.00     0.036 A 
HETATM   12  C   UNL     1      42.835  -9.458  11.914  1.00  0.00     0.029 A 
HETATM   13  C   UNL     1      43.865 -10.378  12.130  1.00  0.00     0.004 A 
HETATM   14  C   UNL     1      44.197 -11.306  11.143  1.00  0.00     0.029 A 
BRANCH  11  15
HETATM   15  N   UNL     1      41.098  -8.562  10.390  1.00  0.00    -0.327 N 
HETATM   16  C   UNL     1      39.837  -8.393  10.875  1.00  0.00     0.218 C 
HETATM   17  C   UNL     1      39.212  -9.416  11.783  1.00  0.00     0.117 C 
HETATM   18  O   UNL     1      39.189  -7.408  10.510  1.00  0.00    -0.274 OA
HETATM   19  H   UNL     1      41.290  -7.907   9.638  1.00  0.00     0.169 HD
ENDBRANCH  11  15
ENDBRANCH   6   9
ENDBRANCH   1   5
BRANCH   2  20
HETATM   20  C   UNL     1      44.131 -15.859   6.882  1.00  0.00     0.159 C 
BRANCH  20  21
HETATM   21  C   UNL     1      42.706 -16.424   6.762  1.00  0.00     0.171 C 
BRANCH  21  22
HETATM   22  O   UNL     1      42.559 -17.494   7.709  1.00  0.00    -0.389 OA
HETATM   23  H   UNL     1      42.712 -17.094   8.584  1.00  0.00     0.210 HD
ENDBRANCH  21  22
BRANCH  21  24
HETATM   24  C   UNL     1      42.397 -16.885   5.371  1.00  0.00     0.000 A 
HETATM   25  C   UNL     1      43.058 -17.937   4.660  1.00  0.00     0.001 A 
HETATM   26  C   UNL     1      42.462 -18.041   3.398  1.00  0.00     0.044 A 
HETATM   27  C   UNL     1      44.116 -18.814   4.985  1.00  0.00     0.014 A 
HETATM   28  C   UNL     1      42.894 -18.984   2.451  1.00  0.00     0.030 A 
HETATM   29  N   UNL     1      41.466 -17.089   3.349  1.00  0.00    -0.360 N 
HETATM   30  C   UNL     1      43.945 -19.838   2.798  1.00  0.00     0.002 A 
HETATM   31  C   UNL     1      44.548 -19.758   4.049  1.00  0.00     0.001 A 
HETATM   32  C   UNL     1      40.574 -16.832   2.240  1.00  0.00     0.155 C 
HETATM   33  C   UNL     1      41.420 -16.390   4.527  1.00  0.00     0.101 A 
ENDBRANCH  21  24
ENDBRANCH  20  21
ENDBRANCH   2  20
TORSDOF 7
ENDMDL
MODEL 4
REMARK VINA RESULT:      -9.2      7.658     11.146
REMARK  7 active torsions:
REMARK  status: ('A' for Active; 'I' for Inactive)
REMARK       I    between atoms: C_2  and  N_3 
REMARK    1  A    between atoms: N_3  and  C_4 
REMARK    2  A    between atoms: C_6  and  N_7 
REMARK       I    between atoms: N_7  and  C_8 
REMARK    3  A    between atoms: C_8  and  C_9 
REMARK       I    between atoms: C_9  and  N_10 
REMARK    4  A    between atoms: N_10  and  C_11 
REMARK    5  A    between atoms: C_11  and  C_12 
REMARK    6  A    between atoms: C_12  and  O_13 
REMARK    7  A    between atoms: C_12  and  C_14 
ROOT
HETATM    1  C   UNL     1      39.726 -15.293   1.674  1.00  0.00     0.309 C 
HETATM    2  N   UNL     1      40.436 -16.264   1.012  1.00  0.00    -0.350 N 
HETATM    3  O   UNL     1      39.735 -15.080   2.880  1.00  0.00    -0.262 OA
HETATM    4  H   UNL     1      40.172 -16.436   0.043  1.00  0.00     0.163 HD
ENDROOT
BRANCH   1   5
HETATM    5  C   UNL     1      38.810 -14.456   0.755  1.00  0.00     0.313 C 
HETATM    6  N   UNL     1      39.243 -14.471  -0.554  1.00  0.00    -0.319 N 
HETATM    7  H   UNL     1      40.079 -15.033  -0.710  1.00  0.00     0.169 HD
HETATM    8  O   UNL     1      37.862 -13.861   1.248  1.00  0.00    -0.262 OA
BRANCH   6   9
HETATM    9  C   UNL     1      38.717 -13.754  -1.641  1.00  0.00     0.037 A 
HETATM   10  C   UNL     1      37.955 -14.337  -2.658  1.00  0.00     0.059 A 
HETATM   11  C   UNL     1      37.393 -13.562  -3.684  1.00  0.00     0.036 A 
HETATM   12  C   UNL     1      37.651 -12.193  -3.710  1.00  0.00     0.029 A 
HETATM   13  C   UNL     1      38.433 -11.603  -2.714  1.00  0.00     0.004 A 
HETATM   14  C   UNL     1      38.959 -12.380  -1.681  1.00  0.00     0.029 A 
BRANCH  11  15
HETATM   15  N   UNL     1      36.637 -14.250  -4.649  1.00  0.00    -0.327 N 
HETATM   16  C   UNL     1      35.414 -14.021  -5.203  1.00  0.00     0.218 C 
HETATM   17  C   UNL     1      34.482 -12.993  -4.626  1.00  0.00     0.117 C 
HETATM   18  O   UNL     1      35.058 -14.716  -6.159  1.00  0.00    -0.274 OA
HETATM   19  H   UNL     1      37.048 -15.103  -5.014  1.00  0.00     0.169 HD
ENDBRANCH  11  15
ENDBRANCH   6   9
ENDBRANCH   1   5
BRANCH   2  20
HETATM   20  C   UNL     1      41.147 -17.318   1.715  1.00  0.00     0.159 C 
BRANCH  20  21
HETATM   21  C   UNL     1      42.653 -17.020   1.808  1.00  0.00     0.171 C 
BRANCH  21  22
HETATM   22  O   UNL     1      43.235 -17.204   0.508  1.00  0.00    -0.389 OA
HETATM   23  H   UNL     1      43.892 -17.915   0.613  1.00  0.00     0.210 HD
ENDBRANCH  21  22
BRANCH  21  24
HETATM   24  C   UNL     1      43.334 -17.871   2.835  1.00  0.00     0.000 A 
HETATM   25  C   UNL     1      43.646 -19.264   2.709  1.00  0.00     0.001 A 
HETATM   26  C   UNL     1      44.279 -19.667   3.890  1.00  0.00     0.044 A 
HETATM   27  C   UNL     1      43.445 -20.215   1.687  1.00  0.00     0.014 A 
HETATM   28  C   UNL     1      44.707 -20.991   4.084  1.00  0.00     0.030 A 
HETATM   29  N   UNL     1      44.356 -18.555   4.701  1.00  0.00    -0.360 N 
HETATM   30  C   UNL     1      44.493 -21.914   3.056  1.00  0.00     0.002 A 
HETATM   31  C   UNL     1      43.872 -21.534   1.872  1.00  0.00     0.001 A 
HETATM   32  C   UNL     1      44.941 -18.491   6.022  1.00  0.00     0.155 C 
HETATM   33  C   UNL     1      43.791 -17.474   4.077  1.00  0.00     0.101 A 
ENDBRANCH  21  24
ENDBRANCH  20  21
ENDBRANCH   2  20
TORSDOF 7
ENDMDL
MODEL 5
REMARK VINA RESULT:      -9.1      2.336     10.206
REMARK  7 active torsions:
REMARK  status: ('A' for Active; 'I' for Inactive)
REMARK       I    between atoms: C_2  and  N_3 
REMARK    1  A    between atoms: N_3  and  C_4 
REMARK    2  A    between atoms: C_6  and  N_7 
REMARK       I    between atoms: N_7  and  C_8 
REMARK    3  A    between atoms: C_8  and  C_9 
REMARK       I    between atoms: C_9  and  N_10 
REMARK    4  A    between atoms: N_10  and  C_11 
REMARK    5  A    between atoms: C_11  and  C_12 
REMARK    6  A    between atoms: C_12  and  O_13 
REMARK    7  A    between atoms: C_12  and  C_14 
ROOT
HETATM    1  C   UNL     1      45.125 -13.390   7.773  1.00  0.00     0.309 C 
HETATM    2  N   UNL     1      44.217 -13.383   8.804  1.00  0.00    -0.350 N 
HETATM    3  O   UNL     1      46.159 -12.739   7.710  1.00  0.00    -0.262 OA
HETATM    4  H   UNL     1      43.319 -13.828   8.619  1.00  0.00     0.163 HD
ENDROOT
BRANCH   1   5
HETATM    5  C   UNL     1      44.714 -14.292   6.589  1.00  0.00     0.313 C 
HETATM    6  N   UNL     1      44.541 -15.604   6.978  1.00  0.00    -0.319 N 
HETATM    7  H   UNL     1      44.696 -15.768   7.971  1.00  0.00     0.169 HD
HETATM    8  O   UNL     1      44.620 -13.799   5.474  1.00  0.00    -0.262 OA
BRANCH   6   9
HETATM    9  C   UNL     1      44.260 -16.712   6.161  1.00  0.00     0.037 A 
HETATM   10  C   UNL     1      43.344 -16.683   5.105  1.00  0.00     0.059 A 
HETATM   11  C   UNL     1      43.154 -17.799   4.275  1.00  0.00     0.036 A 
HETATM   12  C   UNL     1      43.856 -18.970   4.551  1.00  0.00     0.029 A 
HETATM   13  C   UNL     1      44.755 -19.018   5.621  1.00  0.00     0.004 A 
HETATM   14  C   UNL     1      44.959 -17.892   6.417  1.00  0.00     0.029 A 
BRANCH  11  15
HETATM   15  N   UNL     1      42.215 -17.657   3.238  1.00  0.00    -0.327 N 
HETATM   16  C   UNL     1      42.334 -17.611   1.881  1.00  0.00     0.218 C 
HETATM   17  C   UNL     1      43.678 -17.460   1.226  1.00  0.00     0.117 C 
HETATM   18  O   UNL     1      41.307 -17.638   1.197  1.00  0.00    -0.274 OA
HETATM   19  H   UNL     1      41.248 -17.547   3.523  1.00  0.00     0.169 HD
ENDBRANCH  11  15
ENDBRANCH   6   9
ENDBRANCH   1   5
BRANCH   2  20
HETATM   20  C   UNL     1      44.281 -12.414   9.884  1.00  0.00     0.159 C 
BRANCH  20  21
HETATM   21  C   UNL     1      44.159 -10.974   9.359  1.00  0.00     0.171 C 
BRANCH  21  22
HETATM   22  O   UNL     1      45.406 -10.299   9.588  1.00  0.00    -0.389 OA
HETATM   23  H   UNL     1      45.967 -10.937  10.062  1.00  0.00     0.210 HD
ENDBRANCH  21  22
BRANCH  21  24
HETATM   24  C   UNL     1      43.018 -10.237   9.993  1.00  0.00     0.000 A 
HETATM   25  C   UNL     1      42.929  -9.831  11.363  1.00  0.00     0.001 A 
HETATM   26  C   UNL     1      41.705  -9.174  11.534  1.00  0.00     0.044 A 
HETATM   27  C   UNL     1      43.788  -9.966  12.474  1.00  0.00     0.014 A 
HETATM   28  C   UNL     1      41.311  -8.657  12.779  1.00  0.00     0.030 A 
HETATM   29  N   UNL     1      41.078  -9.173  10.306  1.00  0.00    -0.360 N 
HETATM   30  C   UNL     1      42.180  -8.807  13.864  1.00  0.00     0.002 A 
HETATM   31  C   UNL     1      43.403  -9.451  13.716  1.00  0.00     0.001 A 
HETATM   32  C   UNL     1      39.789  -8.595   9.997  1.00  0.00     0.155 C 
HETATM   33  C   UNL     1      41.858  -9.810   9.376  1.00  0.00     0.101 A 
ENDBRANCH  21  24
ENDBRANCH  20  21
ENDBRANCH   2  20
TORSDOF 7
ENDMDL
MODEL 6
REMARK VINA RESULT:      -8.9      6.215     10.115
REMARK  7 active torsions:
REMARK  status: ('A' for Active; 'I' for Inactive)
REMARK       I    between atoms: C_2  and  N_3 
REMARK    1  A    between atoms: N_3  and  C_4 
REMARK    2  A    between atoms: C_6  and  N_7 
REMARK       I    between atoms: N_7  and  C_8 
REMARK    3  A    between atoms: C_8  and  C_9 
REMARK       I    between atoms: C_9  and  N_10 
REMARK    4  A    between atoms: N_10  and  C_11 
REMARK    5  A    between atoms: C_11  and  C_12 
REMARK    6  A    between atoms: C_12  and  O_13 
REMARK    7  A    between atoms: C_12  and  C_14 
ROOT
HETATM    1  C   UNL     1      42.421 -13.739   2.666  1.00  0.00     0.309 C 
HETATM    2  N   UNL     1      41.387 -14.213   3.436  1.00  0.00    -0.350 N 
HETATM    3  O   UNL     1      43.613 -13.787   2.941  1.00  0.00    -0.262 OA
HETATM    4  H   UNL     1      40.449 -13.924   3.160  1.00  0.00     0.163 HD
ENDROOT
BRANCH   1   5
HETATM    5  C   UNL     1      41.962 -13.047   1.364  1.00  0.00     0.313 C 
HETATM    6  N   UNL     1      41.762 -13.953   0.344  1.00  0.00    -0.319 N 
HETATM    7  H   UNL     1      41.932 -14.923   0.607  1.00  0.00     0.169 HD
HETATM    8  O   UNL     1      41.859 -11.829   1.346  1.00  0.00    -0.262 OA
BRANCH   6   9
HETATM    9  C   UNL     1      41.434 -13.680  -0.995  1.00  0.00     0.037 A 
HETATM   10  C   UNL     1      40.193 -13.978  -1.565  1.00  0.00     0.059 A 
HETATM   11  C   UNL     1      39.895 -13.619  -2.888  1.00  0.00     0.036 A 
HETATM   12  C   UNL     1      40.880 -13.003  -3.657  1.00  0.00     0.029 A 
HETATM   13  C   UNL     1      42.134 -12.725  -3.105  1.00  0.00     0.004 A 
HETATM   14  C   UNL     1      42.407 -13.057  -1.779  1.00  0.00     0.029 A 
BRANCH  11  15
HETATM   15  N   UNL     1      38.613 -13.958  -3.357  1.00  0.00    -0.327 N 
HETATM   16  C   UNL     1      38.091 -15.105  -3.874  1.00  0.00     0.218 C 
HETATM   17  C   UNL     1      38.978 -16.249  -4.277  1.00  0.00     0.117 C 
HETATM   18  O   UNL     1      36.872 -15.168  -4.061  1.00  0.00    -0.274 OA
HETATM   19  H   UNL     1      37.919 -13.218  -3.338  1.00  0.00     0.169 HD
ENDBRANCH  11  15
ENDBRANCH   6   9
ENDBRANCH   1   5
BRANCH   2  20
HETATM   20  C   UNL     1      41.581 -14.658   4.805  1.00  0.00     0.159 C 
BRANCH  20  21
HETATM   21  C   UNL     1      40.935 -16.032   5.050  1.00  0.00     0.171 C 
BRANCH  21  22
HETATM   22  O   UNL     1      39.935 -15.890   6.071  1.00  0.00    -0.389 OA
HETATM   23  H   UNL     1      40.024 -16.676   6.637  1.00  0.00     0.210 HD
ENDBRANCH  21  22
BRANCH  21  24
HETATM   24  C   UNL     1      41.947 -17.072   5.422  1.00  0.00     0.000 A 
HETATM   25  C   UNL     1      42.644 -17.938   4.518  1.00  0.00     0.001 A 
HETATM   26  C   UNL     1      43.493 -18.752   5.277  1.00  0.00     0.044 A 
HETATM   27  C   UNL     1      42.624 -18.097   3.116  1.00  0.00     0.014 A 
HETATM   28  C   UNL     1      44.314 -19.722   4.680  1.00  0.00     0.030 A 
HETATM   29  N   UNL     1      43.324 -18.385   6.595  1.00  0.00    -0.360 N 
HETATM   30  C   UNL     1      44.273 -19.860   3.289  1.00  0.00     0.002 A 
HETATM   31  C   UNL     1      43.442 -19.058   2.515  1.00  0.00     0.001 A 
HETATM   32  C   UNL     1      44.004 -18.948   7.740  1.00  0.00     0.155 C 
HETATM   33  C   UNL     1      42.398 -17.379   6.691  1.00  0.00     0.101 A 
ENDBRANCH  21  24
ENDBRANCH  20  21
ENDBRANCH   2  20
TORSDOF 7
ENDMDL
MODEL 7
REMARK VINA RESULT:      -8.6      2.335      3.071
REMARK  7 active torsions:
REMARK  status: ('A' for Active; 'I' for Inactive)
REMARK       I    between atoms: C_2  and  N_3 
REMARK    1  A    between atoms: N_3  and  C_4 
REMARK    2  A    between atoms: C_6  and  N_7 
REMARK       I    between atoms: N_7  and  C_8 
REMARK    3  A    between atoms: C_8  and  C_9 
REMARK       I    between atoms: C_9  and  N_10 
REMARK    4  A    between atoms: N_10  and  C_11 
REMARK    5  A    between atoms: C_11  and  C_12 
REMARK    6  A    between atoms: C_12  and  O_13 
REMARK    7  A    between atoms: C_12  and  C_14 
ROOT
HETATM    1  C   UNL     1      41.529 -11.784   6.258  1.00  0.00     0.309 C 
HETATM    2  N   UNL     1      41.754 -13.118   6.492  1.00  0.00    -0.350 N 
HETATM    3  O   UNL     1      41.444 -11.241   5.164  1.00  0.00    -0.262 OA
HETATM    4  H   UNL     1      41.991 -13.376   7.450  1.00  0.00     0.163 HD
ENDROOT
BRANCH   1   5
HETATM    5  C   UNL     1      41.432 -10.934   7.544  1.00  0.00     0.313 C 
HETATM    6  N   UNL     1      40.449 -11.396   8.393  1.00  0.00    -0.319 N 
HETATM    7  H   UNL     1      39.956 -12.220   8.051  1.00  0.00     0.169 HD
HETATM    8  O   UNL     1      42.168  -9.965   7.670  1.00  0.00    -0.262 OA
BRANCH   6   9
HETATM    9  C   UNL     1      40.018 -10.823   9.601  1.00  0.00     0.037 A 
HETATM   10  C   UNL     1      40.658 -11.026  10.827  1.00  0.00     0.059 A 
HETATM   11  C   UNL     1      40.227 -10.372  11.991  1.00  0.00     0.036 A 
HETATM   12  C   UNL     1      39.105  -9.549  11.924  1.00  0.00     0.029 A 
HETATM   13  C   UNL     1      38.441  -9.359  10.709  1.00  0.00     0.004 A 
HETATM   14  C   UNL     1      38.899  -9.989   9.552  1.00  0.00     0.029 A 
BRANCH  11  15
HETATM   15  N   UNL     1      40.949 -10.642  13.167  1.00  0.00    -0.327 N 
HETATM   16  C   UNL     1      42.047 -10.067  13.732  1.00  0.00     0.218 C 
HETATM   17  C   UNL     1      42.884  -9.079  12.969  1.00  0.00     0.117 C 
HETATM   18  O   UNL     1      42.379 -10.416  14.869  1.00  0.00    -0.274 OA
HETATM   19  H   UNL     1      40.625 -11.429  13.720  1.00  0.00     0.169 HD
ENDBRANCH  11  15
ENDBRANCH   6   9
ENDBRANCH   1   5
BRANCH   2  20
HETATM   20  C   UNL     1      42.134 -14.036   5.433  1.00  0.00     0.159 C 
BRANCH  20  21
HETATM   21  C   UNL     1      41.291 -15.322   5.470  1.00  0.00     0.171 C 
BRANCH  21  22
HETATM   22  O   UNL     1      40.285 -15.178   6.486  1.00  0.00    -0.389 OA
HETATM   23  H   UNL     1      40.156 -16.069   6.856  1.00  0.00     0.210 HD
ENDBRANCH  21  22
BRANCH  21  24
HETATM   24  C   UNL     1      42.130 -16.540   5.706  1.00  0.00     0.000 A 
HETATM   25  C   UNL     1      42.695 -17.388   4.699  1.00  0.00     0.001 A 
HETATM   26  C   UNL     1      43.405 -18.405   5.347  1.00  0.00     0.044 A 
HETATM   27  C   UNL     1      42.663 -17.374   3.289  1.00  0.00     0.014 A 
HETATM   28  C   UNL     1      44.075 -19.411   4.631  1.00  0.00     0.030 A 
HETATM   29  N   UNL     1      43.282 -18.176   6.701  1.00  0.00    -0.360 N 
HETATM   30  C   UNL     1      44.025 -19.375   3.234  1.00  0.00     0.002 A 
HETATM   31  C   UNL     1      43.331 -18.370   2.570  1.00  0.00     0.001 A 
HETATM   32  C   UNL     1      43.860 -18.968   7.765  1.00  0.00     0.155 C 
HETATM   33  C   UNL     1      42.519 -17.061   6.926  1.00  0.00     0.101 A 
ENDBRANCH  21  24
ENDBRANCH  20  21
ENDBRANCH   2  20
TORSDOF 7
ENDMDL
MODEL 8
REMARK VINA RESULT:      -8.6      5.617      8.292
REMARK  7 active torsions:
REMARK  status: ('A' for Active; 'I' for Inactive)
REMARK       I    between atoms: C_2  and  N_3 
REMARK    1  A    between atoms: N_3  and  C_4 
REMARK    2  A    between atoms: C_6  and  N_7 
REMARK       I    between atoms: N_7  and  C_8 
REMARK    3  A    between atoms: C_8  and  C_9 
REMARK       I    between atoms: C_9  and  N_10 
REMARK    4  A    between atoms: N_10  and  C_11 
REMARK    5  A    between atoms: C_11  and  C_12 
REMARK    6  A    between atoms: C_12  and  O_13 
REMARK    7  A    between atoms: C_12  and  C_14 
ROOT
HETATM    1  C   UNL     1      40.898 -16.128   6.262  1.00  0.00     0.309 C 
HETATM    2  N   UNL     1      42.162 -16.016   6.785  1.00  0.00    -0.350 N 
HETATM    3  O   UNL     1      40.115 -17.052   6.444  1.00  0.00    -0.262 OA
HETATM    4  H   UNL     1      42.754 -15.288   6.384  1.00  0.00     0.163 HD
ENDROOT
BRANCH   1   5
HETATM    5  C   UNL     1      40.507 -14.966   5.322  1.00  0.00     0.313 C 
HETATM    6  N   UNL     1      40.195 -15.413   4.055  1.00  0.00    -0.319 N 
HETATM    7  H   UNL     1      40.258 -16.423   3.941  1.00  0.00     0.169 HD
HETATM    8  O   UNL     1      40.541 -13.822   5.751  1.00  0.00    -0.262 OA
BRANCH   6   9
HETATM    9  C   UNL     1      39.887 -14.639   2.924  1.00  0.00     0.037 A 
HETATM   10  C   UNL     1      40.055 -15.086   1.610  1.00  0.00     0.059 A 
HETATM   11  C   UNL     1      39.665 -14.298   0.517  1.00  0.00     0.036 A 
HETATM   12  C   UNL     1      39.152 -13.024   0.754  1.00  0.00     0.029 A 
HETATM   13  C   UNL     1      39.004 -12.557   2.063  1.00  0.00     0.004 A 
HETATM   14  C   UNL     1      39.365 -13.363   3.142  1.00  0.00     0.029 A 
BRANCH  11  15
HETATM   15  N   UNL     1      39.871 -14.849  -0.761  1.00  0.00    -0.327 N 
HETATM   16  C   UNL     1      40.860 -14.699  -1.685  1.00  0.00     0.218 C 
HETATM   17  C   UNL     1      41.889 -13.612  -1.550  1.00  0.00     0.117 C 
HETATM   18  O   UNL     1      40.863 -15.439  -2.673  1.00  0.00    -0.274 OA
HETATM   19  H   UNL     1      39.148 -15.475  -1.099  1.00  0.00     0.169 HD
ENDBRANCH  11  15
ENDBRANCH   6   9
ENDBRANCH   1   5
BRANCH   2  20
HETATM   20  C   UNL     1      42.816 -17.115   7.473  1.00  0.00     0.159 C 
BRANCH  20  21
HETATM   21  C   UNL     1      44.240 -17.348   6.940  1.00  0.00     0.171 C 
BRANCH  21  22
HETATM   22  O   UNL     1      44.778 -16.088   6.510  1.00  0.00    -0.389 OA
HETATM   23  H   UNL     1      44.185 -15.777   5.803  1.00  0.00     0.210 HD
ENDBRANCH  21  22
BRANCH  21  24
HETATM   24  C   UNL     1      44.269 -18.357   5.833  1.00  0.00     0.000 A 
HETATM   25  C   UNL     1      43.946 -18.116   4.458  1.00  0.00     0.001 A 
HETATM   26  C   UNL     1      44.103 -19.323   3.766  1.00  0.00     0.044 A 
HETATM   27  C   UNL     1      43.535 -16.972   3.744  1.00  0.00     0.014 A 
HETATM   28  C   UNL     1      43.854 -19.421   2.387  1.00  0.00     0.030 A 
HETATM   29  N   UNL     1      44.516 -20.260   4.688  1.00  0.00    -0.360 N 
HETATM   30  C   UNL     1      43.445 -18.272   1.704  1.00  0.00     0.002 A 
HETATM   31  C   UNL     1      43.289 -17.062   2.370  1.00  0.00     0.001 A 
HETATM   32  C   UNL     1      44.814 -21.652   4.427  1.00  0.00     0.155 C 
HETATM   33  C   UNL     1      44.617 -19.691   5.930  1.00  0.00     0.101 A 
ENDBRANCH  21  24
ENDBRANCH  20  21
ENDBRANCH   2  20
TORSDOF 7
ENDMDL
MODEL 9
REMARK VINA RESULT:      -8.6      7.757     10.720
REMARK  7 active torsions:
REMARK  status: ('A' for Active; 'I' for Inactive)
REMARK       I    between atoms: C_2  and  N_3 
REMARK    1  A    between atoms: N_3  and  C_4 
REMARK    2  A    between atoms: C_6  and  N_7 
REMARK       I    between atoms: N_7  and  C_8 
REMARK    3  A    between atoms: C_8  and  C_9 
REMARK       I    between atoms: C_9  and  N_10 
REMARK    4  A    between atoms: N_10  and  C_11 
REMARK    5  A    between atoms: C_11  and  C_12 
REMARK    6  A    between atoms: C_12  and  O_13 
REMARK    7  A    between atoms: C_12  and  C_14 
ROOT
HETATM    1  C   UNL     1      40.079 -15.534   1.638  1.00  0.00     0.309 C 
HETATM    2  N   UNL     1      40.792 -16.444   0.897  1.00  0.00    -0.350 N 
HETATM    3  O   UNL     1      40.056 -15.450   2.859  1.00  0.00    -0.262 OA
HETATM    4  H   UNL     1      40.554 -16.507  -0.092  1.00  0.00     0.163 HD
ENDROOT
BRANCH   1   5
HETATM    5  C   UNL     1      39.206 -14.586   0.788  1.00  0.00     0.313 C 
HETATM    6  N   UNL     1      39.667 -14.486  -0.508  1.00  0.00    -0.319 N 
HETATM    7  H   UNL     1      40.491 -15.052  -0.702  1.00  0.00     0.169 HD
HETATM    8  O   UNL     1      38.262 -14.017   1.317  1.00  0.00    -0.262 OA
BRANCH   6   9
HETATM    9  C   UNL     1      39.183 -13.652  -1.529  1.00  0.00     0.037 A 
HETATM   10  C   UNL     1      39.757 -12.420  -1.861  1.00  0.00     0.059 A 
HETATM   11  C   UNL     1      39.276 -11.660  -2.938  1.00  0.00     0.036 A 
HETATM   12  C   UNL     1      38.171 -12.123  -3.650  1.00  0.00     0.029 A 
HETATM   13  C   UNL     1      37.574 -13.340  -3.310  1.00  0.00     0.004 A 
HETATM   14  C   UNL     1      38.082 -14.103  -2.258  1.00  0.00     0.029 A 
BRANCH  11  15
HETATM   15  N   UNL     1      39.932 -10.442  -3.189  1.00  0.00    -0.327 N 
HETATM   16  C   UNL     1      41.038 -10.118  -3.916  1.00  0.00     0.218 C 
HETATM   17  C   UNL     1      41.962 -11.183  -4.437  1.00  0.00     0.117 C 
HETATM   18  O   UNL     1      41.302  -8.926  -4.092  1.00  0.00    -0.274 OA
HETATM   19  H   UNL     1      39.540  -9.622  -2.738  1.00  0.00     0.169 HD
ENDBRANCH  11  15
ENDBRANCH   6   9
ENDBRANCH   1   5
BRANCH   2  20
HETATM   20  C   UNL     1      41.463 -17.581   1.503  1.00  0.00     0.159 C 
BRANCH  20  21
HETATM   21  C   UNL     1      42.963 -17.308   1.707  1.00  0.00     0.171 C 
BRANCH  21  22
HETATM   22  O   UNL     1      43.641 -17.539   0.461  1.00  0.00    -0.389 OA
HETATM   23  H   UNL     1      44.555 -17.773   0.700  1.00  0.00     0.210 HD
ENDBRANCH  21  22
BRANCH  21  24
HETATM   24  C   UNL     1      43.544 -18.145   2.805  1.00  0.00     0.000 A 
HETATM   25  C   UNL     1      43.814 -19.551   2.746  1.00  0.00     0.001 A 
HETATM   26  C   UNL     1      44.353 -19.933   3.981  1.00  0.00     0.044 A 
HETATM   27  C   UNL     1      43.647 -20.531   1.745  1.00  0.00     0.014 A 
HETATM   28  C   UNL     1      44.720 -21.262   4.247  1.00  0.00     0.030 A 
HETATM   29  N   UNL     1      44.415 -18.796   4.757  1.00  0.00    -0.360 N 
HETATM   30  C   UNL     1      44.541 -22.214   3.238  1.00  0.00     0.002 A 
HETATM   31  C   UNL     1      44.014 -21.855   2.002  1.00  0.00     0.001 A 
HETATM   32  C   UNL     1      44.914 -18.704   6.112  1.00  0.00     0.155 C 
HETATM   33  C   UNL     1      43.932 -17.719   4.061  1.00  0.00     0.101 A 
ENDBRANCH  21  24
ENDBRANCH  20  21
ENDBRANCH   2  20
TORSDOF 7
ENDMDL
MODEL 10
REMARK VINA RESULT:      -8.6      7.726     11.364
REMARK  7 active torsions:
REMARK  status: ('A' for Active; 'I' for Inactive)
REMARK       I    between atoms: C_2  and  N_3 
REMARK    1  A    between atoms: N_3  and  C_4 
REMARK    2  A    between atoms: C_6  and  N_7 
REMARK       I    between atoms: N_7  and  C_8 
REMARK    3  A    between atoms: C_8  and  C_9 
REMARK       I    between atoms: C_9  and  N_10 
REMARK    4  A    between atoms: N_10  and  C_11 
REMARK    5  A    between atoms: C_11  and  C_12 
REMARK    6  A    between atoms: C_12  and  O_13 
REMARK    7  A    between atoms: C_12  and  C_14 
ROOT
HETATM    1  C   UNL     1      41.383 -15.474  -0.805  1.00  0.00     0.309 C 
HETATM    2  N   UNL     1      42.061 -15.564   0.385  1.00  0.00    -0.350 N 
HETATM    3  O   UNL     1      40.988 -16.409  -1.490  1.00  0.00    -0.262 OA
HETATM    4  H   UNL     1      42.487 -14.704   0.729  1.00  0.00     0.163 HD
ENDROOT
BRANCH   1   5
HETATM    5  C   UNL     1      41.174 -14.024  -1.295  1.00  0.00     0.313 C 
HETATM    6  N   UNL     1      42.262 -13.560  -2.004  1.00  0.00    -0.319 N 
HETATM    7  H   UNL     1      43.016 -14.238  -2.103  1.00  0.00     0.169 HD
HETATM    8  O   UNL     1      40.141 -13.442  -0.997  1.00  0.00    -0.262 OA
BRANCH   6   9
HETATM    9  C   UNL     1      42.465 -12.268  -2.517  1.00  0.00     0.037 A 
HETATM   10  C   UNL     1      42.323 -11.940  -3.869  1.00  0.00     0.059 A 
HETATM   11  C   UNL     1      42.468 -10.618  -4.317  1.00  0.00     0.036 A 
HETATM   12  C   UNL     1      42.813  -9.630  -3.398  1.00  0.00     0.029 A 
HETATM   13  C   UNL     1      42.982  -9.951  -2.048  1.00  0.00     0.004 A 
HETATM   14  C   UNL     1      42.803 -11.262  -1.610  1.00  0.00     0.029 A 
BRANCH  11  15
HETATM   15  N   UNL     1      42.296 -10.401  -5.696  1.00  0.00    -0.327 N 
HETATM   16  C   UNL     1      41.228 -10.007  -6.444  1.00  0.00     0.218 C 
HETATM   17  C   UNL     1      39.845  -9.959  -5.858  1.00  0.00     0.117 C 
HETATM   18  O   UNL     1      41.407  -9.743  -7.637  1.00  0.00    -0.274 OA
HETATM   19  H   UNL     1      43.104 -10.582  -6.281  1.00  0.00     0.169 HD
ENDBRANCH  11  15
ENDBRANCH   6   9
ENDBRANCH   1   5
BRANCH   2  20
HETATM   20  C   UNL     1      42.585 -16.823   0.885  1.00  0.00     0.159 C 
BRANCH  20  21
HETATM   21  C   UNL     1      41.960 -17.199   2.238  1.00  0.00     0.171 C 
BRANCH  21  22
HETATM   22  O   UNL     1      41.530 -15.994   2.891  1.00  0.00    -0.389 OA
HETATM   23  H   UNL     1      42.244 -15.349   2.749  1.00  0.00     0.210 HD
ENDBRANCH  21  22
BRANCH  21  24
HETATM   24  C   UNL     1      42.906 -17.976   3.101  1.00  0.00     0.000 A 
HETATM   25  C   UNL     1      43.369 -19.311   2.862  1.00  0.00     0.001 A 
HETATM   26  C   UNL     1      44.236 -19.654   3.906  1.00  0.00     0.044 A 
HETATM   27  C   UNL     1      43.123 -20.256   1.844  1.00  0.00     0.014 A 
HETATM   28  C   UNL     1      44.857 -20.913   3.967  1.00  0.00     0.030 A 
HETATM   29  N   UNL     1      44.304 -18.562   4.743  1.00  0.00    -0.360 N 
HETATM   30  C   UNL     1      44.594 -21.832   2.946  1.00  0.00     0.002 A 
HETATM   31  C   UNL     1      43.741 -21.509   1.897  1.00  0.00     0.001 A 
HETATM   32  C   UNL     1      45.088 -18.451   5.953  1.00  0.00     0.155 C 
HETATM   33  C   UNL     1      43.509 -17.551   4.269  1.00  0.00     0.101 A 
ENDBRANCH  21  24
ENDBRANCH  20  21
ENDBRANCH   2  20
TORSDOF 7
ENDMDL
