MODEL 1
REMARK VINA RESULT:      -9.1      0.000      0.000
REMARK  7 active torsions:
REMARK  status: ('A' for Active; 'I' for Inactive)
REMARK    1  A    between atoms: C_6  and  N_7 
REMARK       I    between atoms: N_7  and  C_8 
REMARK       I    between atoms: C_8  and  N_9 
REMARK    2  A    between atoms: N_9  and  C_10 
REMARK    3  A    between atoms: C_10  and  C_11 
REMARK    4  A    between atoms: C_11  and  C_12 
REMARK    5  A    between atoms: C_12  and  C_13 
REMARK    6  A    between atoms: C_13  and  O_14 
REMARK    7  A    between atoms: O_14  and  C_15 
ROOT
HETATM    1  C   UNL     1      43.488 -14.540   6.193  1.00  0.00     0.219 C 
ENDROOT
BRANCH   1   2
HETATM    2  N   UNL     1      43.207 -15.811   6.814  1.00  0.00    -0.332 N 
HETATM    3  C   UNL     1      43.312 -17.088   6.362  1.00  0.00     0.321 C 
HETATM    4  N   UNL     1      43.657 -17.245   5.050  1.00  0.00    -0.309 N 
HETATM    5  O   UNL     1      43.100 -17.984   7.173  1.00  0.00    -0.247 OA
HETATM    6  H   UNL     1      43.644 -16.420   4.477  1.00  0.00     0.170 HD
HETATM    7  H   UNL     1      42.923 -15.786   7.786  1.00  0.00     0.165 HD
BRANCH   4   8
HETATM    8  C   UNL     1      43.897 -18.451   4.355  1.00  0.00     0.036 A 
HETATM    9  C   UNL     1      44.395 -19.614   4.946  1.00  0.00     0.037 A 
HETATM   10  C   UNL     1      44.605 -20.786   4.194  1.00  0.00    -0.054 A 
HETATM   11  C   UNL     1      44.298 -20.794   2.821  1.00  0.00    -0.056 A 
HETATM   12  C   UNL     1      45.104 -22.020   4.897  1.00  0.00     0.049 C 
HETATM   13  C   UNL     1      44.493 -22.021   1.975  1.00  0.00     0.049 C 
HETATM   14  C   UNL     1      43.816 -19.620   2.227  1.00  0.00     0.009 A 
HETATM   15  C   UNL     1      43.615 -18.464   2.986  1.00  0.00     0.030 A 
ENDBRANCH   4   8
ENDBRANCH   1   2
BRANCH   1  16
HETATM   16  C   UNL     1      44.357 -13.717   7.129  1.00  0.00    -0.085 C 
BRANCH  16  17
HETATM   17  C   UNL     1      45.103 -13.011   7.932  1.00  0.00    -0.078 C 
BRANCH  17  18
HETATM   18  C   UNL     1      45.972 -12.188   8.870  1.00  0.00     0.269 C 
BRANCH  18  19
HETATM   19  O   UNL     1      45.315 -10.966   9.188  1.00  0.00    -0.339 OA
BRANCH  19  20
HETATM   20  C   UNL     1      44.308 -11.050  10.114  1.00  0.00     0.072 A 
HETATM   21  C   UNL     1      43.091 -10.488   9.717  1.00  0.00     0.069 A 
HETATM   22  C   UNL     1      41.971 -10.497  10.539  1.00  0.00     0.069 A 
HETATM   23  C   UNL     1      42.076 -11.114  11.803  1.00  0.00    -0.007 A 
HETATM   24  N   UNL     1      40.830  -9.922  10.118  1.00  0.00    -0.260 NA
HETATM   25  C   UNL     1      43.288 -11.698  12.203  1.00  0.00     0.016 A 
HETATM   26  C   UNL     1      40.947 -11.127  12.630  1.00  0.00     0.015 A 
HETATM   27  C   UNL     1      44.401 -11.663  11.361  1.00  0.00     0.038 A 
HETATM   28  C   UNL     1      39.768 -10.534  12.195  1.00  0.00     0.020 A 
HETATM   29  C   UNL     1      39.761  -9.949  10.945  1.00  0.00     0.117 A 
ENDBRANCH  19  20
ENDBRANCH  18  19
ENDBRANCH  17  18
ENDBRANCH  16  17
ENDBRANCH   1  16
TORSDOF 7
ENDMDL
MODEL 2
REMARK VINA RESULT:      -8.9      1.796      2.598
REMARK  7 active torsions:
REMARK  status: ('A' for Active; 'I' for Inactive)
REMARK    1  A    between atoms: C_6  and  N_7 
REMARK       I    between atoms: N_7  and  C_8 
REMARK       I    between atoms: C_8  and  N_9 
REMARK    2  A    between atoms: N_9  and  C_10 
REMARK    3  A    between atoms: C_10  and  C_11 
REMARK    4  A    between atoms: C_11  and  C_12 
REMARK    5  A    between atoms: C_12  and  C_13 
REMARK    6  A    between atoms: C_13  and  O_14 
REMARK    7  A    between atoms: O_14  and  C_15 
ROOT
HETATM    1  C   UNL     1      43.287 -14.115   3.208  1.00  0.00     0.219 C 
ENDROOT
BRANCH   1   2
HETATM    2  N   UNL     1      42.281 -15.128   2.997  1.00  0.00    -0.332 N 
HETATM    3  C   UNL     1      42.322 -16.484   3.084  1.00  0.00     0.321 C 
HETATM    4  N   UNL     1      43.545 -17.043   3.325  1.00  0.00    -0.309 N 
HETATM    5  O   UNL     1      41.259 -17.081   2.952  1.00  0.00    -0.247 OA
HETATM    6  H   UNL     1      44.342 -16.436   3.253  1.00  0.00     0.170 HD
HETATM    7  H   UNL     1      41.346 -14.800   2.792  1.00  0.00     0.165 HD
BRANCH   4   8
HETATM    8  C   UNL     1      43.849 -18.407   3.525  1.00  0.00     0.036 A 
HETATM    9  C   UNL     1      43.806 -19.379   2.524  1.00  0.00     0.037 A 
HETATM   10  C   UNL     1      44.128 -20.723   2.792  1.00  0.00    -0.054 A 
HETATM   11  C   UNL     1      44.511 -21.099   4.093  1.00  0.00    -0.056 A 
HETATM   12  C   UNL     1      44.103 -21.716   1.659  1.00  0.00     0.049 C 
HETATM   13  C   UNL     1      44.875 -22.518   4.430  1.00  0.00     0.049 C 
HETATM   14  C   UNL     1      44.535 -20.126   5.100  1.00  0.00     0.009 A 
HETATM   15  C   UNL     1      44.211 -18.796   4.818  1.00  0.00     0.030 A 
ENDBRANCH   4   8
ENDBRANCH   1   2
BRANCH   1  16
HETATM   16  C   UNL     1      43.698 -14.128   4.671  1.00  0.00    -0.085 C 
BRANCH  16  17
HETATM   17  C   UNL     1      44.049 -14.140   5.927  1.00  0.00    -0.078 C 
BRANCH  17  18
HETATM   18  C   UNL     1      44.460 -14.153   7.390  1.00  0.00     0.269 C 
BRANCH  18  19
HETATM   19  O   UNL     1      45.343 -13.067   7.652  1.00  0.00    -0.339 OA
BRANCH  19  20
HETATM   20  C   UNL     1      45.032 -12.290   8.736  1.00  0.00     0.072 A 
HETATM   21  C   UNL     1      43.776 -11.678   8.686  1.00  0.00     0.069 A 
HETATM   22  C   UNL     1      43.310 -10.863   9.710  1.00  0.00     0.069 A 
HETATM   23  C   UNL     1      44.135 -10.673  10.839  1.00  0.00    -0.007 A 
HETATM   24  N   UNL     1      42.102 -10.280   9.602  1.00  0.00    -0.260 NA
HETATM   25  C   UNL     1      45.389 -11.297  10.907  1.00  0.00     0.016 A 
HETATM   26  C   UNL     1      43.663  -9.855  11.873  1.00  0.00     0.015 A 
HETATM   27  C   UNL     1      45.837 -12.101   9.858  1.00  0.00     0.038 A 
HETATM   28  C   UNL     1      42.416  -9.253  11.762  1.00  0.00     0.020 A 
HETATM   29  C   UNL     1      41.682  -9.494  10.617  1.00  0.00     0.117 A 
ENDBRANCH  19  20
ENDBRANCH  18  19
ENDBRANCH  17  18
ENDBRANCH  16  17
ENDBRANCH   1  16
TORSDOF 7
ENDMDL
MODEL 3
REMARK VINA RESULT:      -8.9      4.751      6.079
REMARK  7 active torsions:
REMARK  status: ('A' for Active; 'I' for Inactive)
REMARK    1  A    between atoms: C_6  and  N_7 
REMARK       I    between atoms: N_7  and  C_8 
REMARK       I    between atoms: C_8  and  N_9 
REMARK    2  A    between atoms: N_9  and  C_10 
REMARK    3  A    between atoms: C_10  and  C_11 
REMARK    4  A    between atoms: C_11  and  C_12 
REMARK    5  A    between atoms: C_12  and  C_13 
REMARK    6  A    between atoms: C_13  and  O_14 
REMARK    7  A    between atoms: O_14  and  C_15 
ROOT
HETATM    1  C   UNL     1      41.672 -14.809  -0.174  1.00  0.00     0.219 C 
ENDROOT
BRANCH   1   2
HETATM    2  N   UNL     1      40.977 -16.044   0.098  1.00  0.00    -0.332 N 
HETATM    3  C   UNL     1      41.332 -17.154   0.797  1.00  0.00     0.321 C 
HETATM    4  N   UNL     1      42.611 -17.191   1.274  1.00  0.00    -0.309 N 
HETATM    5  O   UNL     1      40.471 -18.015   0.948  1.00  0.00    -0.247 OA
HETATM    6  H   UNL     1      43.241 -16.486   0.936  1.00  0.00     0.170 HD
HETATM    7  H   UNL     1      40.025 -16.110  -0.239  1.00  0.00     0.165 HD
BRANCH   4   8
HETATM    8  C   UNL     1      43.207 -18.187   2.079  1.00  0.00     0.036 A 
HETATM    9  C   UNL     1      43.484 -19.485   1.649  1.00  0.00     0.037 A 
HETATM   10  C   UNL     1      44.086 -20.429   2.505  1.00  0.00    -0.054 A 
HETATM   11  C   UNL     1      44.427 -20.056   3.818  1.00  0.00    -0.056 A 
HETATM   12  C   UNL     1      44.398 -21.801   1.968  1.00  0.00     0.049 C 
HETATM   13  C   UNL     1      45.081 -21.021   4.768  1.00  0.00     0.049 C 
HETATM   14  C   UNL     1      44.130 -18.758   4.253  1.00  0.00     0.009 A 
HETATM   15  C   UNL     1      43.531 -17.835   3.393  1.00  0.00     0.030 A 
ENDBRANCH   4   8
ENDBRANCH   1   2
BRANCH   1  16
HETATM   16  C   UNL     1      41.457 -13.858   0.993  1.00  0.00    -0.085 C 
BRANCH  16  17
HETATM   17  C   UNL     1      41.274 -13.043   1.994  1.00  0.00    -0.078 C 
BRANCH  17  18
HETATM   18  C   UNL     1      41.060 -12.092   3.160  1.00  0.00     0.269 C 
BRANCH  18  19
HETATM   19  O   UNL     1      40.657 -12.826   4.312  1.00  0.00    -0.339 OA
BRANCH  19  20
HETATM   20  C   UNL     1      41.637 -13.555   4.932  1.00  0.00     0.072 A 
HETATM   21  C   UNL     1      41.209 -14.759   5.499  1.00  0.00     0.069 A 
HETATM   22  C   UNL     1      42.082 -15.616   6.158  1.00  0.00     0.069 A 
HETATM   23  C   UNL     1      43.443 -15.254   6.232  1.00  0.00    -0.007 A 
HETATM   24  N   UNL     1      41.615 -16.753   6.706  1.00  0.00    -0.260 NA
HETATM   25  C   UNL     1      43.886 -14.056   5.650  1.00  0.00     0.016 A 
HETATM   26  C   UNL     1      44.324 -16.119   6.893  1.00  0.00     0.015 A 
HETATM   27  C   UNL     1      42.984 -13.209   5.004  1.00  0.00     0.038 A 
HETATM   28  C   UNL     1      43.842 -17.293   7.458  1.00  0.00     0.020 A 
HETATM   29  C   UNL     1      42.493 -17.561   7.340  1.00  0.00     0.117 A 
ENDBRANCH  19  20
ENDBRANCH  18  19
ENDBRANCH  17  18
ENDBRANCH  16  17
ENDBRANCH   1  16
TORSDOF 7
ENDMDL
MODEL 4
REMARK VINA RESULT:      -8.9      2.074     10.852
REMARK  7 active torsions:
REMARK  status: ('A' for Active; 'I' for Inactive)
REMARK    1  A    between atoms: C_6  and  N_7 
REMARK       I    between atoms: N_7  and  C_8 
REMARK       I    between atoms: C_8  and  N_9 
REMARK    2  A    between atoms: N_9  and  C_10 
REMARK    3  A    between atoms: C_10  and  C_11 
REMARK    4  A    between atoms: C_11  and  C_12 
REMARK    5  A    between atoms: C_12  and  C_13 
REMARK    6  A    between atoms: C_13  and  O_14 
REMARK    7  A    between atoms: O_14  and  C_15 
ROOT
HETATM    1  C   UNL     1      44.697 -14.005   7.798  1.00  0.00     0.219 C 
ENDROOT
BRANCH   1   2
HETATM    2  N   UNL     1      45.393 -12.780   8.106  1.00  0.00    -0.332 N 
HETATM    3  C   UNL     1      45.049 -11.703   8.861  1.00  0.00     0.321 C 
HETATM    4  N   UNL     1      43.782 -11.693   9.370  1.00  0.00    -0.309 N 
HETATM    5  O   UNL     1      45.909 -10.844   9.028  1.00  0.00    -0.247 OA
HETATM    6  H   UNL     1      43.147 -12.387   9.017  1.00  0.00     0.170 HD
HETATM    7  H   UNL     1      46.336 -12.693   7.749  1.00  0.00     0.165 HD
BRANCH   4   8
HETATM    8  C   UNL     1      43.201 -10.737  10.231  1.00  0.00     0.036 A 
HETATM    9  C   UNL     1      43.588 -10.535  11.557  1.00  0.00     0.037 A 
HETATM   10  C   UNL     1      42.969  -9.557  12.361  1.00  0.00    -0.054 A 
HETATM   11  C   UNL     1      41.947  -8.758  11.817  1.00  0.00    -0.056 A 
HETATM   12  C   UNL     1      43.460  -9.360  13.771  1.00  0.00     0.049 C 
HETATM   13  C   UNL     1      41.262  -7.693  12.628  1.00  0.00     0.049 C 
HETATM   14  C   UNL     1      41.548  -8.975  10.492  1.00  0.00     0.009 A 
HETATM   15  C   UNL     1      42.170  -9.950   9.709  1.00  0.00     0.030 A 
ENDBRANCH   4   8
ENDBRANCH   1   2
BRANCH   1  16
HETATM   16  C   UNL     1      44.328 -14.004   6.324  1.00  0.00    -0.085 C 
BRANCH  16  17
HETATM   17  C   UNL     1      44.011 -14.002   5.059  1.00  0.00    -0.078 C 
BRANCH  17  18
HETATM   18  C   UNL     1      43.643 -14.000   3.584  1.00  0.00     0.269 C 
BRANCH  18  19
HETATM   19  O   UNL     1      42.653 -14.992   3.334  1.00  0.00    -0.339 OA
BRANCH  19  20
HETATM   20  C   UNL     1      43.121 -16.240   3.014  1.00  0.00     0.072 A 
HETATM   21  C   UNL     1      43.359 -17.080   4.106  1.00  0.00     0.069 A 
HETATM   22  C   UNL     1      43.828 -18.378   3.950  1.00  0.00     0.069 A 
HETATM   23  C   UNL     1      44.049 -18.855   2.641  1.00  0.00    -0.007 A 
HETATM   24  N   UNL     1      44.062 -19.138   5.036  1.00  0.00    -0.260 NA
HETATM   25  C   UNL     1      43.795 -18.026   1.538  1.00  0.00     0.016 A 
HETATM   26  C   UNL     1      44.518 -20.164   2.483  1.00  0.00     0.015 A 
HETATM   27  C   UNL     1      43.335 -16.721   1.725  1.00  0.00     0.038 A 
HETATM   28  C   UNL     1      44.759 -20.949   3.604  1.00  0.00     0.020 A 
HETATM   29  C   UNL     1      44.520 -20.395   4.846  1.00  0.00     0.117 A 
ENDBRANCH  19  20
ENDBRANCH  18  19
ENDBRANCH  17  18
ENDBRANCH  16  17
ENDBRANCH   1  16
TORSDOF 7
ENDMDL
MODEL 5
REMARK VINA RESULT:      -8.8      1.867     11.409
REMARK  7 active torsions:
REMARK  status: ('A' for Active; 'I' for Inactive)
REMARK    1  A    between atoms: C_6  and  N_7 
REMARK       I    between atoms: N_7  and  C_8 
REMARK       I    between atoms: C_8  and  N_9 
REMARK    2  A    between atoms: N_9  and  C_10 
REMARK    3  A    between atoms: C_10  and  C_11 
REMARK    4  A    between atoms: C_11  and  C_12 
REMARK    5  A    between atoms: C_12  and  C_13 
REMARK    6  A    between atoms: C_13  and  O_14 
REMARK    7  A    between atoms: O_14  and  C_15 
ROOT
HETATM    1  C   UNL     1      44.956 -13.318   7.988  1.00  0.00     0.219 C 
ENDROOT
BRANCH   1   2
HETATM    2  N   UNL     1      44.073 -12.182   7.887  1.00  0.00    -0.332 N 
HETATM    3  C   UNL     1      43.464 -11.415   8.830  1.00  0.00     0.321 C 
HETATM    4  N   UNL     1      43.613 -11.813  10.128  1.00  0.00    -0.309 N 
HETATM    5  O   UNL     1      42.847 -10.432   8.433  1.00  0.00    -0.247 OA
HETATM    6  H   UNL     1      44.012 -12.722  10.281  1.00  0.00     0.170 HD
HETATM    7  H   UNL     1      43.891 -11.832   6.954  1.00  0.00     0.165 HD
BRANCH   4   8
HETATM    8  C   UNL     1      43.144 -11.164  11.291  1.00  0.00     0.036 A 
HETATM    9  C   UNL     1      41.843 -11.276  11.785  1.00  0.00     0.037 A 
HETATM   10  C   UNL     1      41.443 -10.605  12.957  1.00  0.00    -0.054 A 
HETATM   11  C   UNL     1      42.373  -9.812  13.654  1.00  0.00    -0.056 A 
HETATM   12  C   UNL     1      40.037 -10.800  13.461  1.00  0.00     0.049 C 
HETATM   13  C   UNL     1      42.000  -9.083  14.916  1.00  0.00     0.049 C 
HETATM   14  C   UNL     1      43.673  -9.686  13.146  1.00  0.00     0.009 A 
HETATM   15  C   UNL     1      44.053 -10.357  11.981  1.00  0.00     0.030 A 
ENDBRANCH   4   8
ENDBRANCH   1   2
BRANCH   1  16
HETATM   16  C   UNL     1      44.342 -14.486   7.233  1.00  0.00    -0.085 C 
BRANCH  16  17
HETATM   17  C   UNL     1      43.816 -15.487   6.585  1.00  0.00    -0.078 C 
BRANCH  17  18
HETATM   18  C   UNL     1      43.203 -16.656   5.829  1.00  0.00     0.269 C 
BRANCH  18  19
HETATM   19  O   UNL     1      43.556 -16.577   4.452  1.00  0.00    -0.339 OA
BRANCH  19  20
HETATM   20  C   UNL     1      43.716 -17.773   3.805  1.00  0.00     0.072 A 
HETATM   21  C   UNL     1      44.096 -18.842   4.622  1.00  0.00     0.069 A 
HETATM   22  C   UNL     1      44.293 -20.122   4.118  1.00  0.00     0.069 A 
HETATM   23  C   UNL     1      44.080 -20.337   2.740  1.00  0.00    -0.007 A 
HETATM   24  N   UNL     1      44.681 -21.111   4.944  1.00  0.00    -0.260 NA
HETATM   25  C   UNL     1      43.680 -19.275   1.916  1.00  0.00     0.016 A 
HETATM   26  C   UNL     1      44.274 -21.628   2.234  1.00  0.00     0.015 A 
HETATM   27  C   UNL     1      43.501 -17.997   2.446  1.00  0.00     0.038 A 
HETATM   28  C   UNL     1      44.674 -22.649   3.086  1.00  0.00     0.020 A 
HETATM   29  C   UNL     1      44.864 -22.343   4.419  1.00  0.00     0.117 A 
ENDBRANCH  19  20
ENDBRANCH  18  19
ENDBRANCH  17  18
ENDBRANCH  16  17
ENDBRANCH   1  16
TORSDOF 7
ENDMDL
MODEL 6
REMARK VINA RESULT:      -8.5      2.086     10.485
REMARK  7 active torsions:
REMARK  status: ('A' for Active; 'I' for Inactive)
REMARK    1  A    between atoms: C_6  and  N_7 
REMARK       I    between atoms: N_7  and  C_8 
REMARK       I    between atoms: C_8  and  N_9 
REMARK    2  A    between atoms: N_9  and  C_10 
REMARK    3  A    between atoms: C_10  and  C_11 
REMARK    4  A    between atoms: C_11  and  C_12 
REMARK    5  A    between atoms: C_12  and  C_13 
REMARK    6  A    between atoms: C_13  and  O_14 
REMARK    7  A    between atoms: O_14  and  C_15 
ROOT
HETATM    1  C   UNL     1      44.065 -13.874   6.895  1.00  0.00     0.219 C 
ENDROOT
BRANCH   1   2
HETATM    2  N   UNL     1      45.118 -13.280   7.682  1.00  0.00    -0.332 N 
HETATM    3  C   UNL     1      45.093 -12.528   8.815  1.00  0.00     0.321 C 
HETATM    4  N   UNL     1      43.862 -12.166   9.281  1.00  0.00    -0.309 N 
HETATM    5  O   UNL     1      46.176 -12.254   9.322  1.00  0.00    -0.247 OA
HETATM    6  H   UNL     1      43.080 -12.333   8.672  1.00  0.00     0.170 HD
HETATM    7  H   UNL     1      46.067 -13.481   7.394  1.00  0.00     0.165 HD
BRANCH   4   8
HETATM    8  C   UNL     1      43.558 -11.452  10.460  1.00  0.00     0.036 A 
HETATM    9  C   UNL     1      43.213 -10.099  10.494  1.00  0.00     0.037 A 
HETATM   10  C   UNL     1      42.915  -9.449  11.708  1.00  0.00    -0.054 A 
HETATM   11  C   UNL     1      42.955 -10.175  12.912  1.00  0.00    -0.056 A 
HETATM   12  C   UNL     1      42.509  -7.999  11.674  1.00  0.00     0.049 C 
HETATM   13  C   UNL     1      42.636  -9.531  14.233  1.00  0.00     0.049 C 
HETATM   14  C   UNL     1      43.320 -11.527  12.877  1.00  0.00     0.009 A 
HETATM   15  C   UNL     1      43.615 -12.157  11.666  1.00  0.00     0.030 A 
ENDBRANCH   4   8
ENDBRANCH   1   2
BRANCH   1  16
HETATM   16  C   UNL     1      44.210 -15.387   6.943  1.00  0.00    -0.085 C 
BRANCH  16  17
HETATM   17  C   UNL     1      44.336 -16.684   6.984  1.00  0.00    -0.078 C 
BRANCH  17  18
HETATM   18  C   UNL     1      44.480 -18.196   7.031  1.00  0.00     0.269 C 
BRANCH  18  19
HETATM   19  O   UNL     1      43.364 -18.807   6.393  1.00  0.00    -0.339 OA
BRANCH  19  20
HETATM   20  C   UNL     1      43.254 -18.594   5.044  1.00  0.00     0.072 A 
HETATM   21  C   UNL     1      42.136 -17.851   4.652  1.00  0.00     0.069 A 
HETATM   22  C   UNL     1      41.884 -17.544   3.321  1.00  0.00     0.069 A 
HETATM   23  C   UNL     1      42.805 -17.987   2.348  1.00  0.00    -0.007 A 
HETATM   24  N   UNL     1      40.782 -16.845   2.995  1.00  0.00    -0.260 NA
HETATM   25  C   UNL     1      43.939 -18.717   2.733  1.00  0.00     0.016 A 
HETATM   26  C   UNL     1      42.553 -17.673   1.007  1.00  0.00     0.015 A 
HETATM   27  C   UNL     1      44.161 -19.021   4.077  1.00  0.00     0.038 A 
HETATM   28  C   UNL     1      41.416 -16.951   0.670  1.00  0.00     0.020 A 
HETATM   29  C   UNL     1      40.569 -16.565   1.690  1.00  0.00     0.117 A 
ENDBRANCH  19  20
ENDBRANCH  18  19
ENDBRANCH  17  18
ENDBRANCH  16  17
ENDBRANCH   1  16
TORSDOF 7
ENDMDL
MODEL 7
REMARK VINA RESULT:      -8.4      1.894      2.238
REMARK  7 active torsions:
REMARK  status: ('A' for Active; 'I' for Inactive)
REMARK    1  A    between atoms: C_6  and  N_7 
REMARK       I    between atoms: N_7  and  C_8 
REMARK       I    between atoms: C_8  and  N_9 
REMARK    2  A    between atoms: N_9  and  C_10 
REMARK    3  A    between atoms: C_10  and  C_11 
REMARK    4  A    between atoms: C_11  and  C_12 
REMARK    5  A    between atoms: C_12  and  C_13 
REMARK    6  A    between atoms: C_13  and  O_14 
REMARK    7  A    between atoms: O_14  and  C_15 
ROOT
HETATM    1  C   UNL     1      42.888 -13.910   4.743  1.00  0.00     0.219 C 
ENDROOT
BRANCH   1   2
HETATM    2  N   UNL     1      41.876 -14.927   4.588  1.00  0.00    -0.332 N 
HETATM    3  C   UNL     1      41.946 -16.230   4.208  1.00  0.00     0.321 C 
HETATM    4  N   UNL     1      43.169 -16.683   3.801  1.00  0.00    -0.309 N 
HETATM    5  O   UNL     1      40.911 -16.885   4.277  1.00  0.00    -0.247 OA
HETATM    6  H   UNL     1      43.881 -15.990   3.651  1.00  0.00     0.170 HD
HETATM    7  H   UNL     1      40.933 -14.669   4.848  1.00  0.00     0.165 HD
BRANCH   4   8
HETATM    8  C   UNL     1      43.524 -17.996   3.424  1.00  0.00     0.036 A 
HETATM    9  C   UNL     1      44.126 -18.924   4.277  1.00  0.00     0.037 A 
HETATM   10  C   UNL     1      44.450 -20.222   3.837  1.00  0.00    -0.054 A 
HETATM   11  C   UNL     1      44.153 -20.600   2.514  1.00  0.00    -0.056 A 
HETATM   12  C   UNL     1      45.059 -21.190   4.816  1.00  0.00     0.049 C 
HETATM   13  C   UNL     1      44.468 -21.977   1.998  1.00  0.00     0.049 C 
HETATM   14  C   UNL     1      43.567 -19.661   1.656  1.00  0.00     0.009 A 
HETATM   15  C   UNL     1      43.254 -18.377   2.107  1.00  0.00     0.030 A 
ENDBRANCH   4   8
ENDBRANCH   1   2
BRANCH   1  16
HETATM   16  C   UNL     1      42.408 -12.892   5.764  1.00  0.00    -0.085 C 
BRANCH  16  17
HETATM   17  C   UNL     1      41.996 -12.018   6.640  1.00  0.00    -0.078 C 
BRANCH  17  18
HETATM   18  C   UNL     1      41.516 -11.001   7.663  1.00  0.00     0.269 C 
BRANCH  18  19
HETATM   19  O   UNL     1      42.616 -10.219   8.117  1.00  0.00    -0.339 OA
BRANCH  19  20
HETATM   20  C   UNL     1      42.839 -10.225   9.469  1.00  0.00     0.072 A 
HETATM   21  C   UNL     1      41.750  -9.824  10.249  1.00  0.00     0.069 A 
HETATM   22  C   UNL     1      41.812  -9.782  11.636  1.00  0.00     0.069 A 
HETATM   23  C   UNL     1      43.013 -10.177  12.263  1.00  0.00    -0.007 A 
HETATM   24  N   UNL     1      40.743  -9.367  12.340  1.00  0.00    -0.260 NA
HETATM   25  C   UNL     1      44.105 -10.598  11.490  1.00  0.00     0.016 A 
HETATM   26  C   UNL     1      43.074 -10.138  13.661  1.00  0.00     0.015 A 
HETATM   27  C   UNL     1      44.018 -10.620  10.097  1.00  0.00     0.038 A 
HETATM   28  C   UNL     1      41.970  -9.710  14.388  1.00  0.00     0.020 A 
HETATM   29  C   UNL     1      40.840  -9.337  13.688  1.00  0.00     0.117 A 
ENDBRANCH  19  20
ENDBRANCH  18  19
ENDBRANCH  17  18
ENDBRANCH  16  17
ENDBRANCH   1  16
TORSDOF 7
ENDMDL
MODEL 8
REMARK VINA RESULT:      -8.4      4.371      8.236
REMARK  7 active torsions:
REMARK  status: ('A' for Active; 'I' for Inactive)
REMARK    1  A    between atoms: C_6  and  N_7 
REMARK       I    between atoms: N_7  and  C_8 
REMARK       I    between atoms: C_8  and  N_9 
REMARK    2  A    between atoms: N_9  and  C_10 
REMARK    3  A    between atoms: C_10  and  C_11 
REMARK    4  A    between atoms: C_11  and  C_12 
REMARK    5  A    between atoms: C_12  and  C_13 
REMARK    6  A    between atoms: C_13  and  O_14 
REMARK    7  A    between atoms: O_14  and  C_15 
ROOT
HETATM    1  C   UNL     1      43.859 -14.562   6.556  1.00  0.00     0.219 C 
ENDROOT
BRANCH   1   2
HETATM    2  N   UNL     1      43.135 -15.756   6.916  1.00  0.00    -0.332 N 
HETATM    3  C   UNL     1      43.102 -17.000   6.369  1.00  0.00     0.321 C 
HETATM    4  N   UNL     1      43.797 -17.174   5.206  1.00  0.00    -0.309 N 
HETATM    5  O   UNL     1      42.463 -17.856   6.973  1.00  0.00    -0.247 OA
HETATM    6  H   UNL     1      44.138 -16.345   4.754  1.00  0.00     0.170 HD
HETATM    7  H   UNL     1      42.575 -15.709   7.758  1.00  0.00     0.165 HD
BRANCH   4   8
HETATM    8  C   UNL     1      43.979 -18.369   4.477  1.00  0.00     0.036 A 
HETATM    9  C   UNL     1      44.450 -19.563   5.026  1.00  0.00     0.037 A 
HETATM   10  C   UNL     1      44.602 -20.722   4.240  1.00  0.00    -0.054 A 
HETATM   11  C   UNL     1      44.263 -20.685   2.875  1.00  0.00    -0.056 A 
HETATM   12  C   UNL     1      45.076 -21.990   4.901  1.00  0.00     0.049 C 
HETATM   13  C   UNL     1      44.396 -21.896   1.995  1.00  0.00     0.049 C 
HETATM   14  C   UNL     1      43.808 -19.480   2.322  1.00  0.00     0.009 A 
HETATM   15  C   UNL     1      43.665 -18.339   3.115  1.00  0.00     0.030 A 
ENDBRANCH   4   8
ENDBRANCH   1   2
BRANCH   1  16
HETATM   16  C   UNL     1      43.122 -13.862   5.427  1.00  0.00    -0.085 C 
BRANCH  16  17
HETATM   17  C   UNL     1      42.489 -13.260   4.458  1.00  0.00    -0.078 C 
BRANCH  17  18
HETATM   18  C   UNL     1      41.751 -12.560   3.329  1.00  0.00     0.269 C 
BRANCH  18  19
HETATM   19  O   UNL     1      42.531 -12.611   2.139  1.00  0.00    -0.339 OA
BRANCH  19  20
HETATM   20  C   UNL     1      42.085 -13.465   1.165  1.00  0.00     0.072 A 
HETATM   21  C   UNL     1      42.031 -12.920  -0.121  1.00  0.00     0.069 A 
HETATM   22  C   UNL     1      41.607 -13.659  -1.218  1.00  0.00     0.069 A 
HETATM   23  C   UNL     1      41.240 -15.006  -1.014  1.00  0.00    -0.007 A 
HETATM   24  N   UNL     1      41.554 -13.081  -2.432  1.00  0.00    -0.260 NA
HETATM   25  C   UNL     1      41.308 -15.567   0.269  1.00  0.00     0.016 A 
HETATM   26  C   UNL     1      40.816 -15.752  -2.121  1.00  0.00     0.015 A 
HETATM   27  C   UNL     1      41.726 -14.798   1.356  1.00  0.00     0.038 A 
HETATM   28  C   UNL     1      40.761 -15.155  -3.374  1.00  0.00     0.020 A 
HETATM   29  C   UNL     1      41.135 -13.830  -3.476  1.00  0.00     0.117 A 
ENDBRANCH  19  20
ENDBRANCH  18  19
ENDBRANCH  17  18
ENDBRANCH  16  17
ENDBRANCH   1  16
TORSDOF 7
ENDMDL
MODEL 9
REMARK VINA RESULT:      -8.3      5.500      9.275
REMARK  7 active torsions:
REMARK  status: ('A' for Active; 'I' for Inactive)
REMARK    1  A    between atoms: C_6  and  N_7 
REMARK       I    between atoms: N_7  and  C_8 
REMARK       I    between atoms: C_8  and  N_9 
REMARK    2  A    between atoms: N_9  and  C_10 
REMARK    3  A    between atoms: C_10  and  C_11 
REMARK    4  A    between atoms: C_11  and  C_12 
REMARK    5  A    between atoms: C_12  and  C_13 
REMARK    6  A    between atoms: C_13  and  O_14 
REMARK    7  A    between atoms: O_14  and  C_15 
ROOT
HETATM    1  C   UNL     1      43.245 -14.195   5.014  1.00  0.00     0.219 C 
ENDROOT
BRANCH   1   2
HETATM    2  N   UNL     1      42.372 -15.301   5.322  1.00  0.00    -0.332 N 
HETATM    3  C   UNL     1      42.412 -16.616   4.979  1.00  0.00     0.321 C 
HETATM    4  N   UNL     1      43.394 -16.989   4.107  1.00  0.00    -0.309 N 
HETATM    5  O   UNL     1      41.573 -17.349   5.492  1.00  0.00    -0.247 OA
HETATM    6  H   UNL     1      43.904 -16.251   3.655  1.00  0.00     0.170 HD
HETATM    7  H   UNL     1      41.601 -15.107   5.949  1.00  0.00     0.165 HD
BRANCH   4   8
HETATM    8  C   UNL     1      43.695 -18.290   3.647  1.00  0.00     0.036 A 
HETATM    9  C   UNL     1      44.275 -19.288   4.432  1.00  0.00     0.037 A 
HETATM   10  C   UNL     1      44.543 -20.569   3.910  1.00  0.00    -0.054 A 
HETATM   11  C   UNL     1      44.212 -20.856   2.573  1.00  0.00    -0.056 A 
HETATM   12  C   UNL     1      45.131 -21.615   4.820  1.00  0.00     0.049 C 
HETATM   13  C   UNL     1      44.468 -22.210   1.970  1.00  0.00     0.049 C 
HETATM   14  C   UNL     1      43.648 -19.847   1.782  1.00  0.00     0.009 A 
HETATM   15  C   UNL     1      43.390 -18.581   2.314  1.00  0.00     0.030 A 
ENDBRANCH   4   8
ENDBRANCH   1   2
BRANCH   1  16
HETATM   16  C   UNL     1      42.790 -13.557   3.712  1.00  0.00    -0.085 C 
BRANCH  16  17
HETATM   17  C   UNL     1      42.399 -13.009   2.595  1.00  0.00    -0.078 C 
BRANCH  17  18
HETATM   18  C   UNL     1      41.944 -12.372   1.292  1.00  0.00     0.269 C 
BRANCH  18  19
HETATM   19  O   UNL     1      42.078 -13.305   0.226  1.00  0.00    -0.339 OA
BRANCH  19  20
HETATM   20  C   UNL     1      40.954 -13.521  -0.527  1.00  0.00     0.072 A 
HETATM   21  C   UNL     1      41.096 -14.469  -1.545  1.00  0.00     0.069 A 
HETATM   22  C   UNL     1      40.048 -14.805  -2.392  1.00  0.00     0.069 A 
HETATM   23  C   UNL     1      38.802 -14.175  -2.194  1.00  0.00    -0.007 A 
HETATM   24  N   UNL     1      40.244 -15.709  -3.370  1.00  0.00    -0.260 NA
HETATM   25  C   UNL     1      38.643 -13.236  -1.165  1.00  0.00     0.016 A 
HETATM   26  C   UNL     1      37.744 -14.517  -3.046  1.00  0.00     0.015 A 
HETATM   27  C   UNL     1      39.717 -12.909  -0.335  1.00  0.00     0.038 A 
HETATM   28  C   UNL     1      37.946 -15.450  -4.055  1.00  0.00     0.020 A 
HETATM   29  C   UNL     1      39.202 -16.011  -4.176  1.00  0.00     0.117 A 
ENDBRANCH  19  20
ENDBRANCH  18  19
ENDBRANCH  17  18
ENDBRANCH  16  17
ENDBRANCH   1  16
TORSDOF 7
ENDMDL
MODEL 10
REMARK VINA RESULT:      -8.2      4.114      6.900
REMARK  7 active torsions:
REMARK  status: ('A' for Active; 'I' for Inactive)
REMARK    1  A    between atoms: C_6  and  N_7 
REMARK       I    between atoms: N_7  and  C_8 
REMARK       I    between atoms: C_8  and  N_9 
REMARK    2  A    between atoms: N_9  and  C_10 
REMARK    3  A    between atoms: C_10  and  C_11 
REMARK    4  A    between atoms: C_11  and  C_12 
REMARK    5  A    between atoms: C_12  and  C_13 
REMARK    6  A    between atoms: C_13  and  O_14 
REMARK    7  A    between atoms: O_14  and  C_15 
ROOT
HETATM    1  C   UNL     1      43.781 -14.347   6.434  1.00  0.00     0.219 C 
ENDROOT
BRANCH   1   2
HETATM    2  N   UNL     1      43.092 -15.549   6.837  1.00  0.00    -0.332 N 
HETATM    3  C   UNL     1      43.086 -16.809   6.329  1.00  0.00     0.321 C 
HETATM    4  N   UNL     1      43.775 -17.001   5.165  1.00  0.00    -0.309 N 
HETATM    5  O   UNL     1      42.475 -17.662   6.965  1.00  0.00    -0.247 OA
HETATM    6  H   UNL     1      44.090 -16.177   4.684  1.00  0.00     0.170 HD
HETATM    7  H   UNL     1      42.539 -15.490   7.683  1.00  0.00     0.165 HD
BRANCH   4   8
HETATM    8  C   UNL     1      43.981 -18.213   4.470  1.00  0.00     0.036 A 
HETATM    9  C   UNL     1      44.415 -19.398   5.067  1.00  0.00     0.037 A 
HETATM   10  C   UNL     1      44.595 -20.575   4.314  1.00  0.00    -0.054 A 
HETATM   11  C   UNL     1      44.322 -20.564   2.934  1.00  0.00    -0.056 A 
HETATM   12  C   UNL     1      45.025 -21.832   5.024  1.00  0.00     0.049 C 
HETATM   13  C   UNL     1      44.488 -21.795   2.087  1.00  0.00     0.049 C 
HETATM   14  C   UNL     1      43.905 -19.369   2.334  1.00  0.00     0.009 A 
HETATM   15  C   UNL     1      43.734 -18.209   3.094  1.00  0.00     0.030 A 
ENDBRANCH   4   8
ENDBRANCH   1   2
BRANCH   1  16
HETATM   16  C   UNL     1      42.756 -13.329   5.960  1.00  0.00    -0.085 C 
BRANCH  16  17
HETATM   17  C   UNL     1      41.877 -12.456   5.553  1.00  0.00    -0.078 C 
BRANCH  17  18
HETATM   18  C   UNL     1      40.852 -11.439   5.079  1.00  0.00     0.269 C 
BRANCH  18  19
HETATM   19  O   UNL     1      39.922 -12.065   4.202  1.00  0.00    -0.339 OA
BRANCH  19  20
HETATM   20  C   UNL     1      40.463 -12.829   3.200  1.00  0.00     0.072 A 
HETATM   21  C   UNL     1      40.113 -14.182   3.234  1.00  0.00     0.069 A 
HETATM   22  C   UNL     1      40.574 -15.086   2.285  1.00  0.00     0.069 A 
HETATM   23  C   UNL     1      41.404 -14.605   1.252  1.00  0.00    -0.007 A 
HETATM   24  N   UNL     1      40.225 -16.383   2.376  1.00  0.00    -0.260 NA
HETATM   25  C   UNL     1      41.745 -13.245   1.199  1.00  0.00     0.016 A 
HETATM   26  C   UNL     1      41.865 -15.515   0.293  1.00  0.00     0.015 A 
HETATM   27  C   UNL     1      41.278 -12.360   2.172  1.00  0.00     0.038 A 
HETATM   28  C   UNL     1      41.505 -16.854   0.386  1.00  0.00     0.020 A 
HETATM   29  C   UNL     1      40.693 -17.234   1.436  1.00  0.00     0.117 A 
ENDBRANCH  19  20
ENDBRANCH  18  19
ENDBRANCH  17  18
ENDBRANCH  16  17
ENDBRANCH   1  16
TORSDOF 7
ENDMDL
