MODEL 1
REMARK VINA RESULT:      -9.6      0.000      0.000
REMARK  7 active torsions:
REMARK  status: ('A' for Active; 'I' for Inactive)
REMARK    1  A    between atoms: C_3  and  C_4 
REMARK       I    between atoms: C_4  and  N_5 
REMARK    2  A    between atoms: N_8  and  C_9 
REMARK    3  A    between atoms: C_12  and  N_13 
REMARK    4  A    between atoms: N_13  and  C_14 
REMARK    5  A    between atoms: C_14  and  N_15 
REMARK       I    between atoms: N_15  and  C_16 
REMARK    6  A    between atoms: C_16  and  C_17 
REMARK    7  A    between atoms: C_18  and  O_19 
ROOT
HETATM    1  C   UNL     1      41.714 -14.553   2.554  1.00  0.00     0.030 A 
HETATM    2  C   UNL     1      40.722 -15.181   3.325  1.00  0.00     0.031 A 
HETATM    3  C   UNL     1      40.941 -15.544   4.666  1.00  0.00     0.032 A 
HETATM    4  C   UNL     1      42.180 -15.319   5.264  1.00  0.00     0.034 A 
HETATM    5  C   UNL     1      43.140 -14.620   4.542  1.00  0.00     0.032 A 
HETATM    6  C   UNL     1      42.912 -14.249   3.213  1.00  0.00     0.031 A 
ENDROOT
BRANCH   4   7
HETATM    7  N   UNL     1      42.388 -15.776   6.582  1.00  0.00    -0.333 N 
HETATM    8  H   UNL     1      41.947 -15.235   7.325  1.00  0.00     0.168 HD
BRANCH   7   9
HETATM    9  C   UNL     1      42.961 -16.951   7.016  1.00  0.00     0.179 C 
HETATM   10  S   UNL     1      43.472 -17.373   8.555  1.00  0.00    -0.040 SA
BRANCH   9  11
HETATM   11  N   UNL     1      43.157 -17.908   6.043  1.00  0.00    -0.299 N 
HETATM   12  C   UNL     1      44.321 -18.321   5.415  1.00  0.00     0.260 C 
HETATM   13  O   UNL     1      45.442 -18.155   5.893  1.00  0.00    -0.267 OA
HETATM   14  H   UNL     1      42.287 -18.200   5.611  1.00  0.00     0.171 HD
BRANCH  12  15
HETATM   15  C   UNL     1      44.128 -19.099   4.150  1.00  0.00     0.065 A 
HETATM   16  C   UNL     1      44.533 -20.442   4.003  1.00  0.00     0.084 A 
HETATM   17  C   UNL     1      44.334 -21.091   2.779  1.00  0.00     0.038 A 
HETATM   18  C   UNL     1      43.718 -20.424   1.718  1.00  0.00     0.003 A 
HETATM   19  C   UNL     1      43.296 -19.106   1.869  1.00  0.00     0.001 A 
HETATM   20  C   UNL     1      43.496 -18.445   3.082  1.00  0.00     0.020 A 
BRANCH  16  21
HETATM   21  O   UNL     1      45.148 -21.043   5.073  1.00  0.00    -0.355 OA
HETATM   22  C   UNL     1      45.103 -22.466   5.129  1.00  0.00     0.210 C 
ENDBRANCH  16  21
ENDBRANCH  12  15
ENDBRANCH   9  11
ENDBRANCH   7   9
ENDBRANCH   4   7
BRANCH   1  23
HETATM   23  N   UNL     1      41.530 -14.336   1.186  1.00  0.00    -0.378 N 
HETATM   24  C   UNL     1      41.776 -15.459   0.258  1.00  0.00     0.143 C 
HETATM   25  C   UNL     1      41.075 -15.215  -1.082  1.00  0.00     0.146 C 
HETATM   26  N   UNL     1      41.363 -13.902  -1.662  1.00  0.00    -0.345 N 
HETATM   27  C   UNL     1      41.199 -13.791  -3.041  1.00  0.00     0.254 C 
HETATM   28  C   UNL     1      41.292 -12.769  -0.725  1.00  0.00     0.146 C 
HETATM   29  O   UNL     1      41.107 -14.754  -3.800  1.00  0.00    -0.267 OA
HETATM   30  C   UNL     1      41.978 -13.040   0.634  1.00  0.00     0.143 C 
BRANCH  27  31
HETATM   31  C   UNL     1      41.131 -12.449  -3.648  1.00  0.00     0.038 A 
HETATM   32  C   UNL     1      39.905 -11.803  -3.881  1.00  0.00    -0.046 A 
HETATM   33  C   UNL     1      38.583 -12.392  -3.484  1.00  0.00     0.049 C 
HETATM   34  C   UNL     1      39.929 -10.540  -4.495  1.00  0.00     0.007 A 
HETATM   35  C   UNL     1      41.135  -9.965  -4.903  1.00  0.00     0.001 A 
HETATM   36  C   UNL     1      42.339 -10.637  -4.698  1.00  0.00     0.001 A 
HETATM   37  C   UNL     1      42.340 -11.880  -4.071  1.00  0.00     0.017 A 
ENDBRANCH  27  31
ENDBRANCH   1  23
TORSDOF 7
ENDMDL
MODEL 2
REMARK VINA RESULT:      -9.4      2.112      2.965
REMARK  7 active torsions:
REMARK  status: ('A' for Active; 'I' for Inactive)
REMARK    1  A    between atoms: C_3  and  C_4 
REMARK       I    between atoms: C_4  and  N_5 
REMARK    2  A    between atoms: N_8  and  C_9 
REMARK    3  A    between atoms: C_12  and  N_13 
REMARK    4  A    between atoms: N_13  and  C_14 
REMARK    5  A    between atoms: C_14  and  N_15 
REMARK       I    between atoms: N_15  and  C_16 
REMARK    6  A    between atoms: C_16  and  C_17 
REMARK    7  A    between atoms: C_18  and  O_19 
ROOT
HETATM    1  C   UNL     1      41.737 -15.654   3.848  1.00  0.00     0.030 A 
HETATM    2  C   UNL     1      40.921 -16.655   4.400  1.00  0.00     0.031 A 
HETATM    3  C   UNL     1      41.229 -17.274   5.625  1.00  0.00     0.032 A 
HETATM    4  C   UNL     1      42.389 -16.931   6.316  1.00  0.00     0.034 A 
HETATM    5  C   UNL     1      43.159 -15.881   5.828  1.00  0.00     0.032 A 
HETATM    6  C   UNL     1      42.841 -15.260   4.616  1.00  0.00     0.031 A 
ENDROOT
BRANCH   4   7
HETATM    7  N   UNL     1      42.708 -17.636   7.496  1.00  0.00    -0.333 N 
HETATM    8  H   UNL     1      42.091 -17.487   8.294  1.00  0.00     0.168 HD
BRANCH   7   9
HETATM    9  C   UNL     1      43.635 -18.635   7.689  1.00  0.00     0.179 C 
HETATM   10  S   UNL     1      44.519 -19.007   9.065  1.00  0.00    -0.040 SA
BRANCH   9  11
HETATM   11  N   UNL     1      43.883 -19.432   6.592  1.00  0.00    -0.299 N 
HETATM   12  C   UNL     1      44.783 -19.268   5.552  1.00  0.00     0.260 C 
HETATM   13  O   UNL     1      45.783 -18.557   5.629  1.00  0.00    -0.267 OA
HETATM   14  H   UNL     1      43.160 -20.130   6.454  1.00  0.00     0.171 HD
BRANCH  12  15
HETATM   15  C   UNL     1      44.527 -20.112   4.341  1.00  0.00     0.065 A 
HETATM   16  C   UNL     1      44.107 -19.578   3.105  1.00  0.00     0.084 A 
HETATM   17  C   UNL     1      43.870 -20.440   2.028  1.00  0.00     0.038 A 
HETATM   18  C   UNL     1      44.070 -21.815   2.166  1.00  0.00     0.003 A 
HETATM   19  C   UNL     1      44.509 -22.341   3.378  1.00  0.00     0.001 A 
HETATM   20  C   UNL     1      44.741 -21.493   4.463  1.00  0.00     0.020 A 
BRANCH  16  21
HETATM   21  O   UNL     1      43.909 -18.222   3.031  1.00  0.00    -0.355 OA
HETATM   22  C   UNL     1      44.081 -17.612   1.755  1.00  0.00     0.210 C 
ENDBRANCH  16  21
ENDBRANCH  12  15
ENDBRANCH   9  11
ENDBRANCH   7   9
ENDBRANCH   4   7
BRANCH   1  23
HETATM   23  N   UNL     1      41.497 -15.158   2.564  1.00  0.00    -0.378 N 
HETATM   24  C   UNL     1      41.829 -13.746   2.284  1.00  0.00     0.143 C 
HETATM   25  C   UNL     1      41.975 -13.515   0.776  1.00  0.00     0.146 C 
HETATM   26  N   UNL     1      40.844 -14.018  -0.005  1.00  0.00    -0.345 N 
HETATM   27  C   UNL     1      40.652 -13.431  -1.255  1.00  0.00     0.254 C 
HETATM   28  C   UNL     1      40.374 -15.365   0.359  1.00  0.00     0.146 C 
HETATM   29  O   UNL     1      41.176 -12.375  -1.603  1.00  0.00    -0.267 OA
HETATM   30  C   UNL     1      40.258 -15.592   1.884  1.00  0.00     0.143 C 
BRANCH  27  31
HETATM   31  C   UNL     1      39.772 -14.099  -2.231  1.00  0.00     0.038 A 
HETATM   32  C   UNL     1      38.393 -13.834  -2.287  1.00  0.00    -0.046 A 
HETATM   33  C   UNL     1      37.720 -12.819  -1.409  1.00  0.00     0.049 C 
HETATM   34  C   UNL     1      37.621 -14.540  -3.223  1.00  0.00     0.007 A 
HETATM   35  C   UNL     1      38.201 -15.512  -4.043  1.00  0.00     0.001 A 
HETATM   36  C   UNL     1      39.564 -15.789  -3.948  1.00  0.00     0.001 A 
HETATM   37  C   UNL     1      40.352 -15.084  -3.041  1.00  0.00     0.017 A 
ENDBRANCH  27  31
ENDBRANCH   1  23
TORSDOF 7
ENDMDL
MODEL 3
REMARK VINA RESULT:      -9.2      1.447      2.236
REMARK  7 active torsions:
REMARK  status: ('A' for Active; 'I' for Inactive)
REMARK    1  A    between atoms: C_3  and  C_4 
REMARK       I    between atoms: C_4  and  N_5 
REMARK    2  A    between atoms: N_8  and  C_9 
REMARK    3  A    between atoms: C_12  and  N_13 
REMARK    4  A    between atoms: N_13  and  C_14 
REMARK    5  A    between atoms: C_14  and  N_15 
REMARK       I    between atoms: N_15  and  C_16 
REMARK    6  A    between atoms: C_16  and  C_17 
REMARK    7  A    between atoms: C_18  and  O_19 
ROOT
HETATM    1  C   UNL     1      41.377 -14.475   2.582  1.00  0.00     0.030 A 
HETATM    2  C   UNL     1      40.509 -15.117   3.480  1.00  0.00     0.031 A 
HETATM    3  C   UNL     1      40.897 -15.426   4.796  1.00  0.00     0.032 A 
HETATM    4  C   UNL     1      42.186 -15.132   5.239  1.00  0.00     0.034 A 
HETATM    5  C   UNL     1      43.025 -14.419   4.391  1.00  0.00     0.032 A 
HETATM    6  C   UNL     1      42.629 -14.102   3.088  1.00  0.00     0.031 A 
ENDROOT
BRANCH   4   7
HETATM    7  N   UNL     1      42.564 -15.537   6.536  1.00  0.00    -0.333 N 
HETATM    8  H   UNL     1      42.354 -14.887   7.293  1.00  0.00     0.168 HD
BRANCH   7   9
HETATM    9  C   UNL     1      43.026 -16.761   6.966  1.00  0.00     0.179 C 
HETATM   10  S   UNL     1      43.452 -17.248   8.512  1.00  0.00    -0.040 SA
BRANCH   9  11
HETATM   11  N   UNL     1      43.174 -17.716   5.983  1.00  0.00    -0.299 N 
HETATM   12  C   UNL     1      44.322 -18.255   5.424  1.00  0.00     0.260 C 
HETATM   13  O   UNL     1      45.417 -18.237   5.981  1.00  0.00    -0.267 OA
HETATM   14  H   UNL     1      42.308 -17.891   5.484  1.00  0.00     0.171 HD
BRANCH  12  15
HETATM   15  C   UNL     1      44.127 -18.980   4.128  1.00  0.00     0.065 A 
HETATM   16  C   UNL     1      44.506 -20.324   3.933  1.00  0.00     0.084 A 
HETATM   17  C   UNL     1      44.307 -20.921   2.683  1.00  0.00     0.038 A 
HETATM   18  C   UNL     1      43.717 -20.201   1.642  1.00  0.00     0.003 A 
HETATM   19  C   UNL     1      43.320 -18.881   1.840  1.00  0.00     0.001 A 
HETATM   20  C   UNL     1      43.521 -18.272   3.079  1.00  0.00     0.020 A 
BRANCH  16  21
HETATM   21  O   UNL     1      45.097 -20.978   4.984  1.00  0.00    -0.355 OA
HETATM   22  C   UNL     1      44.996 -22.400   5.001  1.00  0.00     0.210 C 
ENDBRANCH  16  21
ENDBRANCH  12  15
ENDBRANCH   9  11
ENDBRANCH   7   9
ENDBRANCH   4   7
BRANCH   1  23
HETATM   23  N   UNL     1      41.028 -14.311   1.239  1.00  0.00    -0.378 N 
HETATM   24  C   UNL     1      42.036 -13.751   0.315  1.00  0.00     0.143 C 
HETATM   25  C   UNL     1      41.687 -14.095  -1.137  1.00  0.00     0.146 C 
HETATM   26  N   UNL     1      40.309 -13.761  -1.502  1.00  0.00    -0.345 N 
HETATM   27  C   UNL     1      40.063 -13.567  -2.860  1.00  0.00     0.254 C 
HETATM   28  C   UNL     1      39.283 -14.156  -0.521  1.00  0.00     0.146 C 
HETATM   29  O   UNL     1      40.946 -13.388  -3.696  1.00  0.00    -0.267 OA
HETATM   30  C   UNL     1      39.662 -13.829   0.941  1.00  0.00     0.143 C 
BRANCH  27  31
HETATM   31  C   UNL     1      38.670 -13.571  -3.342  1.00  0.00     0.038 A 
HETATM   32  C   UNL     1      38.067 -14.734  -3.854  1.00  0.00    -0.046 A 
HETATM   33  C   UNL     1      38.763 -16.063  -3.897  1.00  0.00     0.049 C 
HETATM   34  C   UNL     1      36.747 -14.642  -4.324  1.00  0.00     0.007 A 
HETATM   35  C   UNL     1      36.071 -13.419  -4.325  1.00  0.00     0.001 A 
HETATM   36  C   UNL     1      36.697 -12.268  -3.849  1.00  0.00     0.001 A 
HETATM   37  C   UNL     1      37.998 -12.342  -3.357  1.00  0.00     0.017 A 
ENDBRANCH  27  31
ENDBRANCH   1  23
TORSDOF 7
ENDMDL
MODEL 4
REMARK VINA RESULT:      -9.0      5.926      9.780
REMARK  7 active torsions:
REMARK  status: ('A' for Active; 'I' for Inactive)
REMARK    1  A    between atoms: C_3  and  C_4 
REMARK       I    between atoms: C_4  and  N_5 
REMARK    2  A    between atoms: N_8  and  C_9 
REMARK    3  A    between atoms: C_12  and  N_13 
REMARK    4  A    between atoms: N_13  and  C_14 
REMARK    5  A    between atoms: C_14  and  N_15 
REMARK       I    between atoms: N_15  and  C_16 
REMARK    6  A    between atoms: C_16  and  C_17 
REMARK    7  A    between atoms: C_18  and  O_19 
ROOT
HETATM    1  C   UNL     1      41.382 -12.304   6.033  1.00  0.00     0.030 A 
HETATM    2  C   UNL     1      42.603 -12.981   5.888  1.00  0.00     0.031 A 
HETATM    3  C   UNL     1      42.884 -13.775   4.762  1.00  0.00     0.032 A 
HETATM    4  C   UNL     1      41.929 -13.942   3.761  1.00  0.00     0.034 A 
HETATM    5  C   UNL     1      40.751 -13.209   3.848  1.00  0.00     0.032 A 
HETATM    6  C   UNL     1      40.483 -12.410   4.965  1.00  0.00     0.031 A 
ENDROOT
BRANCH   4   7
HETATM    7  N   UNL     1      42.215 -14.816   2.691  1.00  0.00    -0.333 N 
HETATM    8  H   UNL     1      42.999 -14.557   2.092  1.00  0.00     0.168 HD
BRANCH   7   9
HETATM    9  C   UNL     1      41.701 -16.065   2.426  1.00  0.00     0.179 C 
HETATM   10  S   UNL     1      40.253 -16.478   1.689  1.00  0.00    -0.040 SA
BRANCH   9  11
HETATM   11  N   UNL     1      42.480 -17.125   2.838  1.00  0.00    -0.299 N 
HETATM   12  C   UNL     1      43.569 -17.725   2.227  1.00  0.00     0.260 C 
HETATM   13  O   UNL     1      44.260 -17.168   1.378  1.00  0.00    -0.267 OA
HETATM   14  H   UNL     1      42.057 -17.637   3.604  1.00  0.00     0.171 HD
BRANCH  12  15
HETATM   15  C   UNL     1      43.936 -19.078   2.755  1.00  0.00     0.065 A 
HETATM   16  C   UNL     1      44.358 -19.298   4.083  1.00  0.00     0.084 A 
HETATM   17  C   UNL     1      44.703 -20.592   4.490  1.00  0.00     0.038 A 
HETATM   18  C   UNL     1      44.608 -21.663   3.598  1.00  0.00     0.003 A 
HETATM   19  C   UNL     1      44.169 -21.451   2.294  1.00  0.00     0.001 A 
HETATM   20  C   UNL     1      43.830 -20.164   1.873  1.00  0.00     0.020 A 
BRANCH  16  21
HETATM   21  O   UNL     1      44.448 -18.208   4.911  1.00  0.00    -0.355 OA
HETATM   22  C   UNL     1      45.102 -18.400   6.163  1.00  0.00     0.210 C 
ENDBRANCH  16  21
ENDBRANCH  12  15
ENDBRANCH   9  11
ENDBRANCH   7   9
ENDBRANCH   4   7
BRANCH   1  23
HETATM   23  N   UNL     1      41.063 -11.644   7.223  1.00  0.00    -0.378 N 
HETATM   24  C   UNL     1      39.793 -10.892   7.290  1.00  0.00     0.143 C 
HETATM   25  C   UNL     1      39.376 -10.666   8.747  1.00  0.00     0.146 C 
HETATM   26  N   UNL     1      40.438 -10.097   9.578  1.00  0.00    -0.345 N 
HETATM   27  C   UNL     1      40.024  -9.414  10.720  1.00  0.00     0.254 C 
HETATM   28  C   UNL     1      41.765 -10.714   9.415  1.00  0.00     0.146 C 
HETATM   29  O   UNL     1      38.871  -9.036  10.911  1.00  0.00    -0.267 OA
HETATM   30  C   UNL     1      42.160 -10.962   7.941  1.00  0.00     0.143 C 
BRANCH  27  31
HETATM   31  C   UNL     1      41.013  -9.116  11.773  1.00  0.00     0.038 A 
HETATM   32  C   UNL     1      41.278 -10.020  12.816  1.00  0.00    -0.046 A 
HETATM   33  C   UNL     1      40.629 -11.370  12.913  1.00  0.00     0.049 C 
HETATM   34  C   UNL     1      42.210  -9.642  13.797  1.00  0.00     0.007 A 
HETATM   35  C   UNL     1      42.819  -8.385  13.760  1.00  0.00     0.001 A 
HETATM   36  C   UNL     1      42.516  -7.487  12.738  1.00  0.00     0.001 A 
HETATM   37  C   UNL     1      41.612  -7.850  11.743  1.00  0.00     0.017 A 
ENDBRANCH  27  31
ENDBRANCH   1  23
TORSDOF 7
ENDMDL
MODEL 5
REMARK VINA RESULT:      -8.9      5.951      9.999
REMARK  7 active torsions:
REMARK  status: ('A' for Active; 'I' for Inactive)
REMARK    1  A    between atoms: C_3  and  C_4 
REMARK       I    between atoms: C_4  and  N_5 
REMARK    2  A    between atoms: N_8  and  C_9 
REMARK    3  A    between atoms: C_12  and  N_13 
REMARK    4  A    between atoms: N_13  and  C_14 
REMARK    5  A    between atoms: C_14  and  N_15 
REMARK       I    between atoms: N_15  and  C_16 
REMARK    6  A    between atoms: C_16  and  C_17 
REMARK    7  A    between atoms: C_18  and  O_19 
ROOT
HETATM    1  C   UNL     1      41.746 -11.913   6.014  1.00  0.00     0.030 A 
HETATM    2  C   UNL     1      42.610 -13.016   5.932  1.00  0.00     0.031 A 
HETATM    3  C   UNL     1      42.868 -13.670   4.714  1.00  0.00     0.032 A 
HETATM    4  C   UNL     1      42.234 -13.256   3.543  1.00  0.00     0.034 A 
HETATM    5  C   UNL     1      41.446 -12.111   3.593  1.00  0.00     0.032 A 
HETATM    6  C   UNL     1      41.204 -11.458   4.805  1.00  0.00     0.031 A 
ENDROOT
BRANCH   4   7
HETATM    7  N   UNL     1      42.452 -13.991   2.359  1.00  0.00    -0.333 N 
HETATM    8  H   UNL     1      43.368 -13.890   1.924  1.00  0.00     0.168 HD
BRANCH   7   9
HETATM    9  C   UNL     1      41.668 -14.966   1.785  1.00  0.00     0.179 C 
HETATM   10  S   UNL     1      40.261 -14.801   0.887  1.00  0.00    -0.040 SA
BRANCH   9  11
HETATM   11  N   UNL     1      42.091 -16.262   1.989  1.00  0.00    -0.299 N 
HETATM   12  C   UNL     1      41.941 -17.089   3.091  1.00  0.00     0.260 C 
HETATM   13  O   UNL     1      41.071 -16.928   3.943  1.00  0.00    -0.267 OA
HETATM   14  H   UNL     1      42.768 -16.559   1.295  1.00  0.00     0.171 HD
BRANCH  12  15
HETATM   15  C   UNL     1      42.843 -18.284   3.125  1.00  0.00     0.065 A 
HETATM   16  C   UNL     1      43.672 -18.592   4.225  1.00  0.00     0.084 A 
HETATM   17  C   UNL     1      44.502 -19.717   4.168  1.00  0.00     0.038 A 
HETATM   18  C   UNL     1      44.494 -20.544   3.042  1.00  0.00     0.003 A 
HETATM   19  C   UNL     1      43.659 -20.256   1.966  1.00  0.00     0.001 A 
HETATM   20  C   UNL     1      42.833 -19.132   2.007  1.00  0.00     0.020 A 
BRANCH  16  21
HETATM   21  O   UNL     1      43.651 -17.736   5.296  1.00  0.00    -0.355 OA
HETATM   22  C   UNL     1      44.722 -17.844   6.231  1.00  0.00     0.210 C 
ENDBRANCH  16  21
ENDBRANCH  12  15
ENDBRANCH   9  11
ENDBRANCH   7   9
ENDBRANCH   4   7
BRANCH   1  23
HETATM   23  N   UNL     1      41.387 -11.371   7.251  1.00  0.00    -0.378 N 
HETATM   24  C   UNL     1      40.212 -10.478   7.312  1.00  0.00     0.143 C 
HETATM   25  C   UNL     1      39.678 -10.385   8.746  1.00  0.00     0.146 C 
HETATM   26  N   UNL     1      40.710 -10.065   9.734  1.00  0.00    -0.345 N 
HETATM   27  C   UNL     1      40.264  -9.483  10.919  1.00  0.00     0.254 C 
HETATM   28  C   UNL     1      41.967 -10.821   9.602  1.00  0.00     0.146 C 
HETATM   29  O   UNL     1      39.149  -8.987  11.062  1.00  0.00    -0.267 OA
HETATM   30  C   UNL     1      42.477 -10.930   8.147  1.00  0.00     0.143 C 
BRANCH  27  31
HETATM   31  C   UNL     1      41.170  -9.449  12.083  1.00  0.00     0.038 A 
HETATM   32  C   UNL     1      41.207 -10.492  13.024  1.00  0.00    -0.046 A 
HETATM   33  C   UNL     1      40.382 -11.740  12.893  1.00  0.00     0.049 C 
HETATM   34  C   UNL     1      42.073 -10.363  14.121  1.00  0.00     0.007 A 
HETATM   35  C   UNL     1      42.840  -9.208  14.295  1.00  0.00     0.001 A 
HETATM   36  C   UNL     1      42.763  -8.166  13.372  1.00  0.00     0.001 A 
HETATM   37  C   UNL     1      41.927  -8.284  12.265  1.00  0.00     0.017 A 
ENDBRANCH  27  31
ENDBRANCH   1  23
TORSDOF 7
ENDMDL
MODEL 6
REMARK VINA RESULT:      -8.8      1.177      2.181
REMARK  7 active torsions:
REMARK  status: ('A' for Active; 'I' for Inactive)
REMARK    1  A    between atoms: C_3  and  C_4 
REMARK       I    between atoms: C_4  and  N_5 
REMARK    2  A    between atoms: N_8  and  C_9 
REMARK    3  A    between atoms: C_12  and  N_13 
REMARK    4  A    between atoms: N_13  and  C_14 
REMARK    5  A    between atoms: C_14  and  N_15 
REMARK       I    between atoms: N_15  and  C_16 
REMARK    6  A    between atoms: C_16  and  C_17 
REMARK    7  A    between atoms: C_18  and  O_19 
ROOT
HETATM    1  C   UNL     1      40.918 -15.605   2.561  1.00  0.00     0.030 A 
HETATM    2  C   UNL     1      40.650 -16.926   2.957  1.00  0.00     0.031 A 
HETATM    3  C   UNL     1      40.870 -17.366   4.275  1.00  0.00     0.032 A 
HETATM    4  C   UNL     1      41.402 -16.499   5.228  1.00  0.00     0.034 A 
HETATM    5  C   UNL     1      41.588 -15.167   4.874  1.00  0.00     0.032 A 
HETATM    6  C   UNL     1      41.354 -14.733   3.565  1.00  0.00     0.031 A 
ENDROOT
BRANCH   4   7
HETATM    7  N   UNL     1      41.689 -17.002   6.514  1.00  0.00    -0.333 N 
HETATM    8  H   UNL     1      40.936 -16.952   7.199  1.00  0.00     0.168 HD
BRANCH   7   9
HETATM    9  C   UNL     1      42.787 -17.711   6.946  1.00  0.00     0.179 C 
HETATM   10  S   UNL     1      43.716 -17.489   8.323  1.00  0.00    -0.040 SA
BRANCH   9  11
HETATM   11  N   UNL     1      43.189 -18.740   6.120  1.00  0.00    -0.299 N 
HETATM   12  C   UNL     1      44.392 -18.942   5.463  1.00  0.00     0.260 C 
HETATM   13  O   UNL     1      45.447 -18.414   5.808  1.00  0.00    -0.267 OA
HETATM   14  H   UNL     1      42.410 -19.316   5.818  1.00  0.00     0.171 HD
BRANCH  12  15
HETATM   15  C   UNL     1      44.358 -19.951   4.357  1.00  0.00     0.065 A 
HETATM   16  C   UNL     1      44.003 -19.628   3.031  1.00  0.00     0.084 A 
HETATM   17  C   UNL     1      43.976 -20.636   2.060  1.00  0.00     0.038 A 
HETATM   18  C   UNL     1      44.321 -21.947   2.394  1.00  0.00     0.003 A 
HETATM   19  C   UNL     1      44.695 -22.263   3.697  1.00  0.00     0.001 A 
HETATM   20  C   UNL     1      44.718 -21.269   4.676  1.00  0.00     0.020 A 
BRANCH  16  21
HETATM   21  O   UNL     1      43.657 -18.327   2.763  1.00  0.00    -0.355 OA
HETATM   22  C   UNL     1      44.281 -17.710   1.640  1.00  0.00     0.210 C 
ENDBRANCH  16  21
ENDBRANCH  12  15
ENDBRANCH   9  11
ENDBRANCH   7   9
ENDBRANCH   4   7
BRANCH   1  23
HETATM   23  N   UNL     1      40.835 -15.227   1.218  1.00  0.00    -0.378 N 
HETATM   24  C   UNL     1      41.664 -15.952   0.233  1.00  0.00     0.143 C 
HETATM   25  C   UNL     1      41.104 -15.767  -1.182  1.00  0.00     0.146 C 
HETATM   26  N   UNL     1      40.862 -14.368  -1.537  1.00  0.00    -0.345 N 
HETATM   27  C   UNL     1      40.844 -14.075  -2.899  1.00  0.00     0.254 C 
HETATM   28  C   UNL     1      40.183 -13.564  -0.507  1.00  0.00     0.146 C 
HETATM   29  O   UNL     1      41.281 -14.827  -3.767  1.00  0.00    -0.267 OA
HETATM   30  C   UNL     1      40.739 -13.783   0.919  1.00  0.00     0.143 C 
BRANCH  27  31
HETATM   31  C   UNL     1      40.275 -12.790  -3.347  1.00  0.00     0.038 A 
HETATM   32  C   UNL     1      41.063 -11.633  -3.468  1.00  0.00    -0.046 A 
HETATM   33  C   UNL     1      42.543 -11.622  -3.212  1.00  0.00     0.049 C 
HETATM   34  C   UNL     1      40.435 -10.442  -3.867  1.00  0.00     0.007 A 
HETATM   35  C   UNL     1      39.056 -10.402  -4.091  1.00  0.00     0.001 A 
HETATM   36  C   UNL     1      38.283 -11.550  -3.929  1.00  0.00     0.001 A 
HETATM   37  C   UNL     1      38.890 -12.746  -3.556  1.00  0.00     0.017 A 
ENDBRANCH  27  31
ENDBRANCH   1  23
TORSDOF 7
ENDMDL
MODEL 7
REMARK VINA RESULT:      -8.7      4.880      7.417
REMARK  7 active torsions:
REMARK  status: ('A' for Active; 'I' for Inactive)
REMARK    1  A    between atoms: C_3  and  C_4 
REMARK       I    between atoms: C_4  and  N_5 
REMARK    2  A    between atoms: N_8  and  C_9 
REMARK    3  A    between atoms: C_12  and  N_13 
REMARK    4  A    between atoms: N_13  and  C_14 
REMARK    5  A    between atoms: C_14  and  N_15 
REMARK       I    between atoms: N_15  and  C_16 
REMARK    6  A    between atoms: C_16  and  C_17 
REMARK    7  A    between atoms: C_18  and  O_19 
ROOT
HETATM    1  C   UNL     1      42.258 -13.733   3.667  1.00  0.00     0.030 A 
HETATM    2  C   UNL     1      43.107 -14.781   4.056  1.00  0.00     0.031 A 
HETATM    3  C   UNL     1      43.639 -14.864   5.355  1.00  0.00     0.032 A 
HETATM    4  C   UNL     1      43.363 -13.872   6.294  1.00  0.00     0.034 A 
HETATM    5  C   UNL     1      42.455 -12.877   5.952  1.00  0.00     0.032 A 
HETATM    6  C   UNL     1      41.918 -12.808   4.662  1.00  0.00     0.031 A 
ENDROOT
BRANCH   4   7
HETATM    7  N   UNL     1      43.986 -13.945   7.558  1.00  0.00    -0.333 N 
HETATM    8  H   UNL     1      44.107 -14.877   7.951  1.00  0.00     0.168 HD
BRANCH   7   9
HETATM    9  C   UNL     1      44.615 -12.952   8.276  1.00  0.00     0.179 C 
HETATM   10  S   UNL     1      46.163 -12.335   8.096  1.00  0.00    -0.040 SA
BRANCH   9  11
HETATM   11  N   UNL     1      43.872 -12.400   9.298  1.00  0.00    -0.299 N 
HETATM   12  C   UNL     1      43.297 -11.144   9.408  1.00  0.00     0.260 C 
HETATM   13  O   UNL     1      43.040 -10.431   8.440  1.00  0.00    -0.267 OA
HETATM   14  H   UNL     1      43.932 -12.942  10.153  1.00  0.00     0.171 HD
BRANCH  12  15
HETATM   15  C   UNL     1      42.892 -10.742  10.793  1.00  0.00     0.065 A 
HETATM   16  C   UNL     1      41.563 -10.822  11.259  1.00  0.00     0.084 A 
HETATM   17  C   UNL     1      41.265 -10.406  12.562  1.00  0.00     0.038 A 
HETATM   18  C   UNL     1      42.277  -9.937  13.403  1.00  0.00     0.003 A 
HETATM   19  C   UNL     1      43.593  -9.880  12.952  1.00  0.00     0.001 A 
HETATM   20  C   UNL     1      43.902 -10.284  11.652  1.00  0.00     0.020 A 
BRANCH  16  21
HETATM   21  O   UNL     1      40.607 -11.274  10.386  1.00  0.00    -0.355 OA
HETATM   22  C   UNL     1      39.683 -10.312   9.883  1.00  0.00     0.210 C 
ENDBRANCH  16  21
ENDBRANCH  12  15
ENDBRANCH   9  11
ENDBRANCH   7   9
ENDBRANCH   4   7
BRANCH   1  23
HETATM   23  N   UNL     1      41.860 -13.587   2.335  1.00  0.00    -0.378 N 
HETATM   24  C   UNL     1      41.938 -12.244   1.723  1.00  0.00     0.143 C 
HETATM   25  C   UNL     1      41.950 -12.349   0.194  1.00  0.00     0.146 C 
HETATM   26  N   UNL     1      40.869 -13.177  -0.344  1.00  0.00    -0.345 N 
HETATM   27  C   UNL     1      40.507 -12.928  -1.667  1.00  0.00     0.254 C 
HETATM   28  C   UNL     1      40.650 -14.457   0.349  1.00  0.00     0.146 C 
HETATM   29  O   UNL     1      40.827 -11.917  -2.286  1.00  0.00    -0.267 OA
HETATM   30  C   UNL     1      40.669 -14.341   1.891  1.00  0.00     0.143 C 
BRANCH  27  31
HETATM   31  C   UNL     1      39.688 -13.924  -2.383  1.00  0.00     0.038 A 
HETATM   32  C   UNL     1      40.271 -14.965  -3.127  1.00  0.00    -0.046 A 
HETATM   33  C   UNL     1      41.755 -15.180  -3.207  1.00  0.00     0.049 C 
HETATM   34  C   UNL     1      39.419 -15.849  -3.808  1.00  0.00     0.007 A 
HETATM   35  C   UNL     1      38.033 -15.671  -3.781  1.00  0.00     0.001 A 
HETATM   36  C   UNL     1      37.474 -14.611  -3.068  1.00  0.00     0.001 A 
HETATM   37  C   UNL     1      38.300 -13.735  -2.369  1.00  0.00     0.017 A 
ENDBRANCH  27  31
ENDBRANCH   1  23
TORSDOF 7
ENDMDL
MODEL 8
REMARK VINA RESULT:      -8.4      4.717      7.153
REMARK  7 active torsions:
REMARK  status: ('A' for Active; 'I' for Inactive)
REMARK    1  A    between atoms: C_3  and  C_4 
REMARK       I    between atoms: C_4  and  N_5 
REMARK    2  A    between atoms: N_8  and  C_9 
REMARK    3  A    between atoms: C_12  and  N_13 
REMARK    4  A    between atoms: N_13  and  C_14 
REMARK    5  A    between atoms: C_14  and  N_15 
REMARK       I    between atoms: N_15  and  C_16 
REMARK    6  A    between atoms: C_16  and  C_17 
REMARK    7  A    between atoms: C_18  and  O_19 
ROOT
HETATM    1  C   UNL     1      42.463 -14.245   4.045  1.00  0.00     0.030 A 
HETATM    2  C   UNL     1      43.250 -15.229   4.664  1.00  0.00     0.031 A 
HETATM    3  C   UNL     1      43.813 -15.039   5.939  1.00  0.00     0.032 A 
HETATM    4  C   UNL     1      43.632 -13.834   6.617  1.00  0.00     0.034 A 
HETATM    5  C   UNL     1      42.783 -12.886   6.057  1.00  0.00     0.032 A 
HETATM    6  C   UNL     1      42.216 -13.088   4.794  1.00  0.00     0.031 A 
ENDROOT
BRANCH   4   7
HETATM    7  N   UNL     1      44.284 -13.649   7.854  1.00  0.00    -0.333 N 
HETATM    8  H   UNL     1      44.184 -14.400   8.536  1.00  0.00     0.168 HD
BRANCH   7   9
HETATM    9  C   UNL     1      45.185 -12.676   8.226  1.00  0.00     0.179 C 
HETATM   10  S   UNL     1      46.764 -12.445   7.712  1.00  0.00    -0.040 SA
BRANCH   9  11
HETATM   11  N   UNL     1      44.729 -11.775   9.164  1.00  0.00    -0.299 N 
HETATM   12  C   UNL     1      44.185 -11.990  10.421  1.00  0.00     0.260 C 
HETATM   13  O   UNL     1      44.361 -13.021  11.066  1.00  0.00    -0.267 OA
HETATM   14  H   UNL     1      44.611 -10.845   8.778  1.00  0.00     0.171 HD
BRANCH  12  15
HETATM   15  C   UNL     1      43.450 -10.826  11.010  1.00  0.00     0.065 A 
HETATM   16  C   UNL     1      42.468 -10.099  10.305  1.00  0.00     0.084 A 
HETATM   17  C   UNL     1      41.843  -9.009  10.923  1.00  0.00     0.038 A 
HETATM   18  C   UNL     1      42.170  -8.658  12.235  1.00  0.00     0.003 A 
HETATM   19  C   UNL     1      43.121  -9.389  12.940  1.00  0.00     0.001 A 
HETATM   20  C   UNL     1      43.758 -10.472  12.333  1.00  0.00     0.020 A 
BRANCH  16  21
HETATM   21  O   UNL     1      42.199 -10.477   9.015  1.00  0.00    -0.355 OA
HETATM   22  C   UNL     1      40.827 -10.600   8.649  1.00  0.00     0.210 C 
ENDBRANCH  16  21
ENDBRANCH  12  15
ENDBRANCH   9  11
ENDBRANCH   7   9
ENDBRANCH   4   7
BRANCH   1  23
HETATM   23  N   UNL     1      42.038 -14.391   2.722  1.00  0.00    -0.378 N 
HETATM   24  C   UNL     1      42.489 -15.579   1.968  1.00  0.00     0.143 C 
HETATM   25  C   UNL     1      41.571 -15.836   0.768  1.00  0.00     0.146 C 
HETATM   26  N   UNL     1      41.361 -14.654  -0.071  1.00  0.00    -0.345 N 
HETATM   27  C   UNL     1      40.985 -14.898  -1.390  1.00  0.00     0.254 C 
HETATM   28  C   UNL     1      41.073 -13.407   0.657  1.00  0.00     0.146 C 
HETATM   29  O   UNL     1      41.092 -15.990  -1.942  1.00  0.00    -0.267 OA
HETATM   30  C   UNL     1      41.988 -13.176   1.882  1.00  0.00     0.143 C 
BRANCH  27  31
HETATM   31  C   UNL     1      40.427 -13.791  -2.190  1.00  0.00     0.038 A 
HETATM   32  C   UNL     1      41.251 -12.835  -2.807  1.00  0.00    -0.046 A 
HETATM   33  C   UNL     1      42.751 -12.892  -2.754  1.00  0.00     0.049 C 
HETATM   34  C   UNL     1      40.637 -11.794  -3.522  1.00  0.00     0.007 A 
HETATM   35  C   UNL     1      39.244 -11.689  -3.577  1.00  0.00     0.001 A 
HETATM   36  C   UNL     1      38.442 -12.625  -2.927  1.00  0.00     0.001 A 
HETATM   37  C   UNL     1      39.031 -13.678  -2.232  1.00  0.00     0.017 A 
ENDBRANCH  27  31
ENDBRANCH   1  23
TORSDOF 7
ENDMDL
MODEL 9
REMARK VINA RESULT:      -8.3      6.181     10.279
REMARK  7 active torsions:
REMARK  status: ('A' for Active; 'I' for Inactive)
REMARK    1  A    between atoms: C_3  and  C_4 
REMARK       I    between atoms: C_4  and  N_5 
REMARK    2  A    between atoms: N_8  and  C_9 
REMARK    3  A    between atoms: C_12  and  N_13 
REMARK    4  A    between atoms: N_13  and  C_14 
REMARK    5  A    between atoms: C_14  and  N_15 
REMARK       I    between atoms: N_15  and  C_16 
REMARK    6  A    between atoms: C_16  and  C_17 
REMARK    7  A    between atoms: C_18  and  O_19 
ROOT
HETATM    1  C   UNL     1      40.447 -11.708   5.862  1.00  0.00     0.030 A 
HETATM    2  C   UNL     1      39.343 -12.333   5.260  1.00  0.00     0.031 A 
HETATM    3  C   UNL     1      39.358 -12.731   3.912  1.00  0.00     0.032 A 
HETATM    4  C   UNL     1      40.474 -12.479   3.114  1.00  0.00     0.034 A 
HETATM    5  C   UNL     1      41.605 -11.943   3.718  1.00  0.00     0.032 A 
HETATM    6  C   UNL     1      41.588 -11.561   5.064  1.00  0.00     0.031 A 
ENDROOT
BRANCH   4   7
HETATM    7  N   UNL     1      40.417 -12.815   1.745  1.00  0.00    -0.333 N 
HETATM    8  H   UNL     1      39.837 -12.219   1.156  1.00  0.00     0.168 HD
BRANCH   7   9
HETATM    9  C   UNL     1      41.165 -13.733   1.043  1.00  0.00     0.179 C 
HETATM   10  S   UNL     1      41.701 -13.668  -0.544  1.00  0.00    -0.040 SA
BRANCH   9  11
HETATM   11  N   UNL     1      41.508 -14.873   1.738  1.00  0.00    -0.299 N 
HETATM   12  C   UNL     1      40.706 -15.857   2.294  1.00  0.00     0.260 C 
HETATM   13  O   UNL     1      39.550 -16.069   1.936  1.00  0.00    -0.267 OA
HETATM   14  H   UNL     1      42.478 -14.866   2.032  1.00  0.00     0.171 HD
BRANCH  12  15
HETATM   15  C   UNL     1      41.379 -16.742   3.297  1.00  0.00     0.065 A 
HETATM   16  C   UNL     1      42.311 -17.740   2.941  1.00  0.00     0.084 A 
HETATM   17  C   UNL     1      42.879 -18.539   3.940  1.00  0.00     0.038 A 
HETATM   18  C   UNL     1      42.546 -18.337   5.282  1.00  0.00     0.003 A 
HETATM   19  C   UNL     1      41.644 -17.337   5.637  1.00  0.00     0.001 A 
HETATM   20  C   UNL     1      41.064 -16.539   4.649  1.00  0.00     0.020 A 
BRANCH  16  21
HETATM   21  O   UNL     1      42.589 -17.906   1.608  1.00  0.00    -0.355 OA
HETATM   22  C   UNL     1      43.900 -17.555   1.172  1.00  0.00     0.210 C 
ENDBRANCH  16  21
ENDBRANCH  12  15
ENDBRANCH   9  11
ENDBRANCH   7   9
ENDBRANCH   4   7
BRANCH   1  23
HETATM   23  N   UNL     1      40.361 -11.186   7.156  1.00  0.00    -0.378 N 
HETATM   24  C   UNL     1      39.283 -10.221   7.453  1.00  0.00     0.143 C 
HETATM   25  C   UNL     1      39.031 -10.141   8.962  1.00  0.00     0.146 C 
HETATM   26  N   UNL     1      40.246  -9.922   9.748  1.00  0.00    -0.345 N 
HETATM   27  C   UNL     1      40.068  -9.353  11.007  1.00  0.00     0.254 C 
HETATM   28  C   UNL     1      41.401 -10.754   9.369  1.00  0.00     0.146 C 
HETATM   29  O   UNL     1      39.036  -8.791  11.365  1.00  0.00    -0.267 OA
HETATM   30  C   UNL     1      41.626 -10.848   7.842  1.00  0.00     0.143 C 
BRANCH  27  31
HETATM   31  C   UNL     1      41.172  -9.417  11.983  1.00  0.00     0.038 A 
HETATM   32  C   UNL     1      41.325 -10.506  12.859  1.00  0.00    -0.046 A 
HETATM   33  C   UNL     1      40.422 -11.706  12.835  1.00  0.00     0.049 C 
HETATM   34  C   UNL     1      42.383 -10.470  13.781  1.00  0.00     0.007 A 
HETATM   35  C   UNL     1      43.231  -9.362  13.854  1.00  0.00     0.001 A 
HETATM   36  C   UNL     1      43.043  -8.275  13.003  1.00  0.00     0.001 A 
HETATM   37  C   UNL     1      42.013  -8.299  12.066  1.00  0.00     0.017 A 
ENDBRANCH  27  31
ENDBRANCH   1  23
TORSDOF 7
ENDMDL
MODEL 10
REMARK VINA RESULT:      -8.3      6.754      9.986
REMARK  7 active torsions:
REMARK  status: ('A' for Active; 'I' for Inactive)
REMARK    1  A    between atoms: C_3  and  C_4 
REMARK       I    between atoms: C_4  and  N_5 
REMARK    2  A    between atoms: N_8  and  C_9 
REMARK    3  A    between atoms: C_12  and  N_13 
REMARK    4  A    between atoms: N_13  and  C_14 
REMARK    5  A    between atoms: C_14  and  N_15 
REMARK       I    between atoms: N_15  and  C_16 
REMARK    6  A    between atoms: C_16  and  C_17 
REMARK    7  A    between atoms: C_18  and  O_19 
ROOT
HETATM    1  C   UNL     1      41.223 -11.375   5.550  1.00  0.00     0.030 A 
HETATM    2  C   UNL     1      40.593 -10.193   5.130  1.00  0.00     0.031 A 
HETATM    3  C   UNL     1      40.519  -9.055   5.955  1.00  0.00     0.032 A 
HETATM    4  C   UNL     1      41.047  -9.085   7.245  1.00  0.00     0.034 A 
HETATM    5  C   UNL     1      41.750 -10.217   7.641  1.00  0.00     0.032 A 
HETATM    6  C   UNL     1      41.831 -11.340   6.811  1.00  0.00     0.031 A 
ENDROOT
BRANCH   4   7
HETATM    7  N   UNL     1      40.876  -7.955   8.072  1.00  0.00    -0.333 N 
HETATM    8  H   UNL     1      41.168  -7.059   7.682  1.00  0.00     0.168 HD
BRANCH   7   9
HETATM    9  C   UNL     1      40.213  -7.848   9.274  1.00  0.00     0.179 C 
HETATM   10  S   UNL     1      38.668  -7.276   9.583  1.00  0.00    -0.040 SA
BRANCH   9  11
HETATM   11  N   UNL     1      40.927  -8.255  10.381  1.00  0.00    -0.299 N 
HETATM   12  C   UNL     1      40.803  -9.398  11.156  1.00  0.00     0.260 C 
HETATM   13  O   UNL     1      40.269 -10.430  10.757  1.00  0.00    -0.267 OA
HETATM   14  H   UNL     1      41.487  -7.506  10.774  1.00  0.00     0.171 HD
BRANCH  12  15
HETATM   15  C   UNL     1      41.473  -9.342  12.494  1.00  0.00     0.065 A 
HETATM   16  C   UNL     1      42.875  -9.368  12.655  1.00  0.00     0.084 A 
HETATM   17  C   UNL     1      43.420  -9.333  13.943  1.00  0.00     0.038 A 
HETATM   18  C   UNL     1      42.587  -9.250  15.061  1.00  0.00     0.003 A 
HETATM   19  C   UNL     1      41.205  -9.201  14.903  1.00  0.00     0.001 A 
HETATM   20  C   UNL     1      40.648  -9.243  13.624  1.00  0.00     0.020 A 
BRANCH  16  21
HETATM   21  O   UNL     1      43.644  -9.467  11.523  1.00  0.00    -0.355 OA
HETATM   22  C   UNL     1      44.063 -10.774  11.138  1.00  0.00     0.210 C 
ENDBRANCH  16  21
ENDBRANCH  12  15
ENDBRANCH   9  11
ENDBRANCH   7   9
ENDBRANCH   4   7
BRANCH   1  23
HETATM   23  N   UNL     1      41.155 -12.538   4.779  1.00  0.00    -0.378 N 
HETATM   24  C   UNL     1      39.823 -13.062   4.413  1.00  0.00     0.143 C 
HETATM   25  C   UNL     1      39.925 -13.999   3.205  1.00  0.00     0.146 C 
HETATM   26  N   UNL     1      40.942 -15.041   3.358  1.00  0.00    -0.345 N 
HETATM   27  C   UNL     1      40.767 -16.187   2.584  1.00  0.00     0.254 C 
HETATM   28  C   UNL     1      42.240 -14.583   3.881  1.00  0.00     0.146 C 
HETATM   29  O   UNL     1      39.714 -16.481   2.024  1.00  0.00    -0.267 OA
HETATM   30  C   UNL     1      42.121 -13.616   5.081  1.00  0.00     0.143 C 
BRANCH  27  31
HETATM   31  C   UNL     1      41.900 -17.115   2.416  1.00  0.00     0.038 A 
HETATM   32  C   UNL     1      42.301 -17.988   3.442  1.00  0.00    -0.046 A 
HETATM   33  C   UNL     1      41.581 -18.088   4.756  1.00  0.00     0.049 C 
HETATM   34  C   UNL     1      43.412 -18.815   3.212  1.00  0.00     0.007 A 
HETATM   35  C   UNL     1      44.126 -18.737   2.013  1.00  0.00     0.001 A 
HETATM   36  C   UNL     1      43.738 -17.839   1.020  1.00  0.00     0.001 A 
HETATM   37  C   UNL     1      42.625 -17.025   1.220  1.00  0.00     0.017 A 
ENDBRANCH  27  31
ENDBRANCH   1  23
TORSDOF 7
ENDMDL
