MODEL 1
REMARK VINA RESULT:      -7.5      0.000      0.000
REMARK  6 active torsions:
REMARK  status: ('A' for Active; 'I' for Inactive)
REMARK    1  A    between atoms: C_2  and  O_3 
REMARK    2  A    between atoms: O_3  and  C_4 
REMARK    3  A    between atoms: C_7  and  N_8 
REMARK    4  A    between atoms: N_8  and  C_9 
REMARK    5  A    between atoms: C_9  and  C_10 
REMARK    6  A    between atoms: C_18  and  O_19 
ROOT
HETATM    1  C   UNL     1      44.223 -16.941   6.707  1.00  0.00     0.024 A 
HETATM    2  C   UNL     1      43.735 -17.635   7.940  1.00  0.00     0.253 A 
HETATM    3  O   UNL     1      43.415 -17.008   8.947  1.00  0.00    -0.268 OA
HETATM    4  N   UNL     1      43.656 -19.002   7.906  1.00  0.00    -0.322 N 
HETATM    5  C   UNL     1      43.999 -19.771   6.790  1.00  0.00     0.045 A 
HETATM    6  C   UNL     1      44.467 -19.131   5.641  1.00  0.00    -0.006 A 
HETATM    7  C   UNL     1      43.866 -21.158   6.827  1.00  0.00     0.033 A 
HETATM    8  C   UNL     1      44.190 -21.916   5.697  1.00  0.00     0.039 A 
HETATM    9  C   UNL     1      44.649 -21.287   4.537  1.00  0.00     0.069 A 
HETATM   10  C   UNL     1      44.796 -19.896   4.518  1.00  0.00     0.050 A 
HETATM   11  C   UNL     1      44.587 -17.674   5.637  1.00  0.00     0.027 A 
HETATM   12  H   UNL     1      43.320 -19.445   8.750  1.00  0.00     0.169 HD
ENDROOT
BRANCH   1  13
HETATM   13  C   UNL     1      44.251 -15.438   6.825  1.00  0.00     0.136 C 
BRANCH  13  14
HETATM   14  N   UNL     1      42.924 -14.865   6.591  1.00  0.00    -0.289 NA
HETATM   15  H   UNL     1      42.792 -13.986   7.085  1.00  0.00     0.128 HD
BRANCH  14  16
HETATM   16  C   UNL     1      42.428 -14.752   5.288  1.00  0.00     0.008 A 
HETATM   17  C   UNL     1      41.143 -15.254   5.031  1.00  0.00     0.026 A 
HETATM   18  C   UNL     1      40.586 -15.231   3.746  1.00  0.00     0.038 A 
HETATM   19  C   UNL     1      41.315 -14.712   2.681  1.00  0.00     0.068 A 
HETATM   20  C   UNL     1      42.605 -14.239   2.915  1.00  0.00     0.038 A 
HETATM   21  C   UNL     1      43.164 -14.276   4.200  1.00  0.00     0.026 A 
BRANCH  19  22
HETATM   22  O   UNL     1      40.891 -14.617   1.384  1.00  0.00    -0.352 OA
BRANCH  22  23
HETATM   23  C   UNL     1      41.770 -15.115   0.379  1.00  0.00     0.171 C 
HETATM   24  C   UNL     1      41.539 -16.611   0.251  1.00  0.00     0.034 C 
ENDBRANCH  22  23
ENDBRANCH  19  22
ENDBRANCH  14  16
ENDBRANCH  13  14
ENDBRANCH   1  13
BRANCH   9  25
HETATM   25  O   UNL     1      44.988 -21.910   3.367  1.00  0.00    -0.356 OA
HETATM   26  C   UNL     1      44.139 -21.687   2.249  1.00  0.00     0.210 C 
ENDBRANCH   9  25
TORSDOF 6
ENDMDL
MODEL 2
REMARK VINA RESULT:      -7.2      4.015      6.022
REMARK  6 active torsions:
REMARK  status: ('A' for Active; 'I' for Inactive)
REMARK    1  A    between atoms: C_2  and  O_3 
REMARK    2  A    between atoms: O_3  and  C_4 
REMARK    3  A    between atoms: C_7  and  N_8 
REMARK    4  A    between atoms: N_8  and  C_9 
REMARK    5  A    between atoms: C_9  and  C_10 
REMARK    6  A    between atoms: C_18  and  O_19 
ROOT
HETATM    1  C   UNL     1      42.202 -15.538   1.231  1.00  0.00     0.024 A 
HETATM    2  C   UNL     1      41.966 -15.135   2.654  1.00  0.00     0.253 A 
HETATM    3  O   UNL     1      41.421 -14.072   2.939  1.00  0.00    -0.268 OA
HETATM    4  N   UNL     1      42.380 -16.000   3.632  1.00  0.00    -0.322 N 
HETATM    5  C   UNL     1      42.999 -17.226   3.373  1.00  0.00     0.045 A 
HETATM    6  C   UNL     1      43.234 -17.602   2.049  1.00  0.00    -0.006 A 
HETATM    7  C   UNL     1      43.368 -18.061   4.425  1.00  0.00     0.033 A 
HETATM    8  C   UNL     1      43.967 -19.296   4.153  1.00  0.00     0.039 A 
HETATM    9  C   UNL     1      44.196 -19.690   2.832  1.00  0.00     0.069 A 
HETATM   10  C   UNL     1      43.838 -18.834   1.785  1.00  0.00     0.050 A 
HETATM   11  C   UNL     1      42.826 -16.702   0.971  1.00  0.00     0.027 A 
HETATM   12  H   UNL     1      42.206 -15.704   4.583  1.00  0.00     0.169 HD
ENDROOT
BRANCH   1  13
HETATM   13  C   UNL     1      41.689 -14.541   0.223  1.00  0.00     0.136 C 
BRANCH  13  14
HETATM   14  N   UNL     1      41.713 -15.099  -1.130  1.00  0.00    -0.289 NA
HETATM   15  H   UNL     1      42.152 -16.015  -1.161  1.00  0.00     0.128 HD
BRANCH  14  16
HETATM   16  C   UNL     1      40.548 -15.110  -1.905  1.00  0.00     0.008 A 
HETATM   17  C   UNL     1      40.512 -15.961  -3.020  1.00  0.00     0.026 A 
HETATM   18  C   UNL     1      39.409 -16.001  -3.883  1.00  0.00     0.038 A 
HETATM   19  C   UNL     1      38.316 -15.172  -3.652  1.00  0.00     0.068 A 
HETATM   20  C   UNL     1      38.350 -14.299  -2.567  1.00  0.00     0.038 A 
HETATM   21  C   UNL     1      39.462 -14.253  -1.714  1.00  0.00     0.026 A 
BRANCH  19  22
HETATM   22  O   UNL     1      37.174 -15.117  -4.402  1.00  0.00    -0.352 OA
BRANCH  22  23
HETATM   23  C   UNL     1      36.477 -13.874  -4.427  1.00  0.00     0.171 C 
HETATM   24  C   UNL     1      35.112 -14.111  -5.050  1.00  0.00     0.034 C 
ENDBRANCH  22  23
ENDBRANCH  19  22
ENDBRANCH  14  16
ENDBRANCH  13  14
ENDBRANCH   1  13
BRANCH   9  25
HETATM   25  O   UNL     1      44.762 -20.870   2.435  1.00  0.00    -0.356 OA
HETATM   26  C   UNL     1      43.899 -21.825   1.828  1.00  0.00     0.210 C 
ENDBRANCH   9  25
TORSDOF 6
ENDMDL
MODEL 3
REMARK VINA RESULT:      -7.1      1.095      1.456
REMARK  6 active torsions:
REMARK  status: ('A' for Active; 'I' for Inactive)
REMARK    1  A    between atoms: C_2  and  O_3 
REMARK    2  A    between atoms: O_3  and  C_4 
REMARK    3  A    between atoms: C_7  and  N_8 
REMARK    4  A    between atoms: N_8  and  C_9 
REMARK    5  A    between atoms: C_9  and  C_10 
REMARK    6  A    between atoms: C_18  and  O_19 
ROOT
HETATM    1  C   UNL     1      43.943 -17.062   6.402  1.00  0.00     0.024 A 
HETATM    2  C   UNL     1      43.625 -17.750   7.693  1.00  0.00     0.253 A 
HETATM    3  O   UNL     1      43.322 -17.117   8.701  1.00  0.00    -0.268 OA
HETATM    4  N   UNL     1      43.682 -19.119   7.710  1.00  0.00    -0.322 N 
HETATM    5  C   UNL     1      44.013 -19.895   6.596  1.00  0.00     0.045 A 
HETATM    6  C   UNL     1      44.324 -19.259   5.392  1.00  0.00    -0.006 A 
HETATM    7  C   UNL     1      44.024 -21.285   6.689  1.00  0.00     0.033 A 
HETATM    8  C   UNL     1      44.335 -22.053   5.561  1.00  0.00     0.039 A 
HETATM    9  C   UNL     1      44.636 -21.429   4.347  1.00  0.00     0.069 A 
HETATM   10  C   UNL     1      44.640 -20.032   4.271  1.00  0.00     0.050 A 
HETATM   11  C   UNL     1      44.295 -17.799   5.331  1.00  0.00     0.027 A 
HETATM   12  H   UNL     1      43.460 -19.558   8.593  1.00  0.00     0.169 HD
ENDROOT
BRANCH   1  13
HETATM   13  C   UNL     1      43.827 -15.560   6.469  1.00  0.00     0.136 C 
BRANCH  13  14
HETATM   14  N   UNL     1      42.451 -15.125   6.225  1.00  0.00    -0.289 NA
HETATM   15  H   UNL     1      42.248 -14.228   6.659  1.00  0.00     0.128 HD
BRANCH  14  16
HETATM   16  C   UNL     1      41.928 -15.148   4.927  1.00  0.00     0.008 A 
HETATM   17  C   UNL     1      42.063 -13.990   4.147  1.00  0.00     0.026 A 
HETATM   18  C   UNL     1      41.524 -13.902   2.857  1.00  0.00     0.038 A 
HETATM   19  C   UNL     1      40.822 -14.977   2.322  1.00  0.00     0.068 A 
HETATM   20  C   UNL     1      40.652 -16.123   3.098  1.00  0.00     0.038 A 
HETATM   21  C   UNL     1      41.181 -16.201   4.394  1.00  0.00     0.026 A 
BRANCH  19  22
HETATM   22  O   UNL     1      40.258 -15.033   1.078  1.00  0.00    -0.352 OA
BRANCH  22  23
HETATM   23  C   UNL     1      39.440 -13.931   0.689  1.00  0.00     0.171 C 
HETATM   24  C   UNL     1      38.005 -14.256   1.063  1.00  0.00     0.034 C 
ENDBRANCH  22  23
ENDBRANCH  19  22
ENDBRANCH  14  16
ENDBRANCH  13  14
ENDBRANCH   1  13
BRANCH   9  25
HETATM   25  O   UNL     1      44.945 -22.063   3.175  1.00  0.00    -0.356 OA
HETATM   26  C   UNL     1      44.127 -21.769   2.050  1.00  0.00     0.210 C 
ENDBRANCH   9  25
TORSDOF 6
ENDMDL
MODEL 4
REMARK VINA RESULT:      -7.1      2.801      3.684
REMARK  6 active torsions:
REMARK  status: ('A' for Active; 'I' for Inactive)
REMARK    1  A    between atoms: C_2  and  O_3 
REMARK    2  A    between atoms: O_3  and  C_4 
REMARK    3  A    between atoms: C_7  and  N_8 
REMARK    4  A    between atoms: N_8  and  C_9 
REMARK    5  A    between atoms: C_9  and  C_10 
REMARK    6  A    between atoms: C_18  and  O_19 
ROOT
HETATM    1  C   UNL     1      41.893 -16.339   4.094  1.00  0.00     0.024 A 
HETATM    2  C   UNL     1      42.594 -16.170   5.406  1.00  0.00     0.253 A 
HETATM    3  O   UNL     1      42.332 -15.236   6.159  1.00  0.00    -0.268 OA
HETATM    4  N   UNL     1      43.542 -17.100   5.740  1.00  0.00    -0.322 N 
HETATM    5  C   UNL     1      43.880 -18.188   4.930  1.00  0.00     0.045 A 
HETATM    6  C   UNL     1      43.240 -18.344   3.699  1.00  0.00    -0.006 A 
HETATM    7  C   UNL     1      44.839 -19.106   5.353  1.00  0.00     0.033 A 
HETATM    8  C   UNL     1      45.153 -20.204   4.544  1.00  0.00     0.039 A 
HETATM    9  C   UNL     1      44.511 -20.378   3.315  1.00  0.00     0.069 A 
HETATM   10  C   UNL     1      43.563 -19.440   2.893  1.00  0.00     0.050 A 
HETATM   11  C   UNL     1      42.234 -17.365   3.291  1.00  0.00     0.027 A 
HETATM   12  H   UNL     1      43.998 -16.965   6.632  1.00  0.00     0.169 HD
ENDROOT
BRANCH   1  13
HETATM   13  C   UNL     1      40.847 -15.286   3.823  1.00  0.00     0.136 C 
BRANCH  13  14
HETATM   14  N   UNL     1      39.840 -15.774   2.880  1.00  0.00    -0.289 NA
HETATM   15  H   UNL     1      38.932 -15.903   3.319  1.00  0.00     0.128 HD
BRANCH  14  16
HETATM   16  C   UNL     1      39.677 -15.146   1.640  1.00  0.00     0.008 A 
HETATM   17  C   UNL     1      38.431 -14.565   1.359  1.00  0.00     0.026 A 
HETATM   18  C   UNL     1      38.159 -13.962   0.125  1.00  0.00     0.038 A 
HETATM   19  C   UNL     1      39.134 -13.939  -0.867  1.00  0.00     0.068 A 
HETATM   20  C   UNL     1      40.366 -14.539  -0.614  1.00  0.00     0.038 A 
HETATM   21  C   UNL     1      40.629 -15.154   0.618  1.00  0.00     0.026 A 
BRANCH  19  22
HETATM   22  O   UNL     1      39.010 -13.375  -2.107  1.00  0.00    -0.352 OA
BRANCH  22  23
HETATM   23  C   UNL     1      37.792 -13.618  -2.808  1.00  0.00     0.171 C 
HETATM   24  C   UNL     1      37.916 -14.957  -3.514  1.00  0.00     0.034 C 
ENDBRANCH  22  23
ENDBRANCH  19  22
ENDBRANCH  14  16
ENDBRANCH  13  14
ENDBRANCH   1  13
BRANCH   9  25
HETATM   25  O   UNL     1      44.720 -21.409   2.441  1.00  0.00    -0.356 OA
HETATM   26  C   UNL     1      43.636 -21.758   1.588  1.00  0.00     0.210 C 
ENDBRANCH   9  25
TORSDOF 6
ENDMDL
MODEL 5
REMARK VINA RESULT:      -6.9      3.309      5.094
REMARK  6 active torsions:
REMARK  status: ('A' for Active; 'I' for Inactive)
REMARK    1  A    between atoms: C_2  and  O_3 
REMARK    2  A    between atoms: O_3  and  C_4 
REMARK    3  A    between atoms: C_7  and  N_8 
REMARK    4  A    between atoms: N_8  and  C_9 
REMARK    5  A    between atoms: C_9  and  C_10 
REMARK    6  A    between atoms: C_18  and  O_19 
ROOT
HETATM    1  C   UNL     1      41.325 -16.514   2.227  1.00  0.00     0.024 A 
HETATM    2  C   UNL     1      41.504 -16.056   3.641  1.00  0.00     0.253 A 
HETATM    3  O   UNL     1      40.940 -15.052   4.068  1.00  0.00    -0.268 OA
HETATM    4  N   UNL     1      42.323 -16.802   4.447  1.00  0.00    -0.322 N 
HETATM    5  C   UNL     1      42.986 -17.957   4.023  1.00  0.00     0.045 A 
HETATM    6  C   UNL     1      42.834 -18.382   2.701  1.00  0.00    -0.006 A 
HETATM    7  C   UNL     1      43.782 -18.675   4.912  1.00  0.00     0.033 A 
HETATM    8  C   UNL     1      44.423 -19.842   4.482  1.00  0.00     0.039 A 
HETATM    9  C   UNL     1      44.269 -20.285   3.167  1.00  0.00     0.069 A 
HETATM   10  C   UNL     1      43.482 -19.545   2.277  1.00  0.00     0.050 A 
HETATM   11  C   UNL     1      41.985 -17.607   1.798  1.00  0.00     0.027 A 
HETATM   12  H   UNL     1      42.424 -16.473   5.397  1.00  0.00     0.169 HD
ENDROOT
BRANCH   1  13
HETATM   13  C   UNL     1      40.386 -15.650   1.422  1.00  0.00     0.136 C 
BRANCH  13  14
HETATM   14  N   UNL     1      40.511 -15.927  -0.010  1.00  0.00    -0.289 NA
HETATM   15  H   UNL     1      39.661 -16.327  -0.400  1.00  0.00     0.128 HD
BRANCH  14  16
HETATM   16  C   UNL     1      41.008 -14.945  -0.874  1.00  0.00     0.008 A 
HETATM   17  C   UNL     1      40.989 -15.214  -2.251  1.00  0.00     0.026 A 
HETATM   18  C   UNL     1      41.513 -14.313  -3.186  1.00  0.00     0.038 A 
HETATM   19  C   UNL     1      42.083 -13.119  -2.757  1.00  0.00     0.068 A 
HETATM   20  C   UNL     1      42.137 -12.851  -1.391  1.00  0.00     0.038 A 
HETATM   21  C   UNL     1      41.623 -13.762  -0.457  1.00  0.00     0.026 A 
BRANCH  19  22
HETATM   22  O   UNL     1      42.617 -12.147  -3.558  1.00  0.00    -0.352 OA
BRANCH  22  23
HETATM   23  C   UNL     1      42.626 -10.818  -3.042  1.00  0.00     0.171 C 
HETATM   24  C   UNL     1      41.997  -9.906  -4.081  1.00  0.00     0.034 C 
ENDBRANCH  22  23
ENDBRANCH  19  22
ENDBRANCH  14  16
ENDBRANCH  13  14
ENDBRANCH   1  13
BRANCH   9  25
HETATM   25  O   UNL     1      44.832 -21.410   2.628  1.00  0.00    -0.356 OA
HETATM   26  C   UNL     1      44.167 -21.991   1.513  1.00  0.00     0.210 C 
ENDBRANCH   9  25
TORSDOF 6
ENDMDL
MODEL 6
REMARK VINA RESULT:      -6.9      2.690      5.315
REMARK  6 active torsions:
REMARK  status: ('A' for Active; 'I' for Inactive)
REMARK    1  A    between atoms: C_2  and  O_3 
REMARK    2  A    between atoms: O_3  and  C_4 
REMARK    3  A    between atoms: C_7  and  N_8 
REMARK    4  A    between atoms: N_8  and  C_9 
REMARK    5  A    between atoms: C_9  and  C_10 
REMARK    6  A    between atoms: C_18  and  O_19 
ROOT
HETATM    1  C   UNL     1      41.681 -16.660   4.258  1.00  0.00     0.024 A 
HETATM    2  C   UNL     1      41.337 -16.800   2.807  1.00  0.00     0.253 A 
HETATM    3  O   UNL     1      40.558 -16.029   2.253  1.00  0.00    -0.268 OA
HETATM    4  N   UNL     1      41.928 -17.824   2.115  1.00  0.00    -0.322 N 
HETATM    5  C   UNL     1      42.827 -18.729   2.685  1.00  0.00     0.045 A 
HETATM    6  C   UNL     1      43.142 -18.612   4.040  1.00  0.00    -0.006 A 
HETATM    7  C   UNL     1      43.405 -19.729   1.905  1.00  0.00     0.033 A 
HETATM    8  C   UNL     1      44.321 -20.615   2.482  1.00  0.00     0.039 A 
HETATM    9  C   UNL     1      44.654 -20.502   3.834  1.00  0.00     0.069 A 
HETATM   10  C   UNL     1      44.053 -19.505   4.611  1.00  0.00     0.050 A 
HETATM   11  C   UNL     1      42.521 -17.546   4.825  1.00  0.00     0.027 A 
HETATM   12  H   UNL     1      41.681 -17.894   1.137  1.00  0.00     0.169 HD
ENDROOT
BRANCH   1  13
HETATM   13  C   UNL     1      41.008 -15.491   4.932  1.00  0.00     0.136 C 
BRANCH  13  14
HETATM   14  N   UNL     1      41.822 -14.280   4.826  1.00  0.00    -0.289 NA
HETATM   15  H   UNL     1      41.262 -13.456   4.621  1.00  0.00     0.128 HD
BRANCH  14  16
HETATM   16  C   UNL     1      42.759 -13.975   5.820  1.00  0.00     0.008 A 
HETATM   17  C   UNL     1      42.609 -12.763   6.511  1.00  0.00     0.026 A 
HETATM   18  C   UNL     1      43.528 -12.351   7.485  1.00  0.00     0.038 A 
HETATM   19  C   UNL     1      44.632 -13.143   7.779  1.00  0.00     0.068 A 
HETATM   20  C   UNL     1      44.812 -14.335   7.079  1.00  0.00     0.038 A 
HETATM   21  C   UNL     1      43.897 -14.737   6.095  1.00  0.00     0.026 A 
BRANCH  19  22
HETATM   22  O   UNL     1      45.595 -12.870   8.711  1.00  0.00    -0.352 OA
BRANCH  22  23
HETATM   23  C   UNL     1      45.568 -11.576   9.307  1.00  0.00     0.171 C 
HETATM   24  C   UNL     1      45.151 -11.735  10.759  1.00  0.00     0.034 C 
ENDBRANCH  22  23
ENDBRANCH  19  22
ENDBRANCH  14  16
ENDBRANCH  13  14
ENDBRANCH   1  13
BRANCH   9  25
HETATM   25  O   UNL     1      45.538 -21.295   4.511  1.00  0.00    -0.356 OA
HETATM   26  C   UNL     1      45.013 -22.467   5.123  1.00  0.00     0.210 C 
ENDBRANCH   9  25
TORSDOF 6
ENDMDL
MODEL 7
REMARK VINA RESULT:      -6.8      3.094      5.586
REMARK  6 active torsions:
REMARK  status: ('A' for Active; 'I' for Inactive)
REMARK    1  A    between atoms: C_2  and  O_3 
REMARK    2  A    between atoms: O_3  and  C_4 
REMARK    3  A    between atoms: C_7  and  N_8 
REMARK    4  A    between atoms: N_8  and  C_9 
REMARK    5  A    between atoms: C_9  and  C_10 
REMARK    6  A    between atoms: C_18  and  O_19 
ROOT
HETATM    1  C   UNL     1      40.188 -15.727   1.639  1.00  0.00     0.024 A 
HETATM    2  C   UNL     1      40.997 -15.517   0.396  1.00  0.00     0.253 A 
HETATM    3  O   UNL     1      40.650 -14.719  -0.470  1.00  0.00    -0.268 OA
HETATM    4  N   UNL     1      42.146 -16.251   0.259  1.00  0.00    -0.322 N 
HETATM    5  C   UNL     1      42.598 -17.170   1.211  1.00  0.00     0.045 A 
HETATM    6  C   UNL     1      41.842 -17.380   2.366  1.00  0.00    -0.006 A 
HETATM    7  C   UNL     1      43.792 -17.858   1.008  1.00  0.00     0.033 A 
HETATM    8  C   UNL     1      44.246 -18.759   1.978  1.00  0.00     0.039 A 
HETATM    9  C   UNL     1      43.505 -18.969   3.144  1.00  0.00     0.069 A 
HETATM   10  C   UNL     1      42.298 -18.286   3.327  1.00  0.00     0.050 A 
HETATM   11  C   UNL     1      40.598 -16.633   2.547  1.00  0.00     0.027 A 
HETATM   12  H   UNL     1      42.674 -16.088  -0.587  1.00  0.00     0.169 HD
ENDROOT
BRANCH   1  13
HETATM   13  C   UNL     1      38.958 -14.859   1.718  1.00  0.00     0.136 C 
BRANCH  13  14
HETATM   14  N   UNL     1      39.273 -13.547   2.285  1.00  0.00    -0.289 NA
HETATM   15  H   UNL     1      38.437 -13.030   2.546  1.00  0.00     0.128 HD
BRANCH  14  16
HETATM   16  C   UNL     1      40.231 -13.433   3.298  1.00  0.00     0.008 A 
HETATM   17  C   UNL     1      39.814 -13.646   4.621  1.00  0.00     0.026 A 
HETATM   18  C   UNL     1      40.691 -13.501   5.704  1.00  0.00     0.038 A 
HETATM   19  C   UNL     1      42.011 -13.125   5.483  1.00  0.00     0.068 A 
HETATM   20  C   UNL     1      42.432 -12.878   4.178  1.00  0.00     0.038 A 
HETATM   21  C   UNL     1      41.548 -13.011   3.098  1.00  0.00     0.026 A 
BRANCH  19  22
HETATM   22  O   UNL     1      42.973 -12.960   6.441  1.00  0.00    -0.352 OA
BRANCH  22  23
HETATM   23  C   UNL     1      44.083 -13.854   6.403  1.00  0.00     0.171 C 
HETATM   24  C   UNL     1      44.968 -13.558   7.600  1.00  0.00     0.034 C 
ENDBRANCH  22  23
ENDBRANCH  19  22
ENDBRANCH  14  16
ENDBRANCH  13  14
ENDBRANCH   1  13
BRANCH   9  25
HETATM   25  O   UNL     1      43.843 -19.811   4.168  1.00  0.00    -0.356 OA
HETATM   26  C   UNL     1      45.030 -20.578   4.005  1.00  0.00     0.210 C 
ENDBRANCH   9  25
TORSDOF 6
ENDMDL
MODEL 8
REMARK VINA RESULT:      -6.7      3.482      8.495
REMARK  6 active torsions:
REMARK  status: ('A' for Active; 'I' for Inactive)
REMARK    1  A    between atoms: C_2  and  O_3 
REMARK    2  A    between atoms: O_3  and  C_4 
REMARK    3  A    between atoms: C_7  and  N_8 
REMARK    4  A    between atoms: N_8  and  C_9 
REMARK    5  A    between atoms: C_9  and  C_10 
REMARK    6  A    between atoms: C_18  and  O_19 
ROOT
HETATM    1  C   UNL     1      40.600 -14.436   1.462  1.00  0.00     0.024 A 
HETATM    2  C   UNL     1      39.195 -14.698   1.014  1.00  0.00     0.253 A 
HETATM    3  O   UNL     1      38.356 -15.171   1.775  1.00  0.00    -0.268 OA
HETATM    4  N   UNL     1      38.878 -14.388  -0.282  1.00  0.00    -0.322 N 
HETATM    5  C   UNL     1      39.785 -13.842  -1.194  1.00  0.00     0.045 A 
HETATM    6  C   UNL     1      41.101 -13.607  -0.787  1.00  0.00    -0.006 A 
HETATM    7  C   UNL     1      39.377 -13.530  -2.489  1.00  0.00     0.033 A 
HETATM    8  C   UNL     1      40.288 -12.963  -3.386  1.00  0.00     0.039 A 
HETATM    9  C   UNL     1      41.603 -12.712  -2.988  1.00  0.00     0.069 A 
HETATM   10  C   UNL     1      42.007 -13.046  -1.691  1.00  0.00     0.050 A 
HETATM   11  C   UNL     1      41.491 -13.940   0.582  1.00  0.00     0.027 A 
HETATM   12  H   UNL     1      37.922 -14.571  -0.557  1.00  0.00     0.169 HD
ENDROOT
BRANCH   1  13
HETATM   13  C   UNL     1      40.852 -14.780   2.908  1.00  0.00     0.136 C 
BRANCH  13  14
HETATM   14  N   UNL     1      40.585 -16.196   3.168  1.00  0.00    -0.289 NA
HETATM   15  H   UNL     1      39.736 -16.518   2.709  1.00  0.00     0.128 HD
BRANCH  14  16
HETATM   16  C   UNL     1      41.600 -17.144   2.997  1.00  0.00     0.008 A 
HETATM   17  C   UNL     1      42.163 -17.714   4.149  1.00  0.00     0.026 A 
HETATM   18  C   UNL     1      43.218 -18.632   4.077  1.00  0.00     0.038 A 
HETATM   19  C   UNL     1      43.745 -18.991   2.841  1.00  0.00     0.068 A 
HETATM   20  C   UNL     1      43.217 -18.409   1.690  1.00  0.00     0.038 A 
HETATM   21  C   UNL     1      42.170 -17.480   1.767  1.00  0.00     0.026 A 
BRANCH  19  22
HETATM   22  O   UNL     1      44.761 -19.880   2.625  1.00  0.00    -0.352 OA
BRANCH  22  23
HETATM   23  C   UNL     1      44.497 -21.248   2.926  1.00  0.00     0.171 C 
HETATM   24  C   UNL     1      43.987 -21.918   1.663  1.00  0.00     0.034 C 
ENDBRANCH  22  23
ENDBRANCH  19  22
ENDBRANCH  14  16
ENDBRANCH  13  14
ENDBRANCH   1  13
BRANCH   9  25
HETATM   25  O   UNL     1      42.583 -12.155  -3.763  1.00  0.00    -0.356 OA
HETATM   26  C   UNL     1      42.358 -10.831  -4.231  1.00  0.00     0.210 C 
ENDBRANCH   9  25
TORSDOF 6
ENDMDL
MODEL 9
REMARK VINA RESULT:      -6.5      3.781      5.105
REMARK  6 active torsions:
REMARK  status: ('A' for Active; 'I' for Inactive)
REMARK    1  A    between atoms: C_2  and  O_3 
REMARK    2  A    between atoms: O_3  and  C_4 
REMARK    3  A    between atoms: C_7  and  N_8 
REMARK    4  A    between atoms: N_8  and  C_9 
REMARK    5  A    between atoms: C_9  and  C_10 
REMARK    6  A    between atoms: C_18  and  O_19 
ROOT
HETATM    1  C   UNL     1      41.814 -16.467   2.897  1.00  0.00     0.024 A 
HETATM    2  C   UNL     1      41.743 -16.993   1.497  1.00  0.00     0.253 A 
HETATM    3  O   UNL     1      41.156 -16.379   0.609  1.00  0.00    -0.268 OA
HETATM    4  N   UNL     1      42.360 -18.188   1.240  1.00  0.00    -0.322 N 
HETATM    5  C   UNL     1      43.049 -18.929   2.204  1.00  0.00     0.045 A 
HETATM    6  C   UNL     1      43.108 -18.451   3.515  1.00  0.00    -0.006 A 
HETATM    7  C   UNL     1      43.672 -20.125   1.855  1.00  0.00     0.033 A 
HETATM    8  C   UNL     1      44.377 -20.847   2.824  1.00  0.00     0.039 A 
HETATM    9  C   UNL     1      44.455 -20.374   4.136  1.00  0.00     0.069 A 
HETATM   10  C   UNL     1      43.809 -19.181   4.478  1.00  0.00     0.050 A 
HETATM   11  C   UNL     1      42.447 -17.188   3.841  1.00  0.00     0.027 A 
HETATM   12  H   UNL     1      42.299 -18.518   0.286  1.00  0.00     0.169 HD
ENDROOT
BRANCH   1  13
HETATM   13  C   UNL     1      41.132 -15.134   3.082  1.00  0.00     0.136 C 
BRANCH  13  14
HETATM   14  N   UNL     1      39.686 -15.250   2.892  1.00  0.00    -0.289 NA
HETATM   15  H   UNL     1      39.215 -15.601   3.722  1.00  0.00     0.128 HD
BRANCH  14  16
HETATM   16  C   UNL     1      38.960 -14.180   2.358  1.00  0.00     0.008 A 
HETATM   17  C   UNL     1      38.098 -14.445   1.283  1.00  0.00     0.026 A 
HETATM   18  C   UNL     1      37.371 -13.428   0.652  1.00  0.00     0.038 A 
HETATM   19  C   UNL     1      37.505 -12.111   1.078  1.00  0.00     0.068 A 
HETATM   20  C   UNL     1      38.382 -11.827   2.123  1.00  0.00     0.038 A 
HETATM   21  C   UNL     1      39.117 -12.847   2.744  1.00  0.00     0.026 A 
BRANCH  19  22
HETATM   22  O   UNL     1      36.850 -11.026   0.563  1.00  0.00    -0.352 OA
BRANCH  22  23
HETATM   23  C   UNL     1      35.438 -11.140   0.403  1.00  0.00     0.171 C 
HETATM   24  C   UNL     1      35.097 -10.789  -1.034  1.00  0.00     0.034 C 
ENDBRANCH  22  23
ENDBRANCH  19  22
ENDBRANCH  14  16
ENDBRANCH  13  14
ENDBRANCH   1  13
BRANCH   9  25
HETATM   25  O   UNL     1      45.119 -20.978   5.168  1.00  0.00    -0.356 OA
HETATM   26  C   UNL     1      45.166 -22.399   5.159  1.00  0.00     0.210 C 
ENDBRANCH   9  25
TORSDOF 6
ENDMDL
MODEL 10
REMARK VINA RESULT:      -6.5      3.541      5.511
REMARK  6 active torsions:
REMARK  status: ('A' for Active; 'I' for Inactive)
REMARK    1  A    between atoms: C_2  and  O_3 
REMARK    2  A    between atoms: O_3  and  C_4 
REMARK    3  A    between atoms: C_7  and  N_8 
REMARK    4  A    between atoms: N_8  and  C_9 
REMARK    5  A    between atoms: C_9  and  C_10 
REMARK    6  A    between atoms: C_18  and  O_19 
ROOT
HETATM    1  C   UNL     1      41.791 -17.204   1.403  1.00  0.00     0.024 A 
HETATM    2  C   UNL     1      41.020 -16.650   2.561  1.00  0.00     0.253 A 
HETATM    3  O   UNL     1      40.115 -15.835   2.400  1.00  0.00    -0.268 OA
HETATM    4  N   UNL     1      41.359 -17.089   3.813  1.00  0.00    -0.322 N 
HETATM    5  C   UNL     1      42.373 -18.019   4.061  1.00  0.00     0.045 A 
HETATM    6  C   UNL     1      43.105 -18.529   2.987  1.00  0.00    -0.006 A 
HETATM    7  C   UNL     1      42.640 -18.434   5.364  1.00  0.00     0.033 A 
HETATM    8  C   UNL     1      43.642 -19.382   5.598  1.00  0.00     0.039 A 
HETATM    9  C   UNL     1      44.373 -19.910   4.531  1.00  0.00     0.069 A 
HETATM   10  C   UNL     1      44.108 -19.472   3.229  1.00  0.00     0.050 A 
HETATM   11  C   UNL     1      42.791 -18.076   1.633  1.00  0.00     0.027 A 
HETATM   12  H   UNL     1      40.821 -16.702   4.577  1.00  0.00     0.169 HD
ENDROOT
BRANCH   1  13
HETATM   13  C   UNL     1      41.331 -16.687   0.063  1.00  0.00     0.136 C 
BRANCH  13  14
HETATM   14  N   UNL     1      41.763 -15.305  -0.146  1.00  0.00    -0.289 NA
HETATM   15  H   UNL     1      42.769 -15.232  -0.278  1.00  0.00     0.128 HD
BRANCH  14  16
HETATM   16  C   UNL     1      41.107 -14.498  -1.083  1.00  0.00     0.008 A 
HETATM   17  C   UNL     1      41.137 -14.899  -2.427  1.00  0.00     0.026 A 
HETATM   18  C   UNL     1      40.553 -14.129  -3.440  1.00  0.00     0.038 A 
HETATM   19  C   UNL     1      39.933 -12.924  -3.127  1.00  0.00     0.068 A 
HETATM   20  C   UNL     1      39.922 -12.496  -1.801  1.00  0.00     0.038 A 
HETATM   21  C   UNL     1      40.520 -13.265  -0.791  1.00  0.00     0.026 A 
BRANCH  19  22
HETATM   22  O   UNL     1      39.314 -12.082  -4.010  1.00  0.00    -0.352 OA
BRANCH  22  23
HETATM   23  C   UNL     1      39.744 -10.723  -4.016  1.00  0.00     0.171 C 
HETATM   24  C   UNL     1      41.000 -10.630  -4.863  1.00  0.00     0.034 C 
ENDBRANCH  22  23
ENDBRANCH  19  22
ENDBRANCH  14  16
ENDBRANCH  13  14
ENDBRANCH   1  13
BRANCH   9  25
HETATM   25  O   UNL     1      45.366 -20.845   4.625  1.00  0.00    -0.356 OA
HETATM   26  C   UNL     1      44.993 -22.135   5.096  1.00  0.00     0.210 C 
ENDBRANCH   9  25
TORSDOF 6
ENDMDL
