MODEL 1
REMARK VINA RESULT:      -7.7      0.000      0.000
REMARK  4 active torsions:
REMARK  status: ('A' for Active; 'I' for Inactive)
REMARK    1  A    between atoms: C_2  and  C_3 
REMARK    2  A    between atoms: C_3  and  N_4 
REMARK    3  A    between atoms: C_3  and  C_17 
REMARK       I    between atoms: N_4  and  C_5 
REMARK    4  A    between atoms: C_5  and  C_6 
ROOT
HETATM    1  N   UNL     1      41.609 -15.529  -0.695  1.00  0.00    -0.345 N 
HETATM    2  C   UNL     1      41.209 -15.797   0.601  1.00  0.00     0.252 C 
HETATM    3  O   UNL     1      40.188 -15.308   1.076  1.00  0.00    -0.268 OA
HETATM    4  H   UNL     1      42.580 -15.734  -0.902  1.00  0.00     0.163 HD
ENDROOT
BRANCH   1   5
HETATM    5  C   UNL     1      40.992 -14.459  -1.490  1.00  0.00     0.152 C 
BRANCH   5   6
HETATM    6  C   UNL     1      42.067 -13.558  -2.114  1.00  0.00     0.028 C 
HETATM    7  C   UNL     1      42.403 -12.327  -1.280  1.00  0.00     0.007 C 
ENDBRANCH   5   6
BRANCH   5   8
HETATM    8  C   UNL     1      39.942 -14.979  -2.487  1.00  0.00     0.104 A 
HETATM    9  N   UNL     1      38.783 -14.390  -2.820  1.00  0.00    -0.347 N 
HETATM   10  H   UNL     1      38.500 -13.504  -2.376  1.00  0.00     0.167 HD
HETATM   11  C   UNL     1      38.075 -15.098  -3.767  1.00  0.00     0.022 A 
HETATM   12  C   UNL     1      36.768 -14.671  -4.290  1.00  0.00     0.069 C 
HETATM   13  C   UNL     1      38.865 -16.184  -4.045  1.00  0.00     0.114 A 
HETATM   14  N   UNL     1      39.994 -16.080  -3.259  1.00  0.00    -0.352 N 
HETATM   15  H   UNL     1      40.764 -16.743  -3.267  1.00  0.00     0.166 HD
ENDBRANCH   5   8
ENDBRANCH   1   5
BRANCH   2  16
HETATM   16  C   UNL     1      42.079 -16.693   1.416  1.00  0.00     0.033 A 
HETATM   17  C   UNL     1      41.678 -16.958   2.740  1.00  0.00     0.031 A 
HETATM   18  C   UNL     1      42.481 -17.792   3.538  1.00  0.00     0.001 A 
HETATM   19  C   UNL     1      43.636 -18.328   2.987  1.00  0.00     0.086 A 
HETATM   20  C   UNL     1      42.429 -18.279   4.872  1.00  0.00     0.046 A 
HETATM   21  O   UNL     1      44.284 -19.101   3.899  1.00  0.00    -0.315 OA
HETATM   22  C   UNL     1      44.056 -18.102   1.678  1.00  0.00     0.039 A 
HETATM   23  C   UNL     1      43.547 -19.069   5.046  1.00  0.00     0.050 A 
HETATM   24  C   UNL     1      44.068 -19.846   6.189  1.00  0.00     0.077 C 
HETATM   25  C   UNL     1      43.246 -17.273   0.892  1.00  0.00     0.020 A 
ENDBRANCH   2  16
TORSDOF 4
ENDMDL
MODEL 2
REMARK VINA RESULT:      -7.6      5.886      7.246
REMARK  4 active torsions:
REMARK  status: ('A' for Active; 'I' for Inactive)
REMARK    1  A    between atoms: C_2  and  C_3 
REMARK    2  A    between atoms: C_3  and  N_4 
REMARK    3  A    between atoms: C_3  and  C_17 
REMARK       I    between atoms: N_4  and  C_5 
REMARK    4  A    between atoms: C_5  and  C_6 
ROOT
HETATM    1  N   UNL     1      43.570 -15.635   5.900  1.00  0.00    -0.345 N 
HETATM    2  C   UNL     1      43.587 -16.798   6.647  1.00  0.00     0.252 C 
HETATM    3  O   UNL     1      43.420 -16.788   7.863  1.00  0.00    -0.268 OA
HETATM    4  H   UNL     1      43.989 -15.703   4.979  1.00  0.00     0.163 HD
ENDROOT
BRANCH   1   5
HETATM    5  C   UNL     1      43.608 -14.309   6.531  1.00  0.00     0.152 C 
BRANCH   5   6
HETATM    6  C   UNL     1      45.057 -13.826   6.692  1.00  0.00     0.028 C 
HETATM    7  C   UNL     1      45.322 -13.086   7.997  1.00  0.00     0.007 C 
ENDBRANCH   5   6
BRANCH   5   8
HETATM    8  C   UNL     1      42.671 -13.294   5.856  1.00  0.00     0.104 A 
HETATM    9  N   UNL     1      41.785 -12.486   6.459  1.00  0.00    -0.347 N 
HETATM   10  H   UNL     1      41.658 -12.520   7.481  1.00  0.00     0.167 HD
HETATM   11  C   UNL     1      41.115 -11.669   5.574  1.00  0.00     0.022 A 
HETATM   12  C   UNL     1      40.085 -10.703   5.983  1.00  0.00     0.069 C 
HETATM   13  C   UNL     1      41.641 -11.988   4.348  1.00  0.00     0.114 A 
HETATM   14  N   UNL     1      42.588 -12.970   4.552  1.00  0.00    -0.352 N 
HETATM   15  H   UNL     1      43.150 -13.388   3.816  1.00  0.00     0.166 HD
ENDBRANCH   5   8
ENDBRANCH   1   5
BRANCH   2  16
HETATM   16  C   UNL     1      43.837 -18.076   5.920  1.00  0.00     0.033 A 
HETATM   17  C   UNL     1      43.693 -18.065   4.519  1.00  0.00     0.031 A 
HETATM   18  C   UNL     1      43.912 -19.256   3.804  1.00  0.00     0.001 A 
HETATM   19  C   UNL     1      44.270 -20.398   4.509  1.00  0.00     0.086 A 
HETATM   20  C   UNL     1      43.864 -19.646   2.439  1.00  0.00     0.046 A 
HETATM   21  O   UNL     1      44.436 -21.447   3.661  1.00  0.00    -0.315 OA
HETATM   22  C   UNL     1      44.437 -20.443   5.890  1.00  0.00     0.039 A 
HETATM   23  C   UNL     1      44.187 -20.987   2.401  1.00  0.00     0.050 A 
HETATM   24  C   UNL     1      44.308 -21.968   1.303  1.00  0.00     0.077 C 
HETATM   25  C   UNL     1      44.220 -19.249   6.591  1.00  0.00     0.020 A 
ENDBRANCH   2  16
TORSDOF 4
ENDMDL
MODEL 3
REMARK VINA RESULT:      -7.6      2.435      3.244
REMARK  4 active torsions:
REMARK  status: ('A' for Active; 'I' for Inactive)
REMARK    1  A    between atoms: C_2  and  C_3 
REMARK    2  A    between atoms: C_3  and  N_4 
REMARK    3  A    between atoms: C_3  and  C_17 
REMARK       I    between atoms: N_4  and  C_5 
REMARK    4  A    between atoms: C_5  and  C_6 
ROOT
HETATM    1  N   UNL     1      41.500 -16.110   0.349  1.00  0.00    -0.345 N 
HETATM    2  C   UNL     1      42.285 -15.835   1.453  1.00  0.00     0.252 C 
HETATM    3  O   UNL     1      42.505 -14.683   1.818  1.00  0.00    -0.268 OA
HETATM    4  H   UNL     1      41.605 -17.042  -0.038  1.00  0.00     0.163 HD
ENDROOT
BRANCH   1   5
HETATM    5  C   UNL     1      41.095 -15.061  -0.595  1.00  0.00     0.152 C 
BRANCH   5   6
HETATM    6  C   UNL     1      41.014 -15.620  -2.024  1.00  0.00     0.028 C 
HETATM    7  C   UNL     1      41.328 -14.595  -3.108  1.00  0.00     0.007 C 
ENDBRANCH   5   6
BRANCH   5   8
HETATM    8  C   UNL     1      39.843 -14.292  -0.141  1.00  0.00     0.104 A 
HETATM    9  N   UNL     1      39.768 -13.376   0.837  1.00  0.00    -0.347 N 
HETATM   10  H   UNL     1      40.601 -13.136   1.393  1.00  0.00     0.167 HD
HETATM   11  C   UNL     1      38.503 -12.848   0.980  1.00  0.00     0.022 A 
HETATM   12  C   UNL     1      38.157 -11.835   1.989  1.00  0.00     0.069 C 
HETATM   13  C   UNL     1      37.759 -13.471   0.011  1.00  0.00     0.114 A 
HETATM   14  N   UNL     1      38.601 -14.335  -0.657  1.00  0.00    -0.352 N 
HETATM   15  H   UNL     1      38.321 -14.921  -1.439  1.00  0.00     0.166 HD
ENDBRANCH   5   8
ENDBRANCH   1   5
BRANCH   2  16
HETATM   16  C   UNL     1      42.877 -16.993   2.181  1.00  0.00     0.033 A 
HETATM   17  C   UNL     1      42.923 -18.229   1.506  1.00  0.00     0.031 A 
HETATM   18  C   UNL     1      43.466 -19.345   2.168  1.00  0.00     0.001 A 
HETATM   19  C   UNL     1      43.945 -19.181   3.461  1.00  0.00     0.086 A 
HETATM   20  C   UNL     1      43.678 -20.712   1.849  1.00  0.00     0.046 A 
HETATM   21  O   UNL     1      44.427 -20.359   3.941  1.00  0.00    -0.315 OA
HETATM   22  C   UNL     1      43.933 -17.973   4.153  1.00  0.00     0.039 A 
HETATM   23  C   UNL     1      44.263 -21.289   2.957  1.00  0.00     0.050 A 
HETATM   24  C   UNL     1      44.721 -22.661   3.261  1.00  0.00     0.077 C 
HETATM   25  C   UNL     1      43.392 -16.869   3.482  1.00  0.00     0.020 A 
ENDBRANCH   2  16
TORSDOF 4
ENDMDL
MODEL 4
REMARK VINA RESULT:      -7.5      1.938      2.507
REMARK  4 active torsions:
REMARK  status: ('A' for Active; 'I' for Inactive)
REMARK    1  A    between atoms: C_2  and  C_3 
REMARK    2  A    between atoms: C_3  and  N_4 
REMARK    3  A    between atoms: C_3  and  C_17 
REMARK       I    between atoms: N_4  and  C_5 
REMARK    4  A    between atoms: C_5  and  C_6 
ROOT
HETATM    1  N   UNL     1      42.060 -15.653   0.744  1.00  0.00    -0.345 N 
HETATM    2  C   UNL     1      41.429 -16.534   1.601  1.00  0.00     0.252 C 
HETATM    3  O   UNL     1      40.217 -16.491   1.795  1.00  0.00    -0.268 OA
HETATM    4  H   UNL     1      43.064 -15.576   0.861  1.00  0.00     0.163 HD
ENDROOT
BRANCH   1   5
HETATM    5  C   UNL     1      41.379 -14.464   0.215  1.00  0.00     0.152 C 
BRANCH   5   6
HETATM    6  C   UNL     1      42.118 -13.184   0.635  1.00  0.00     0.028 C 
HETATM    7  C   UNL     1      42.114 -12.932   2.139  1.00  0.00     0.007 C 
ENDBRANCH   5   6
BRANCH   5   8
HETATM    8  C   UNL     1      41.079 -14.560  -1.290  1.00  0.00     0.104 A 
HETATM    9  N   UNL     1      40.086 -15.247  -1.874  1.00  0.00    -0.347 N 
HETATM   10  H   UNL     1      39.434 -15.808  -1.306  1.00  0.00     0.167 HD
HETATM   11  C   UNL     1      40.071 -15.108  -3.245  1.00  0.00     0.022 A 
HETATM   12  C   UNL     1      39.089 -15.770  -4.117  1.00  0.00     0.069 C 
HETATM   13  C   UNL     1      41.117 -14.263  -3.515  1.00  0.00     0.114 A 
HETATM   14  N   UNL     1      41.704 -13.941  -2.309  1.00  0.00    -0.352 N 
HETATM   15  H   UNL     1      42.499 -13.316  -2.205  1.00  0.00     0.166 HD
ENDBRANCH   5   8
ENDBRANCH   1   5
BRANCH   2  16
HETATM   16  C   UNL     1      42.280 -17.537   2.303  1.00  0.00     0.033 A 
HETATM   17  C   UNL     1      42.456 -18.789   1.682  1.00  0.00     0.031 A 
HETATM   18  C   UNL     1      43.245 -19.760   2.323  1.00  0.00     0.001 A 
HETATM   19  C   UNL     1      43.828 -19.444   3.543  1.00  0.00     0.086 A 
HETATM   20  C   UNL     1      43.645 -21.094   2.040  1.00  0.00     0.046 A 
HETATM   21  O   UNL     1      44.547 -20.497   4.013  1.00  0.00    -0.315 OA
HETATM   22  C   UNL     1      43.691 -18.213   4.179  1.00  0.00     0.039 A 
HETATM   23  C   UNL     1      44.434 -21.501   3.096  1.00  0.00     0.050 A 
HETATM   24  C   UNL     1      45.142 -22.760   3.403  1.00  0.00     0.077 C 
HETATM   25  C   UNL     1      42.905 -17.252   3.529  1.00  0.00     0.020 A 
ENDBRANCH   2  16
TORSDOF 4
ENDMDL
MODEL 5
REMARK VINA RESULT:      -7.5      1.068      1.430
REMARK  4 active torsions:
REMARK  status: ('A' for Active; 'I' for Inactive)
REMARK    1  A    between atoms: C_2  and  C_3 
REMARK    2  A    between atoms: C_3  and  N_4 
REMARK    3  A    between atoms: C_3  and  C_17 
REMARK       I    between atoms: N_4  and  C_5 
REMARK    4  A    between atoms: C_5  and  C_6 
ROOT
HETATM    1  N   UNL     1      41.633 -15.128  -0.812  1.00  0.00    -0.345 N 
HETATM    2  C   UNL     1      41.142 -15.291   0.469  1.00  0.00     0.252 C 
HETATM    3  O   UNL     1      40.070 -14.805   0.817  1.00  0.00    -0.268 OA
HETATM    4  H   UNL     1      42.624 -15.310  -0.925  1.00  0.00     0.163 HD
ENDROOT
BRANCH   1   5
HETATM    5  C   UNL     1      41.043 -14.165  -1.751  1.00  0.00     0.152 C 
BRANCH   5   6
HETATM    6  C   UNL     1      42.140 -13.435  -2.540  1.00  0.00     0.028 C 
HETATM    7  C   UNL     1      42.590 -12.124  -1.906  1.00  0.00     0.007 C 
ENDBRANCH   5   6
BRANCH   5   8
HETATM    8  C   UNL     1      39.933 -14.776  -2.623  1.00  0.00     0.104 A 
HETATM    9  N   UNL     1      38.774 -14.200  -2.977  1.00  0.00    -0.347 N 
HETATM   10  H   UNL     1      38.536 -13.255  -2.641  1.00  0.00     0.167 HD
HETATM   11  C   UNL     1      38.003 -15.002  -3.791  1.00  0.00     0.022 A 
HETATM   12  C   UNL     1      36.684 -14.605  -4.306  1.00  0.00     0.069 C 
HETATM   13  C   UNL     1      38.751 -16.139  -3.960  1.00  0.00     0.114 A 
HETATM   14  N   UNL     1      39.919 -15.969  -3.246  1.00  0.00    -0.352 N 
HETATM   15  H   UNL     1      40.671 -16.652  -3.202  1.00  0.00     0.166 HD
ENDBRANCH   5   8
ENDBRANCH   1   5
BRANCH   2  16
HETATM   16  C   UNL     1      41.976 -16.069   1.430  1.00  0.00     0.033 A 
HETATM   17  C   UNL     1      42.242 -17.416   1.116  1.00  0.00     0.031 A 
HETATM   18  C   UNL     1      43.017 -18.181   2.006  1.00  0.00     0.001 A 
HETATM   19  C   UNL     1      43.498 -17.574   3.158  1.00  0.00     0.086 A 
HETATM   20  C   UNL     1      43.485 -19.521   2.053  1.00  0.00     0.046 A 
HETATM   21  O   UNL     1      44.219 -18.459   3.896  1.00  0.00    -0.315 OA
HETATM   22  C   UNL     1      43.270 -16.242   3.494  1.00  0.00     0.039 A 
HETATM   23  C   UNL     1      44.209 -19.644   3.221  1.00  0.00     0.050 A 
HETATM   24  C   UNL     1      44.939 -20.767   3.845  1.00  0.00     0.077 C 
HETATM   25  C   UNL     1      42.499 -15.490   2.598  1.00  0.00     0.020 A 
ENDBRANCH   2  16
TORSDOF 4
ENDMDL
MODEL 6
REMARK VINA RESULT:      -7.4      1.615      3.405
REMARK  4 active torsions:
REMARK  status: ('A' for Active; 'I' for Inactive)
REMARK    1  A    between atoms: C_2  and  C_3 
REMARK    2  A    between atoms: C_3  and  N_4 
REMARK    3  A    between atoms: C_3  and  C_17 
REMARK       I    between atoms: N_4  and  C_5 
REMARK    4  A    between atoms: C_5  and  C_6 
ROOT
HETATM    1  N   UNL     1      41.102 -16.061  -1.700  1.00  0.00    -0.345 N 
HETATM    2  C   UNL     1      40.752 -15.542  -0.468  1.00  0.00     0.252 C 
HETATM    3  O   UNL     1      40.097 -14.508  -0.365  1.00  0.00    -0.268 OA
HETATM    4  H   UNL     1      41.861 -16.733  -1.690  1.00  0.00     0.163 HD
ENDROOT
BRANCH   1   5
HETATM    5  C   UNL     1      40.940 -15.290  -2.940  1.00  0.00     0.152 C 
BRANCH   5   6
HETATM    6  C   UNL     1      39.456 -15.186  -3.324  1.00  0.00     0.028 C 
HETATM    7  C   UNL     1      38.985 -16.279  -4.276  1.00  0.00     0.007 C 
ENDBRANCH   5   6
BRANCH   5   8
HETATM    8  C   UNL     1      41.685 -13.945  -2.915  1.00  0.00     0.104 A 
HETATM    9  N   UNL     1      41.625 -12.970  -3.836  1.00  0.00    -0.347 N 
HETATM   10  H   UNL     1      41.053 -13.088  -4.684  1.00  0.00     0.167 HD
HETATM   11  C   UNL     1      42.393 -11.874  -3.506  1.00  0.00     0.022 A 
HETATM   12  C   UNL     1      42.505 -10.678  -4.355  1.00  0.00     0.069 C 
HETATM   13  C   UNL     1      42.944 -12.193  -2.292  1.00  0.00     0.114 A 
HETATM   14  N   UNL     1      42.491 -13.452  -1.956  1.00  0.00    -0.352 N 
HETATM   15  H   UNL     1      42.729 -13.939  -1.096  1.00  0.00     0.166 HD
ENDBRANCH   5   8
ENDBRANCH   1   5
BRANCH   2  16
HETATM   16  C   UNL     1      41.217 -16.276   0.743  1.00  0.00     0.033 A 
HETATM   17  C   UNL     1      42.393 -17.043   0.626  1.00  0.00     0.031 A 
HETATM   18  C   UNL     1      42.854 -17.755   1.747  1.00  0.00     0.001 A 
HETATM   19  C   UNL     1      42.134 -17.670   2.931  1.00  0.00     0.086 A 
HETATM   20  C   UNL     1      43.950 -18.615   2.025  1.00  0.00     0.046 A 
HETATM   21  O   UNL     1      42.721 -18.421   3.899  1.00  0.00    -0.315 OA
HETATM   22  C   UNL     1      40.978 -16.910   3.090  1.00  0.00     0.039 A 
HETATM   23  C   UNL     1      43.827 -18.996   3.345  1.00  0.00     0.050 A 
HETATM   24  C   UNL     1      44.630 -19.869   4.225  1.00  0.00     0.077 C 
HETATM   25  C   UNL     1      40.531 -16.202   1.966  1.00  0.00     0.020 A 
ENDBRANCH   2  16
TORSDOF 4
ENDMDL
MODEL 7
REMARK VINA RESULT:      -7.4      2.734      3.721
REMARK  4 active torsions:
REMARK  status: ('A' for Active; 'I' for Inactive)
REMARK    1  A    between atoms: C_2  and  C_3 
REMARK    2  A    between atoms: C_3  and  N_4 
REMARK    3  A    between atoms: C_3  and  C_17 
REMARK       I    between atoms: N_4  and  C_5 
REMARK    4  A    between atoms: C_5  and  C_6 
ROOT
HETATM    1  N   UNL     1      41.720 -15.120   1.601  1.00  0.00    -0.345 N 
HETATM    2  C   UNL     1      42.179 -16.362   1.208  1.00  0.00     0.252 C 
HETATM    3  O   UNL     1      42.066 -16.756   0.051  1.00  0.00    -0.268 OA
HETATM    4  H   UNL     1      41.596 -14.997   2.600  1.00  0.00     0.163 HD
ENDROOT
BRANCH   1   5
HETATM    5  C   UNL     1      40.851 -14.307   0.739  1.00  0.00     0.152 C 
BRANCH   5   6
HETATM    6  C   UNL     1      39.876 -13.473   1.584  1.00  0.00     0.028 C 
HETATM    7  C   UNL     1      39.950 -13.760   3.079  1.00  0.00     0.007 C 
ENDBRANCH   5   6
BRANCH   5   8
HETATM    8  C   UNL     1      41.632 -13.499  -0.311  1.00  0.00     0.104 A 
HETATM    9  N   UNL     1      42.082 -12.240  -0.193  1.00  0.00    -0.347 N 
HETATM   10  H   UNL     1      41.895 -11.698   0.663  1.00  0.00     0.167 HD
HETATM   11  C   UNL     1      42.772 -11.810  -1.305  1.00  0.00     0.022 A 
HETATM   12  C   UNL     1      43.355 -10.466  -1.428  1.00  0.00     0.069 C 
HETATM   13  C   UNL     1      42.759 -12.887  -2.154  1.00  0.00     0.114 A 
HETATM   14  N   UNL     1      42.067 -13.898  -1.521  1.00  0.00    -0.352 N 
HETATM   15  H   UNL     1      41.912 -14.823  -1.913  1.00  0.00     0.166 HD
ENDBRANCH   5   8
ENDBRANCH   1   5
BRANCH   2  16
HETATM   16  C   UNL     1      42.805 -17.224   2.252  1.00  0.00     0.033 A 
HETATM   17  C   UNL     1      43.173 -18.532   1.879  1.00  0.00     0.031 A 
HETATM   18  C   UNL     1      43.757 -19.374   2.842  1.00  0.00     0.001 A 
HETATM   19  C   UNL     1      43.954 -18.879   4.125  1.00  0.00     0.086 A 
HETATM   20  C   UNL     1      44.242 -20.708   2.866  1.00  0.00     0.046 A 
HETATM   21  O   UNL     1      44.522 -19.827   4.917  1.00  0.00    -0.315 OA
HETATM   22  C   UNL     1      43.619 -17.589   4.526  1.00  0.00     0.039 A 
HETATM   23  C   UNL     1      44.696 -20.940   4.148  1.00  0.00     0.050 A 
HETATM   24  C   UNL     1      45.304 -22.113   4.809  1.00  0.00     0.077 C 
HETATM   25  C   UNL     1      43.041 -16.758   3.556  1.00  0.00     0.020 A 
ENDBRANCH   2  16
TORSDOF 4
ENDMDL
MODEL 8
REMARK VINA RESULT:      -7.3      2.681      3.411
REMARK  4 active torsions:
REMARK  status: ('A' for Active; 'I' for Inactive)
REMARK    1  A    between atoms: C_2  and  C_3 
REMARK    2  A    between atoms: C_3  and  N_4 
REMARK    3  A    between atoms: C_3  and  C_17 
REMARK       I    between atoms: N_4  and  C_5 
REMARK    4  A    between atoms: C_5  and  C_6 
ROOT
HETATM    1  N   UNL     1      41.794 -14.985   1.347  1.00  0.00    -0.345 N 
HETATM    2  C   UNL     1      41.972 -16.280   0.897  1.00  0.00     0.252 C 
HETATM    3  O   UNL     1      41.622 -16.626  -0.228  1.00  0.00    -0.268 OA
HETATM    4  H   UNL     1      41.845 -14.863   2.352  1.00  0.00     0.163 HD
ENDROOT
BRANCH   1   5
HETATM    5  C   UNL     1      40.957 -14.021   0.621  1.00  0.00     0.152 C 
BRANCH   5   6
HETATM    6  C   UNL     1      40.182 -13.129   1.603  1.00  0.00     0.028 C 
HETATM    7  C   UNL     1      39.705 -13.856   2.854  1.00  0.00     0.007 C 
ENDBRANCH   5   6
BRANCH   5   8
HETATM    8  C   UNL     1      41.728 -13.250  -0.464  1.00  0.00     0.104 A 
HETATM    9  N   UNL     1      42.165 -11.983  -0.399  1.00  0.00    -0.347 N 
HETATM   10  H   UNL     1      41.974 -11.406   0.433  1.00  0.00     0.167 HD
HETATM   11  C   UNL     1      42.851 -11.593  -1.530  1.00  0.00     0.022 A 
HETATM   12  C   UNL     1      43.419 -10.249  -1.710  1.00  0.00     0.069 C 
HETATM   13  C   UNL     1      42.848 -12.705  -2.332  1.00  0.00     0.114 A 
HETATM   14  N   UNL     1      42.167 -13.696  -1.656  1.00  0.00    -0.352 N 
HETATM   15  H   UNL     1      42.021 -14.638  -2.009  1.00  0.00     0.166 HD
ENDBRANCH   5   8
ENDBRANCH   1   5
BRANCH   2  16
HETATM   16  C   UNL     1      42.592 -17.255   1.839  1.00  0.00     0.033 A 
HETATM   17  C   UNL     1      42.191 -17.199   3.188  1.00  0.00     0.031 A 
HETATM   18  C   UNL     1      42.763 -18.099   4.105  1.00  0.00     0.001 A 
HETATM   19  C   UNL     1      43.699 -19.014   3.641  1.00  0.00     0.086 A 
HETATM   20  C   UNL     1      42.636 -18.350   5.497  1.00  0.00     0.046 A 
HETATM   21  O   UNL     1      44.145 -19.795   4.661  1.00  0.00    -0.315 OA
HETATM   22  C   UNL     1      44.108 -19.110   2.314  1.00  0.00     0.039 A 
HETATM   23  C   UNL     1      43.496 -19.388   5.790  1.00  0.00     0.050 A 
HETATM   24  C   UNL     1      43.829 -20.105   7.038  1.00  0.00     0.077 C 
HETATM   25  C   UNL     1      43.528 -18.210   1.410  1.00  0.00     0.020 A 
ENDBRANCH   2  16
TORSDOF 4
ENDMDL
MODEL 9
REMARK VINA RESULT:      -7.2      4.006      6.010
REMARK  4 active torsions:
REMARK  status: ('A' for Active; 'I' for Inactive)
REMARK    1  A    between atoms: C_2  and  C_3 
REMARK    2  A    between atoms: C_3  and  N_4 
REMARK    3  A    between atoms: C_3  and  C_17 
REMARK       I    between atoms: N_4  and  C_5 
REMARK    4  A    between atoms: C_5  and  C_6 
ROOT
HETATM    1  N   UNL     1      41.532 -15.385   3.505  1.00  0.00    -0.345 N 
HETATM    2  C   UNL     1      42.874 -15.633   3.286  1.00  0.00     0.252 C 
HETATM    3  O   UNL     1      43.681 -14.722   3.124  1.00  0.00    -0.268 OA
HETATM    4  H   UNL     1      40.912 -16.171   3.344  1.00  0.00     0.163 HD
ENDROOT
BRANCH   1   5
HETATM    5  C   UNL     1      40.948 -14.051   3.306  1.00  0.00     0.152 C 
BRANCH   5   6
HETATM    6  C   UNL     1      39.547 -14.160   2.685  1.00  0.00     0.028 C 
HETATM    7  C   UNL     1      39.351 -15.395   1.814  1.00  0.00     0.007 C 
ENDBRANCH   5   6
BRANCH   5   8
HETATM    8  C   UNL     1      41.019 -13.169   4.564  1.00  0.00     0.104 A 
HETATM    9  N   UNL     1      40.020 -12.902   5.421  1.00  0.00    -0.347 N 
HETATM   10  H   UNL     1      39.077 -13.283   5.258  1.00  0.00     0.167 HD
HETATM   11  C   UNL     1      40.414 -12.097   6.468  1.00  0.00     0.022 A 
HETATM   12  C   UNL     1      39.504 -11.652   7.534  1.00  0.00     0.069 C 
HETATM   13  C   UNL     1      41.748 -11.873   6.245  1.00  0.00     0.114 A 
HETATM   14  N   UNL     1      42.088 -12.542   5.088  1.00  0.00    -0.352 N 
HETATM   15  H   UNL     1      43.022 -12.563   4.688  1.00  0.00     0.166 HD
ENDBRANCH   5   8
ENDBRANCH   1   5
BRANCH   2  16
HETATM   16  C   UNL     1      43.308 -17.058   3.233  1.00  0.00     0.033 A 
HETATM   17  C   UNL     1      43.635 -17.683   4.452  1.00  0.00     0.031 A 
HETATM   18  C   UNL     1      44.058 -19.024   4.436  1.00  0.00     0.001 A 
HETATM   19  C   UNL     1      44.129 -19.683   3.216  1.00  0.00     0.086 A 
HETATM   20  C   UNL     1      44.467 -19.973   5.411  1.00  0.00     0.046 A 
HETATM   21  O   UNL     1      44.557 -20.962   3.392  1.00  0.00    -0.315 OA
HETATM   22  C   UNL     1      43.799 -19.105   1.994  1.00  0.00     0.039 A 
HETATM   23  C   UNL     1      44.763 -21.135   4.729  1.00  0.00     0.050 A 
HETATM   24  C   UNL     1      45.239 -22.466   5.158  1.00  0.00     0.077 C 
HETATM   25  C   UNL     1      43.376 -17.769   2.023  1.00  0.00     0.020 A 
ENDBRANCH   2  16
TORSDOF 4
ENDMDL
MODEL 10
REMARK VINA RESULT:      -7.0      2.319      3.728
REMARK  4 active torsions:
REMARK  status: ('A' for Active; 'I' for Inactive)
REMARK    1  A    between atoms: C_2  and  C_3 
REMARK    2  A    between atoms: C_3  and  N_4 
REMARK    3  A    between atoms: C_3  and  C_17 
REMARK       I    between atoms: N_4  and  C_5 
REMARK    4  A    between atoms: C_5  and  C_6 
ROOT
HETATM    1  N   UNL     1      40.634 -16.056   3.221  1.00  0.00    -0.345 N 
HETATM    2  C   UNL     1      41.977 -16.093   2.897  1.00  0.00     0.252 C 
HETATM    3  O   UNL     1      42.594 -15.080   2.582  1.00  0.00    -0.268 OA
HETATM    4  H   UNL     1      40.153 -16.948   3.188  1.00  0.00     0.163 HD
ENDROOT
BRANCH   1   5
HETATM    5  C   UNL     1      39.808 -14.868   2.966  1.00  0.00     0.152 C 
BRANCH   5   6
HETATM    6  C   UNL     1      39.961 -13.847   4.103  1.00  0.00     0.028 C 
HETATM    7  C   UNL     1      40.066 -14.474   5.488  1.00  0.00     0.007 C 
ENDBRANCH   5   6
BRANCH   5   8
HETATM    8  C   UNL     1      40.010 -14.286   1.557  1.00  0.00     0.104 A 
HETATM    9  N   UNL     1      39.544 -14.785   0.402  1.00  0.00    -0.347 N 
HETATM   10  H   UNL     1      39.005 -15.663   0.392  1.00  0.00     0.167 HD
HETATM   11  C   UNL     1      39.874 -14.011  -0.689  1.00  0.00     0.022 A 
HETATM   12  C   UNL     1      39.492 -14.348  -2.068  1.00  0.00     0.069 C 
HETATM   13  C   UNL     1      40.575 -12.956  -0.161  1.00  0.00     0.114 A 
HETATM   14  N   UNL     1      40.634 -13.147   1.203  1.00  0.00    -0.352 N 
HETATM   15  H   UNL     1      41.084 -12.509   1.854  1.00  0.00     0.166 HD
ENDBRANCH   5   8
ENDBRANCH   1   5
BRANCH   2  16
HETATM   16  C   UNL     1      42.652 -17.422   2.924  1.00  0.00     0.033 A 
HETATM   17  C   UNL     1      43.021 -17.938   4.183  1.00  0.00     0.031 A 
HETATM   18  C   UNL     1      43.669 -19.184   4.243  1.00  0.00     0.001 A 
HETATM   19  C   UNL     1      43.913 -19.863   3.057  1.00  0.00     0.086 A 
HETATM   20  C   UNL     1      44.187 -20.012   5.275  1.00  0.00     0.046 A 
HETATM   21  O   UNL     1      44.546 -21.041   3.306  1.00  0.00    -0.315 OA
HETATM   22  C   UNL     1      43.549 -19.395   1.798  1.00  0.00     0.039 A 
HETATM   23  C   UNL     1      44.712 -21.128   4.657  1.00  0.00     0.050 A 
HETATM   24  C   UNL     1      45.388 -22.340   5.164  1.00  0.00     0.077 C 
HETATM   25  C   UNL     1      42.902 -18.153   1.751  1.00  0.00     0.020 A 
ENDBRANCH   2  16
TORSDOF 4
ENDMDL
