MODEL 1
REMARK VINA RESULT:      -9.2      0.000      0.000
REMARK  8 active torsions:
REMARK  status: ('A' for Active; 'I' for Inactive)
REMARK    1  A    between atoms: O_2  and  C_3 
REMARK    2  A    between atoms: C_4  and  O_5 
REMARK    3  A    between atoms: C_8  and  C_9 
REMARK       I    between atoms: C_9  and  N_10 
REMARK    4  A    between atoms: N_10  and  N_11 
REMARK       I    between atoms: N_11  and  C_12 
REMARK    5  A    between atoms: C_12  and  C_13 
REMARK    6  A    between atoms: C_13  and  S_14 
REMARK    7  A    between atoms: S_14  and  C_15 
REMARK    8  A    between atoms: C_18  and  C_19 
ROOT
HETATM    1  N   UNL     1      43.624 -12.372   8.120  1.00  0.00    -0.267 N 
HETATM    2  C   UNL     1      44.752 -13.142   7.907  1.00  0.00     0.245 C 
HETATM    3  O   UNL     1      45.651 -13.240   8.746  1.00  0.00    -0.271 OA
HETATM    4  H   UNL     1      42.757 -12.606   7.614  1.00  0.00     0.190 HD
ENDROOT
BRANCH   2   5
HETATM    5  C   UNL     1      44.810 -13.822   6.554  1.00  0.00     0.187 C 
BRANCH   5   6
HETATM    6  S   UNL     1      43.268 -14.715   6.211  1.00  0.00    -0.083 SA
BRANCH   6   7
HETATM    7  C   UNL     1      43.867 -16.316   6.013  1.00  0.00     0.167 A 
HETATM    8  N   UNL     1      44.652 -16.971   6.829  1.00  0.00    -0.235 NA
HETATM    9  C   UNL     1      44.872 -18.175   6.202  1.00  0.00     0.149 A 
HETATM   10  C   UNL     1      44.188 -18.259   5.000  1.00  0.00     0.062 A 
HETATM   11  N   UNL     1      43.553 -17.040   4.905  1.00  0.00    -0.333 N 
HETATM   12  H   UNL     1      42.982 -16.712   4.140  1.00  0.00     0.168 HD
BRANCH  10  13
HETATM   13  C   UNL     1      44.112 -19.309   3.990  1.00  0.00    -0.008 A 
HETATM   14  C   UNL     1      43.416 -19.109   2.787  1.00  0.00     0.017 A 
HETATM   15  C   UNL     1      43.349 -20.122   1.827  1.00  0.00     0.043 A 
HETATM   16  C   UNL     1      43.978 -21.336   2.066  1.00  0.00     0.116 A 
HETATM   17  F   UNL     1      43.915 -22.306   1.145  1.00  0.00    -0.206 F 
HETATM   18  C   UNL     1      44.671 -21.559   3.249  1.00  0.00     0.043 A 
HETATM   19  C   UNL     1      44.736 -20.547   4.211  1.00  0.00     0.017 A 
ENDBRANCH  10  13
ENDBRANCH   6   7
ENDBRANCH   5   6
ENDBRANCH   2   5
BRANCH   1  20
HETATM   20  N   UNL     1      43.460 -11.819   9.398  1.00  0.00    -0.263 N 
HETATM   21  C   UNL     1      42.866 -10.578   9.517  1.00  0.00     0.270 C 
HETATM   22  O   UNL     1      42.480  -9.930   8.546  1.00  0.00    -0.266 OA
HETATM   23  H   UNL     1      43.642 -12.452  10.173  1.00  0.00     0.190 HD
BRANCH  21  24
HETATM   24  C   UNL     1      42.687 -10.038  10.900  1.00  0.00     0.036 A 
HETATM   25  C   UNL     1      41.523  -9.298  11.169  1.00  0.00     0.056 A 
HETATM   26  C   UNL     1      41.288  -8.734  12.433  1.00  0.00     0.102 A 
HETATM   27  C   UNL     1      42.230  -8.946  13.454  1.00  0.00     0.101 A 
HETATM   28  C   UNL     1      43.401  -9.662  13.175  1.00  0.00     0.040 A 
HETATM   29  C   UNL     1      43.636 -10.205  11.910  1.00  0.00     0.020 A 
BRANCH  26  30
HETATM   30  O   UNL     1      40.186  -7.972  12.718  1.00  0.00    -0.353 OA
HETATM   31  C   UNL     1      38.933  -8.380  12.185  1.00  0.00     0.210 C 
ENDBRANCH  26  30
BRANCH  27  32
HETATM   32  O   UNL     1      42.191  -8.487  14.745  1.00  0.00    -0.353 OA
HETATM   33  C   UNL     1      41.998  -9.441  15.780  1.00  0.00     0.210 C 
ENDBRANCH  27  32
ENDBRANCH  21  24
ENDBRANCH   1  20
TORSDOF 8
ENDMDL
MODEL 2
REMARK VINA RESULT:      -8.8      6.801     10.319
REMARK  8 active torsions:
REMARK  status: ('A' for Active; 'I' for Inactive)
REMARK    1  A    between atoms: O_2  and  C_3 
REMARK    2  A    between atoms: C_4  and  O_5 
REMARK    3  A    between atoms: C_8  and  C_9 
REMARK       I    between atoms: C_9  and  N_10 
REMARK    4  A    between atoms: N_10  and  N_11 
REMARK       I    between atoms: N_11  and  C_12 
REMARK    5  A    between atoms: C_12  and  C_13 
REMARK    6  A    between atoms: C_13  and  S_14 
REMARK    7  A    between atoms: S_14  and  C_15 
REMARK    8  A    between atoms: C_18  and  C_19 
ROOT
HETATM    1  N   UNL     1      42.317 -16.053   0.263  1.00  0.00    -0.267 N 
HETATM    2  C   UNL     1      41.058 -15.567   0.558  1.00  0.00     0.245 C 
HETATM    3  O   UNL     1      40.263 -16.184   1.271  1.00  0.00    -0.271 OA
HETATM    4  H   UNL     1      43.064 -15.389   0.015  1.00  0.00     0.190 HD
ENDROOT
BRANCH   2   5
HETATM    5  C   UNL     1      40.723 -14.238  -0.091  1.00  0.00     0.187 C 
BRANCH   5   6
HETATM    6  S   UNL     1      41.435 -12.860   0.850  1.00  0.00    -0.083 SA
BRANCH   6   7
HETATM    7  C   UNL     1      41.053 -13.343   2.457  1.00  0.00     0.167 A 
HETATM    8  N   UNL     1      39.978 -13.037   3.138  1.00  0.00    -0.235 NA
HETATM    9  C   UNL     1      40.172 -13.622   4.367  1.00  0.00     0.149 A 
HETATM   10  C   UNL     1      41.371 -14.314   4.421  1.00  0.00     0.062 A 
HETATM   11  N   UNL     1      41.918 -14.109   3.174  1.00  0.00    -0.333 N 
HETATM   12  H   UNL     1      42.816 -14.432   2.845  1.00  0.00     0.168 HD
BRANCH  10  13
HETATM   13  C   UNL     1      42.013 -15.075   5.488  1.00  0.00    -0.008 A 
HETATM   14  C   UNL     1      43.263 -14.691   6.001  1.00  0.00     0.017 A 
HETATM   15  C   UNL     1      43.869 -15.427   7.022  1.00  0.00     0.043 A 
HETATM   16  C   UNL     1      43.228 -16.548   7.533  1.00  0.00     0.116 A 
HETATM   17  F   UNL     1      43.809 -17.253   8.512  1.00  0.00    -0.206 F 
HETATM   18  C   UNL     1      41.994 -16.950   7.040  1.00  0.00     0.043 A 
HETATM   19  C   UNL     1      41.388 -16.215   6.017  1.00  0.00     0.017 A 
ENDBRANCH  10  13
ENDBRANCH   6   7
ENDBRANCH   5   6
ENDBRANCH   2   5
BRANCH   1  20
HETATM   20  N   UNL     1      42.725 -17.217   0.931  1.00  0.00    -0.263 N 
HETATM   21  C   UNL     1      43.506 -17.095   2.064  1.00  0.00     0.270 C 
HETATM   22  O   UNL     1      43.869 -16.009   2.509  1.00  0.00    -0.266 OA
HETATM   23  H   UNL     1      42.272 -18.075   0.627  1.00  0.00     0.190 HD
BRANCH  21  24
HETATM   24  C   UNL     1      43.896 -18.360   2.760  1.00  0.00     0.036 A 
HETATM   25  C   UNL     1      44.045 -18.320   4.157  1.00  0.00     0.056 A 
HETATM   26  C   UNL     1      44.434 -19.455   4.887  1.00  0.00     0.102 A 
HETATM   27  C   UNL     1      44.646 -20.662   4.198  1.00  0.00     0.101 A 
HETATM   28  C   UNL     1      44.521 -20.692   2.803  1.00  0.00     0.040 A 
HETATM   29  C   UNL     1      44.152 -19.554   2.083  1.00  0.00     0.020 A 
BRANCH  26  30
HETATM   30  O   UNL     1      44.631 -19.442   6.242  1.00  0.00    -0.353 OA
HETATM   31  C   UNL     1      43.738 -20.193   7.055  1.00  0.00     0.210 C 
ENDBRANCH  26  30
BRANCH  27  32
HETATM   32  O   UNL     1      45.026 -21.872   4.717  1.00  0.00    -0.353 OA
HETATM   33  C   UNL     1      44.730 -23.038   3.960  1.00  0.00     0.210 C 
ENDBRANCH  27  32
ENDBRANCH  21  24
ENDBRANCH   1  20
TORSDOF 8
ENDMDL
MODEL 3
REMARK VINA RESULT:      -8.8      1.897      2.795
REMARK  8 active torsions:
REMARK  status: ('A' for Active; 'I' for Inactive)
REMARK    1  A    between atoms: O_2  and  C_3 
REMARK    2  A    between atoms: C_4  and  O_5 
REMARK    3  A    between atoms: C_8  and  C_9 
REMARK       I    between atoms: C_9  and  N_10 
REMARK    4  A    between atoms: N_10  and  N_11 
REMARK       I    between atoms: N_11  and  C_12 
REMARK    5  A    between atoms: C_12  and  C_13 
REMARK    6  A    between atoms: C_13  and  S_14 
REMARK    7  A    between atoms: S_14  and  C_15 
REMARK    8  A    between atoms: C_18  and  C_19 
ROOT
HETATM    1  N   UNL     1      43.962 -13.616   6.955  1.00  0.00    -0.267 N 
HETATM    2  C   UNL     1      43.113 -13.861   5.893  1.00  0.00     0.245 C 
HETATM    3  O   UNL     1      41.974 -13.390   5.838  1.00  0.00    -0.271 OA
HETATM    4  H   UNL     1      44.980 -13.680   6.806  1.00  0.00     0.190 HD
ENDROOT
BRANCH   2   5
HETATM    5  C   UNL     1      43.678 -14.776   4.826  1.00  0.00     0.187 C 
BRANCH   5   6
HETATM    6  S   UNL     1      43.001 -14.365   3.194  1.00  0.00    -0.083 SA
BRANCH   6   7
HETATM    7  C   UNL     1      43.134 -15.887   2.403  1.00  0.00     0.167 A 
HETATM    8  N   UNL     1      42.866 -16.151   1.149  1.00  0.00    -0.235 NA
HETATM    9  C   UNL     1      43.087 -17.503   1.028  1.00  0.00     0.149 A 
HETATM   10  C   UNL     1      43.520 -18.060   2.221  1.00  0.00     0.062 A 
HETATM   11  N   UNL     1      43.534 -16.991   3.089  1.00  0.00    -0.333 N 
HETATM   12  H   UNL     1      43.763 -17.012   4.072  1.00  0.00     0.168 HD
BRANCH  10  13
HETATM   13  C   UNL     1      43.868 -19.428   2.591  1.00  0.00    -0.008 A 
HETATM   14  C   UNL     1      43.637 -20.497   1.711  1.00  0.00     0.017 A 
HETATM   15  C   UNL     1      43.974 -21.804   2.076  1.00  0.00     0.043 A 
HETATM   16  C   UNL     1      44.542 -22.044   3.320  1.00  0.00     0.116 A 
HETATM   17  F   UNL     1      44.864 -23.296   3.669  1.00  0.00    -0.206 F 
HETATM   18  C   UNL     1      44.777 -21.003   4.209  1.00  0.00     0.043 A 
HETATM   19  C   UNL     1      44.438 -19.697   3.845  1.00  0.00     0.017 A 
ENDBRANCH  10  13
ENDBRANCH   6   7
ENDBRANCH   5   6
ENDBRANCH   2   5
BRANCH   1  20
HETATM   20  N   UNL     1      43.538 -12.681   7.910  1.00  0.00    -0.263 N 
HETATM   21  C   UNL     1      44.397 -12.340   8.936  1.00  0.00     0.270 C 
HETATM   22  O   UNL     1      45.518 -12.828   9.056  1.00  0.00    -0.266 OA
HETATM   23  H   UNL     1      42.679 -12.187   7.684  1.00  0.00     0.190 HD
BRANCH  21  24
HETATM   24  C   UNL     1      43.914 -11.319   9.917  1.00  0.00     0.036 A 
HETATM   25  C   UNL     1      42.781 -10.562   9.571  1.00  0.00     0.056 A 
HETATM   26  C   UNL     1      42.277  -9.566  10.422  1.00  0.00     0.102 A 
HETATM   27  C   UNL     1      42.907  -9.349  11.659  1.00  0.00     0.101 A 
HETATM   28  C   UNL     1      44.050 -10.088  11.990  1.00  0.00     0.040 A 
HETATM   29  C   UNL     1      44.557 -11.065  11.130  1.00  0.00     0.020 A 
BRANCH  26  30
HETATM   30  O   UNL     1      41.202  -8.780  10.098  1.00  0.00    -0.353 OA
HETATM   31  C   UNL     1      39.946  -9.415   9.896  1.00  0.00     0.210 C 
ENDBRANCH  26  30
BRANCH  27  32
HETATM   32  O   UNL     1      42.576  -8.435  12.625  1.00  0.00    -0.353 OA
HETATM   33  C   UNL     1      42.426  -8.906  13.957  1.00  0.00     0.210 C 
ENDBRANCH  27  32
ENDBRANCH  21  24
ENDBRANCH   1  20
TORSDOF 8
ENDMDL
MODEL 4
REMARK VINA RESULT:      -8.7      4.978     11.869
REMARK  8 active torsions:
REMARK  status: ('A' for Active; 'I' for Inactive)
REMARK    1  A    between atoms: O_2  and  C_3 
REMARK    2  A    between atoms: C_4  and  O_5 
REMARK    3  A    between atoms: C_8  and  C_9 
REMARK       I    between atoms: C_9  and  N_10 
REMARK    4  A    between atoms: N_10  and  N_11 
REMARK       I    between atoms: N_11  and  C_12 
REMARK    5  A    between atoms: C_12  and  C_13 
REMARK    6  A    between atoms: C_13  and  S_14 
REMARK    7  A    between atoms: S_14  and  C_15 
REMARK    8  A    between atoms: C_18  and  C_19 
ROOT
HETATM    1  N   UNL     1      39.902 -15.154   4.699  1.00  0.00    -0.267 N 
HETATM    2  C   UNL     1      40.420 -14.051   5.351  1.00  0.00     0.245 C 
HETATM    3  O   UNL     1      41.539 -14.057   5.870  1.00  0.00    -0.271 OA
HETATM    4  H   UNL     1      39.185 -15.014   3.972  1.00  0.00     0.190 HD
ENDROOT
BRANCH   2   5
HETATM    5  C   UNL     1      39.494 -12.852   5.404  1.00  0.00     0.187 C 
BRANCH   5   6
HETATM    6  S   UNL     1      40.426 -11.325   5.708  1.00  0.00    -0.083 SA
BRANCH   6   7
HETATM    7  C   UNL     1      40.196 -11.146   7.404  1.00  0.00     0.167 A 
HETATM    8  N   UNL     1      39.070 -11.248   8.062  1.00  0.00    -0.235 NA
HETATM    9  C   UNL     1      39.409 -10.978   9.367  1.00  0.00     0.149 A 
HETATM   10  C   UNL     1      40.767 -10.734   9.503  1.00  0.00     0.062 A 
HETATM   11  N   UNL     1      41.245 -10.844   8.216  1.00  0.00    -0.333 N 
HETATM   12  H   UNL     1      42.194 -10.696   7.908  1.00  0.00     0.168 HD
BRANCH  10  13
HETATM   13  C   UNL     1      41.588 -10.398  10.662  1.00  0.00    -0.008 A 
HETATM   14  C   UNL     1      41.009 -10.191  11.924  1.00  0.00     0.017 A 
HETATM   15  C   UNL     1      41.806  -9.869  13.027  1.00  0.00     0.043 A 
HETATM   16  C   UNL     1      43.180  -9.754  12.870  1.00  0.00     0.116 A 
HETATM   17  F   UNL     1      43.942  -9.446  13.928  1.00  0.00    -0.206 F 
HETATM   18  C   UNL     1      43.775  -9.951  11.631  1.00  0.00     0.043 A 
HETATM   19  C   UNL     1      42.980 -10.270  10.528  1.00  0.00     0.017 A 
ENDBRANCH  10  13
ENDBRANCH   6   7
ENDBRANCH   5   6
ENDBRANCH   2   5
BRANCH   1  20
HETATM   20  N   UNL     1      40.761 -16.247   4.513  1.00  0.00    -0.263 N 
HETATM   21  C   UNL     1      41.331 -16.444   3.271  1.00  0.00     0.270 C 
HETATM   22  O   UNL     1      41.112 -15.705   2.314  1.00  0.00    -0.266 OA
HETATM   23  H   UNL     1      41.038 -16.731   5.363  1.00  0.00     0.190 HD
BRANCH  21  24
HETATM   24  C   UNL     1      42.260 -17.607   3.126  1.00  0.00     0.036 A 
HETATM   25  C   UNL     1      43.011 -17.991   4.250  1.00  0.00     0.056 A 
HETATM   26  C   UNL     1      43.925 -19.055   4.194  1.00  0.00     0.102 A 
HETATM   27  C   UNL     1      44.063 -19.766   2.989  1.00  0.00     0.101 A 
HETATM   28  C   UNL     1      43.332 -19.364   1.863  1.00  0.00     0.040 A 
HETATM   29  C   UNL     1      42.438 -18.293   1.923  1.00  0.00     0.020 A 
BRANCH  26  30
HETATM   30  O   UNL     1      44.703 -19.429   5.257  1.00  0.00    -0.353 OA
HETATM   31  C   UNL     1      45.169 -18.413   6.136  1.00  0.00     0.210 C 
ENDBRANCH  26  30
BRANCH  27  32
HETATM   32  O   UNL     1      44.891 -20.826   2.726  1.00  0.00    -0.353 OA
HETATM   33  C   UNL     1      44.329 -21.957   2.074  1.00  0.00     0.210 C 
ENDBRANCH  27  32
ENDBRANCH  21  24
ENDBRANCH   1  20
TORSDOF 8
ENDMDL
MODEL 5
REMARK VINA RESULT:      -8.6      1.366      1.793
REMARK  8 active torsions:
REMARK  status: ('A' for Active; 'I' for Inactive)
REMARK    1  A    between atoms: O_2  and  C_3 
REMARK    2  A    between atoms: C_4  and  O_5 
REMARK    3  A    between atoms: C_8  and  C_9 
REMARK       I    between atoms: C_9  and  N_10 
REMARK    4  A    between atoms: N_10  and  N_11 
REMARK       I    between atoms: N_11  and  C_12 
REMARK    5  A    between atoms: C_12  and  C_13 
REMARK    6  A    between atoms: C_13  and  S_14 
REMARK    7  A    between atoms: S_14  and  C_15 
REMARK    8  A    between atoms: C_18  and  C_19 
ROOT
HETATM    1  N   UNL     1      43.458 -12.405   7.421  1.00  0.00    -0.267 N 
HETATM    2  C   UNL     1      44.082 -13.621   7.213  1.00  0.00     0.245 C 
HETATM    3  O   UNL     1      44.736 -14.185   8.093  1.00  0.00    -0.271 OA
HETATM    4  H   UNL     1      42.639 -12.159   6.846  1.00  0.00     0.190 HD
ENDROOT
BRANCH   2   5
HETATM    5  C   UNL     1      43.926 -14.183   5.814  1.00  0.00     0.187 C 
BRANCH   5   6
HETATM    6  S   UNL     1      42.262 -13.858   5.167  1.00  0.00    -0.083 SA
BRANCH   6   7
HETATM    7  C   UNL     1      42.015 -15.265   4.207  1.00  0.00     0.167 A 
HETATM    8  N   UNL     1      41.009 -15.507   3.407  1.00  0.00    -0.235 NA
HETATM    9  C   UNL     1      41.256 -16.767   2.916  1.00  0.00     0.149 A 
HETATM   10  C   UNL     1      42.444 -17.285   3.408  1.00  0.00     0.062 A 
HETATM   11  N   UNL     1      42.906 -16.292   4.243  1.00  0.00    -0.333 N 
HETATM   12  H   UNL     1      43.738 -16.319   4.814  1.00  0.00     0.168 HD
BRANCH  10  13
HETATM   13  C   UNL     1      43.117 -18.561   3.193  1.00  0.00    -0.008 A 
HETATM   14  C   UNL     1      42.870 -19.326   2.041  1.00  0.00     0.017 A 
HETATM   15  C   UNL     1      43.520 -20.548   1.846  1.00  0.00     0.043 A 
HETATM   16  C   UNL     1      44.416 -21.008   2.801  1.00  0.00     0.116 A 
HETATM   17  F   UNL     1      45.038 -22.179   2.613  1.00  0.00    -0.206 F 
HETATM   18  C   UNL     1      44.674 -20.272   3.950  1.00  0.00     0.043 A 
HETATM   19  C   UNL     1      44.024 -19.051   4.147  1.00  0.00     0.017 A 
ENDBRANCH  10  13
ENDBRANCH   6   7
ENDBRANCH   5   6
ENDBRANCH   2   5
BRANCH   1  20
HETATM   20  N   UNL     1      43.467 -11.898   8.729  1.00  0.00    -0.263 N 
HETATM   21  C   UNL     1      42.838 -10.695   8.982  1.00  0.00     0.270 C 
HETATM   22  O   UNL     1      42.277 -10.041   8.106  1.00  0.00    -0.266 OA
HETATM   23  H   UNL     1      43.797 -12.543   9.443  1.00  0.00     0.190 HD
BRANCH  21  24
HETATM   24  C   UNL     1      42.850 -10.205  10.395  1.00  0.00     0.036 A 
HETATM   25  C   UNL     1      41.930  -9.203  10.748  1.00  0.00     0.056 A 
HETATM   26  C   UNL     1      41.890  -8.668  12.046  1.00  0.00     0.102 A 
HETATM   27  C   UNL     1      42.772  -9.175  13.014  1.00  0.00     0.101 A 
HETATM   28  C   UNL     1      43.704 -10.157  12.652  1.00  0.00     0.040 A 
HETATM   29  C   UNL     1      43.750 -10.671  11.354  1.00  0.00     0.020 A 
BRANCH  26  30
HETATM   30  O   UNL     1      41.037  -7.661  12.413  1.00  0.00    -0.353 OA
HETATM   31  C   UNL     1      39.735  -8.016  12.861  1.00  0.00     0.210 C 
ENDBRANCH  26  30
BRANCH  27  32
HETATM   32  O   UNL     1      42.894  -8.795  14.325  1.00  0.00    -0.353 OA
HETATM   33  C   UNL     1      42.209  -9.566  15.303  1.00  0.00     0.210 C 
ENDBRANCH  27  32
ENDBRANCH  21  24
ENDBRANCH   1  20
TORSDOF 8
ENDMDL
MODEL 6
REMARK VINA RESULT:      -8.6      6.871     10.542
REMARK  8 active torsions:
REMARK  status: ('A' for Active; 'I' for Inactive)
REMARK    1  A    between atoms: O_2  and  C_3 
REMARK    2  A    between atoms: C_4  and  O_5 
REMARK    3  A    between atoms: C_8  and  C_9 
REMARK       I    between atoms: C_9  and  N_10 
REMARK    4  A    between atoms: N_10  and  N_11 
REMARK       I    between atoms: N_11  and  C_12 
REMARK    5  A    between atoms: C_12  and  C_13 
REMARK    6  A    between atoms: C_13  and  S_14 
REMARK    7  A    between atoms: S_14  and  C_15 
REMARK    8  A    between atoms: C_18  and  C_19 
ROOT
HETATM    1  N   UNL     1      42.394 -16.006   0.292  1.00  0.00    -0.267 N 
HETATM    2  C   UNL     1      41.137 -15.484   0.529  1.00  0.00     0.245 C 
HETATM    3  O   UNL     1      40.318 -16.043   1.262  1.00  0.00    -0.271 OA
HETATM    4  H   UNL     1      43.157 -15.369   0.020  1.00  0.00     0.190 HD
ENDROOT
BRANCH   2   5
HETATM    5  C   UNL     1      40.836 -14.193  -0.208  1.00  0.00     0.187 C 
BRANCH   5   6
HETATM    6  S   UNL     1      41.498 -12.764   0.693  1.00  0.00    -0.083 SA
BRANCH   6   7
HETATM    7  C   UNL     1      41.102 -13.199   2.311  1.00  0.00     0.167 A 
HETATM    8  N   UNL     1      40.059 -12.812   2.999  1.00  0.00    -0.235 NA
HETATM    9  C   UNL     1      40.227 -13.393   4.234  1.00  0.00     0.149 A 
HETATM   10  C   UNL     1      41.377 -14.164   4.284  1.00  0.00     0.062 A 
HETATM   11  N   UNL     1      41.922 -14.013   3.028  1.00  0.00    -0.333 N 
HETATM   12  H   UNL     1      42.792 -14.400   2.694  1.00  0.00     0.168 HD
BRANCH  10  13
HETATM   13  C   UNL     1      41.979 -14.953   5.354  1.00  0.00    -0.008 A 
HETATM   14  C   UNL     1      43.267 -14.663   5.832  1.00  0.00     0.017 A 
HETATM   15  C   UNL     1      43.834 -15.426   6.857  1.00  0.00     0.043 A 
HETATM   16  C   UNL     1      43.115 -16.479   7.406  1.00  0.00     0.116 A 
HETATM   17  F   UNL     1      43.658 -17.209   8.388  1.00  0.00    -0.206 F 
HETATM   18  C   UNL     1      41.840 -16.787   6.949  1.00  0.00     0.043 A 
HETATM   19  C   UNL     1      41.274 -16.026   5.922  1.00  0.00     0.017 A 
ENDBRANCH  10  13
ENDBRANCH   6   7
ENDBRANCH   5   6
ENDBRANCH   2   5
BRANCH   1  20
HETATM   20  N   UNL     1      42.770 -17.131   1.040  1.00  0.00    -0.263 N 
HETATM   21  C   UNL     1      43.568 -16.956   2.153  1.00  0.00     0.270 C 
HETATM   22  O   UNL     1      43.974 -15.853   2.513  1.00  0.00    -0.266 OA
HETATM   23  H   UNL     1      42.284 -17.992   0.804  1.00  0.00     0.190 HD
BRANCH  21  24
HETATM   24  C   UNL     1      43.923 -18.179   2.936  1.00  0.00     0.036 A 
HETATM   25  C   UNL     1      44.234 -19.349   2.220  1.00  0.00     0.056 A 
HETATM   26  C   UNL     1      44.552 -20.548   2.876  1.00  0.00     0.102 A 
HETATM   27  C   UNL     1      44.589 -20.562   4.281  1.00  0.00     0.101 A 
HETATM   28  C   UNL     1      44.254 -19.402   4.991  1.00  0.00     0.040 A 
HETATM   29  C   UNL     1      43.921 -18.217   4.331  1.00  0.00     0.020 A 
BRANCH  26  30
HETATM   30  O   UNL     1      44.817 -21.716   2.212  1.00  0.00    -0.353 OA
HETATM   31  C   UNL     1      43.936 -22.106   1.166  1.00  0.00     0.210 C 
ENDBRANCH  26  30
BRANCH  27  32
HETATM   32  O   UNL     1      44.875 -21.618   5.106  1.00  0.00    -0.353 OA
HETATM   33  C   UNL     1      44.299 -21.616   6.406  1.00  0.00     0.210 C 
ENDBRANCH  27  32
ENDBRANCH  21  24
ENDBRANCH   1  20
TORSDOF 8
ENDMDL
MODEL 7
REMARK VINA RESULT:      -8.4      5.644      9.938
REMARK  8 active torsions:
REMARK  status: ('A' for Active; 'I' for Inactive)
REMARK    1  A    between atoms: O_2  and  C_3 
REMARK    2  A    between atoms: C_4  and  O_5 
REMARK    3  A    between atoms: C_8  and  C_9 
REMARK       I    between atoms: C_9  and  N_10 
REMARK    4  A    between atoms: N_10  and  N_11 
REMARK       I    between atoms: N_11  and  C_12 
REMARK    5  A    between atoms: C_12  and  C_13 
REMARK    6  A    between atoms: C_13  and  S_14 
REMARK    7  A    between atoms: S_14  and  C_15 
REMARK    8  A    between atoms: C_18  and  C_19 
ROOT
HETATM    1  N   UNL     1      42.671 -13.233   3.397  1.00  0.00    -0.267 N 
HETATM    2  C   UNL     1      41.660 -13.105   4.331  1.00  0.00     0.245 C 
HETATM    3  O   UNL     1      40.478 -12.966   4.007  1.00  0.00    -0.271 OA
HETATM    4  H   UNL     1      43.539 -13.718   3.665  1.00  0.00     0.190 HD
ENDROOT
BRANCH   2   5
HETATM    5  C   UNL     1      42.124 -13.115   5.774  1.00  0.00     0.187 C 
BRANCH   5   6
HETATM    6  S   UNL     1      43.673 -14.043   5.950  1.00  0.00    -0.083 SA
BRANCH   6   7
HETATM    7  C   UNL     1      43.112 -15.648   5.680  1.00  0.00     0.167 A 
HETATM    8  N   UNL     1      42.112 -16.245   6.276  1.00  0.00    -0.235 NA
HETATM    9  C   UNL     1      42.103 -17.513   5.746  1.00  0.00     0.149 A 
HETATM   10  C   UNL     1      43.098 -17.677   4.795  1.00  0.00     0.062 A 
HETATM   11  N   UNL     1      43.735 -16.457   4.781  1.00  0.00    -0.333 N 
HETATM   12  H   UNL     1      44.544 -16.201   4.234  1.00  0.00     0.168 HD
BRANCH  10  13
HETATM   13  C   UNL     1      43.489 -18.821   3.978  1.00  0.00    -0.008 A 
HETATM   14  C   UNL     1      42.961 -19.006   2.690  1.00  0.00     0.017 A 
HETATM   15  C   UNL     1      43.343 -20.105   1.916  1.00  0.00     0.043 A 
HETATM   16  C   UNL     1      44.251 -21.022   2.427  1.00  0.00     0.116 A 
HETATM   17  F   UNL     1      44.616 -22.075   1.685  1.00  0.00    -0.206 F 
HETATM   18  C   UNL     1      44.784 -20.863   3.700  1.00  0.00     0.043 A 
HETATM   19  C   UNL     1      44.402 -19.765   4.475  1.00  0.00     0.017 A 
ENDBRANCH  10  13
ENDBRANCH   6   7
ENDBRANCH   5   6
ENDBRANCH   2   5
BRANCH   1  20
HETATM   20  N   UNL     1      42.288 -13.352   2.053  1.00  0.00    -0.263 N 
HETATM   21  C   UNL     1      42.180 -14.613   1.500  1.00  0.00     0.270 C 
HETATM   22  O   UNL     1      42.414 -15.639   2.134  1.00  0.00    -0.266 OA
HETATM   23  H   UNL     1      41.950 -12.497   1.620  1.00  0.00     0.190 HD
BRANCH  21  24
HETATM   24  C   UNL     1      41.743 -14.694   0.072  1.00  0.00     0.036 A 
HETATM   25  C   UNL     1      41.784 -13.516  -0.694  1.00  0.00     0.056 A 
HETATM   26  C   UNL     1      41.368 -13.498  -2.035  1.00  0.00     0.102 A 
HETATM   27  C   UNL     1      40.932 -14.697  -2.624  1.00  0.00     0.101 A 
HETATM   28  C   UNL     1      40.869 -15.864  -1.851  1.00  0.00     0.040 A 
HETATM   29  C   UNL     1      41.267 -15.869  -0.512  1.00  0.00     0.020 A 
BRANCH  26  30
HETATM   30  O   UNL     1      41.353 -12.361  -2.798  1.00  0.00    -0.353 OA
HETATM   31  C   UNL     1      42.461 -11.475  -2.699  1.00  0.00     0.210 C 
ENDBRANCH  26  30
BRANCH  27  32
HETATM   32  O   UNL     1      40.489 -14.893  -3.906  1.00  0.00    -0.353 OA
HETATM   33  C   UNL     1      39.292 -15.639  -4.085  1.00  0.00     0.210 C 
ENDBRANCH  27  32
ENDBRANCH  21  24
ENDBRANCH   1  20
TORSDOF 8
ENDMDL
MODEL 8
REMARK VINA RESULT:      -8.4      6.413      9.762
REMARK  8 active torsions:
REMARK  status: ('A' for Active; 'I' for Inactive)
REMARK    1  A    between atoms: O_2  and  C_3 
REMARK    2  A    between atoms: C_4  and  O_5 
REMARK    3  A    between atoms: C_8  and  C_9 
REMARK       I    between atoms: C_9  and  N_10 
REMARK    4  A    between atoms: N_10  and  N_11 
REMARK       I    between atoms: N_11  and  C_12 
REMARK    5  A    between atoms: C_12  and  C_13 
REMARK    6  A    between atoms: C_13  and  S_14 
REMARK    7  A    between atoms: S_14  and  C_15 
REMARK    8  A    between atoms: C_18  and  C_19 
ROOT
HETATM    1  N   UNL     1      42.109 -13.304   3.463  1.00  0.00    -0.267 N 
HETATM    2  C   UNL     1      43.224 -14.100   3.641  1.00  0.00     0.245 C 
HETATM    3  O   UNL     1      43.599 -14.909   2.788  1.00  0.00    -0.271 OA
HETATM    4  H   UNL     1      42.046 -12.411   3.973  1.00  0.00     0.190 HD
ENDROOT
BRANCH   2   5
HETATM    5  C   UNL     1      43.923 -13.924   4.974  1.00  0.00     0.187 C 
BRANCH   5   6
HETATM    6  S   UNL     1      43.100 -14.891   6.270  1.00  0.00    -0.083 SA
BRANCH   6   7
HETATM    7  C   UNL     1      43.801 -16.439   6.004  1.00  0.00     0.167 A 
HETATM    8  N   UNL     1      44.694 -17.039   6.749  1.00  0.00    -0.235 NA
HETATM    9  C   UNL     1      44.956 -18.217   6.090  1.00  0.00     0.149 A 
HETATM   10  C   UNL     1      44.190 -18.343   4.942  1.00  0.00     0.062 A 
HETATM   11  N   UNL     1      43.459 -17.175   4.913  1.00  0.00    -0.333 N 
HETATM   12  H   UNL     1      42.809 -16.885   4.198  1.00  0.00     0.168 HD
BRANCH  10  13
HETATM   13  C   UNL     1      44.117 -19.386   3.925  1.00  0.00    -0.008 A 
HETATM   14  C   UNL     1      43.457 -19.165   2.706  1.00  0.00     0.017 A 
HETATM   15  C   UNL     1      43.393 -20.173   1.739  1.00  0.00     0.043 A 
HETATM   16  C   UNL     1      43.987 -21.402   1.989  1.00  0.00     0.116 A 
HETATM   17  F   UNL     1      43.926 -22.367   1.062  1.00  0.00    -0.206 F 
HETATM   18  C   UNL     1      44.643 -21.646   3.189  1.00  0.00     0.043 A 
HETATM   19  C   UNL     1      44.706 -20.640   4.156  1.00  0.00     0.017 A 
ENDBRANCH  10  13
ENDBRANCH   6   7
ENDBRANCH   5   6
ENDBRANCH   2   5
BRANCH   1  20
HETATM   20  N   UNL     1      41.495 -13.337   2.202  1.00  0.00    -0.263 N 
HETATM   21  C   UNL     1      40.327 -14.057   2.048  1.00  0.00     0.270 C 
HETATM   22  O   UNL     1      39.804 -14.681   2.969  1.00  0.00    -0.266 OA
HETATM   23  H   UNL     1      41.867 -12.682   1.520  1.00  0.00     0.190 HD
BRANCH  21  24
HETATM   24  C   UNL     1      39.692 -14.043   0.694  1.00  0.00     0.036 A 
HETATM   25  C   UNL     1      40.486 -14.410  -0.406  1.00  0.00     0.056 A 
HETATM   26  C   UNL     1      39.978 -14.399  -1.715  1.00  0.00     0.102 A 
HETATM   27  C   UNL     1      38.633 -14.043  -1.915  1.00  0.00     0.101 A 
HETATM   28  C   UNL     1      37.852 -13.654  -0.820  1.00  0.00     0.040 A 
HETATM   29  C   UNL     1      38.370 -13.649   0.477  1.00  0.00     0.020 A 
BRANCH  26  30
HETATM   30  O   UNL     1      40.734 -14.709  -2.813  1.00  0.00    -0.353 OA
HETATM   31  C   UNL     1      41.484 -13.666  -3.425  1.00  0.00     0.210 C 
ENDBRANCH  26  30
BRANCH  27  32
HETATM   32  O   UNL     1      37.949 -13.970  -3.100  1.00  0.00    -0.353 OA
HETATM   33  C   UNL     1      37.357 -15.163  -3.596  1.00  0.00     0.210 C 
ENDBRANCH  27  32
ENDBRANCH  21  24
ENDBRANCH   1  20
TORSDOF 8
ENDMDL
MODEL 9
REMARK VINA RESULT:      -8.4      5.019     11.573
REMARK  8 active torsions:
REMARK  status: ('A' for Active; 'I' for Inactive)
REMARK    1  A    between atoms: O_2  and  C_3 
REMARK    2  A    between atoms: C_4  and  O_5 
REMARK    3  A    between atoms: C_8  and  C_9 
REMARK       I    between atoms: C_9  and  N_10 
REMARK    4  A    between atoms: N_10  and  N_11 
REMARK       I    between atoms: N_11  and  C_12 
REMARK    5  A    between atoms: C_12  and  C_13 
REMARK    6  A    between atoms: C_13  and  S_14 
REMARK    7  A    between atoms: S_14  and  C_15 
REMARK    8  A    between atoms: C_18  and  C_19 
ROOT
HETATM    1  N   UNL     1      42.423 -13.830   6.306  1.00  0.00    -0.267 N 
HETATM    2  C   UNL     1      42.129 -12.895   5.332  1.00  0.00     0.245 C 
HETATM    3  O   UNL     1      42.511 -13.016   4.165  1.00  0.00    -0.271 OA
HETATM    4  H   UNL     1      41.800 -13.913   7.123  1.00  0.00     0.190 HD
ENDROOT
BRANCH   2   5
HETATM    5  C   UNL     1      41.334 -11.700   5.819  1.00  0.00     0.187 C 
BRANCH   5   6
HETATM    6  S   UNL     1      39.754 -12.224   6.542  1.00  0.00    -0.083 SA
BRANCH   6   7
HETATM    7  C   UNL     1      39.731 -11.273   7.976  1.00  0.00     0.167 A 
HETATM    8  N   UNL     1      38.769 -10.487   8.386  1.00  0.00    -0.235 NA
HETATM    9  C   UNL     1      39.252  -9.927   9.544  1.00  0.00     0.149 A 
HETATM   10  C   UNL     1      40.518 -10.401   9.853  1.00  0.00     0.062 A 
HETATM   11  N   UNL     1      40.800 -11.264   8.817  1.00  0.00    -0.333 N 
HETATM   12  H   UNL     1      41.656 -11.778   8.674  1.00  0.00     0.168 HD
BRANCH  10  13
HETATM   13  C   UNL     1      41.430 -10.106  10.952  1.00  0.00    -0.008 A 
HETATM   14  C   UNL     1      42.160 -11.126  11.583  1.00  0.00     0.017 A 
HETATM   15  C   UNL     1      43.031 -10.832  12.635  1.00  0.00     0.043 A 
HETATM   16  C   UNL     1      43.175  -9.518  13.060  1.00  0.00     0.116 A 
HETATM   17  F   UNL     1      44.010  -9.236  14.068  1.00  0.00    -0.206 F 
HETATM   18  C   UNL     1      42.461  -8.491  12.454  1.00  0.00     0.043 A 
HETATM   19  C   UNL     1      41.589  -8.785  11.403  1.00  0.00     0.017 A 
ENDBRANCH  10  13
ENDBRANCH   6   7
ENDBRANCH   5   6
ENDBRANCH   2   5
BRANCH   1  20
HETATM   20  N   UNL     1      43.051 -15.013   5.888  1.00  0.00    -0.263 N 
HETATM   21  C   UNL     1      42.325 -16.187   5.884  1.00  0.00     0.270 C 
HETATM   22  O   UNL     1      41.150 -16.244   6.241  1.00  0.00    -0.266 OA
HETATM   23  H   UNL     1      43.961 -14.891   5.452  1.00  0.00     0.190 HD
BRANCH  21  24
HETATM   24  C   UNL     1      43.025 -17.419   5.406  1.00  0.00     0.036 A 
HETATM   25  C   UNL     1      43.360 -17.495   4.042  1.00  0.00     0.056 A 
HETATM   26  C   UNL     1      43.996 -18.626   3.505  1.00  0.00     0.102 A 
HETATM   27  C   UNL     1      44.329 -19.687   4.364  1.00  0.00     0.101 A 
HETATM   28  C   UNL     1      43.972 -19.618   5.716  1.00  0.00     0.040 A 
HETATM   29  C   UNL     1      43.323 -18.498   6.240  1.00  0.00     0.020 A 
BRANCH  26  30
HETATM   30  O   UNL     1      44.297 -18.752   2.175  1.00  0.00    -0.353 OA
HETATM   31  C   UNL     1      43.902 -17.706   1.297  1.00  0.00     0.210 C 
ENDBRANCH  26  30
BRANCH  27  32
HETATM   32  O   UNL     1      44.946 -20.868   4.043  1.00  0.00    -0.353 OA
HETATM   33  C   UNL     1      44.905 -21.916   5.002  1.00  0.00     0.210 C 
ENDBRANCH  27  32
ENDBRANCH  21  24
ENDBRANCH   1  20
TORSDOF 8
ENDMDL
MODEL 10
REMARK VINA RESULT:      -8.3      7.023     10.528
REMARK  8 active torsions:
REMARK  status: ('A' for Active; 'I' for Inactive)
REMARK    1  A    between atoms: O_2  and  C_3 
REMARK    2  A    between atoms: C_4  and  O_5 
REMARK    3  A    between atoms: C_8  and  C_9 
REMARK       I    between atoms: C_9  and  N_10 
REMARK    4  A    between atoms: N_10  and  N_11 
REMARK       I    between atoms: N_11  and  C_12 
REMARK    5  A    between atoms: C_12  and  C_13 
REMARK    6  A    between atoms: C_13  and  S_14 
REMARK    7  A    between atoms: S_14  and  C_15 
REMARK    8  A    between atoms: C_18  and  C_19 
ROOT
HETATM    1  N   UNL     1      39.837 -15.051   3.535  1.00  0.00    -0.267 N 
HETATM    2  C   UNL     1      40.271 -13.815   3.976  1.00  0.00     0.245 C 
HETATM    3  O   UNL     1      41.305 -13.675   4.632  1.00  0.00    -0.271 OA
HETATM    4  H   UNL     1      39.231 -15.101   2.704  1.00  0.00     0.190 HD
ENDROOT
BRANCH   2   5
HETATM    5  C   UNL     1      39.359 -12.658   3.617  1.00  0.00     0.187 C 
BRANCH   5   6
HETATM    6  S   UNL     1      40.278 -11.353   2.754  1.00  0.00    -0.083 SA
BRANCH   6   7
HETATM    7  C   UNL     1      40.891 -12.233   1.409  1.00  0.00     0.167 A 
HETATM    8  N   UNL     1      42.147 -12.406   1.085  1.00  0.00    -0.235 NA
HETATM    9  C   UNL     1      42.105 -13.134  -0.081  1.00  0.00     0.149 A 
HETATM   10  C   UNL     1      40.802 -13.427  -0.454  1.00  0.00     0.062 A 
HETATM   11  N   UNL     1      40.043 -12.826   0.525  1.00  0.00    -0.333 N 
HETATM   12  H   UNL     1      39.036 -12.791   0.575  1.00  0.00     0.168 HD
BRANCH  10  13
HETATM   13  C   UNL     1      40.253 -14.151  -1.596  1.00  0.00    -0.008 A 
HETATM   14  C   UNL     1      39.045 -13.754  -2.192  1.00  0.00     0.017 A 
HETATM   15  C   UNL     1      38.527 -14.455  -3.284  1.00  0.00     0.043 A 
HETATM   16  C   UNL     1      39.214 -15.553  -3.782  1.00  0.00     0.116 A 
HETATM   17  F   UNL     1      38.718 -16.225  -4.829  1.00  0.00    -0.206 F 
HETATM   18  C   UNL     1      40.409 -15.967  -3.208  1.00  0.00     0.043 A 
HETATM   19  C   UNL     1      40.926 -15.268  -2.114  1.00  0.00     0.017 A 
ENDBRANCH  10  13
ENDBRANCH   6   7
ENDBRANCH   5   6
ENDBRANCH   2   5
BRANCH   1  20
HETATM   20  N   UNL     1      40.701 -16.139   3.733  1.00  0.00    -0.263 N 
HETATM   21  C   UNL     1      41.353 -16.679   2.643  1.00  0.00     0.270 C 
HETATM   22  O   UNL     1      41.202 -16.254   1.500  1.00  0.00    -0.266 OA
HETATM   23  H   UNL     1      40.918 -16.350   4.704  1.00  0.00     0.190 HD
BRANCH  21  24
HETATM   24  C   UNL     1      42.284 -17.820   2.903  1.00  0.00     0.036 A 
HETATM   25  C   UNL     1      42.767 -17.987   4.213  1.00  0.00     0.056 A 
HETATM   26  C   UNL     1      43.664 -19.015   4.539  1.00  0.00     0.102 A 
HETATM   27  C   UNL     1      44.059 -19.913   3.532  1.00  0.00     0.101 A 
HETATM   28  C   UNL     1      43.596 -19.730   2.223  1.00  0.00     0.040 A 
HETATM   29  C   UNL     1      42.717 -18.692   1.903  1.00  0.00     0.020 A 
BRANCH  26  30
HETATM   30  O   UNL     1      44.188 -19.181   5.794  1.00  0.00    -0.353 OA
HETATM   31  C   UNL     1      45.131 -18.223   6.257  1.00  0.00     0.210 C 
ENDBRANCH  26  30
BRANCH  27  32
HETATM   32  O   UNL     1      44.918 -20.976   3.641  1.00  0.00    -0.353 OA
HETATM   33  C   UNL     1      44.533 -22.201   3.033  1.00  0.00     0.210 C 
ENDBRANCH  27  32
ENDBRANCH  21  24
ENDBRANCH   1  20
TORSDOF 8
ENDMDL
