MODEL 1
REMARK VINA RESULT:      -7.0      0.000      0.000
REMARK  5 active torsions:
REMARK  status: ('A' for Active; 'I' for Inactive)
REMARK    1  A    between atoms: C_2  and  O_3 
REMARK    2  A    between atoms: C_4  and  C_5 
REMARK    3  A    between atoms: C_5  and  O_6 
REMARK    4  A    between atoms: C_9  and  C_10 
REMARK    5  A    between atoms: C_22  and  O_23 
ROOT
HETATM    1  C   UNL     1      41.891 -13.091   4.679  1.00  0.00     0.047 C 
HETATM    2  C   UNL     1      41.297 -14.490   4.938  1.00  0.00     0.073 C 
HETATM    3  C   UNL     1      42.382 -15.589   4.641  1.00  0.00     0.133 C 
HETATM    4  C   UNL     1      42.659 -15.862   3.123  1.00  0.00     0.074 C 
HETATM    5  C   UNL     1      41.545 -15.411   2.234  1.00  0.00     0.030 A 
HETATM    6  C   UNL     1      40.352 -14.898   2.693  1.00  0.00     0.042 A 
HETATM    7  N   UNL     1      39.609 -14.565   1.597  1.00  0.00    -0.279 N 
HETATM    8  H   UNL     1      38.678 -14.162   1.557  1.00  0.00     0.189 HD
HETATM    9  N   UNL     1      40.268 -14.783   0.439  1.00  0.00    -0.149 NA
HETATM   10  C   UNL     1      41.428 -15.279   0.849  1.00  0.00     0.190 A 
HETATM   11  C   UNL     1      39.992 -14.676   4.108  1.00  0.00     0.097 C 
ENDROOT
BRANCH   4  12
HETATM   12  C   UNL     1      42.936 -17.311   2.735  1.00  0.00    -0.048 A 
HETATM   13  C   UNL     1      41.973 -18.120   2.099  1.00  0.00     0.009 A 
HETATM   14  C   UNL     1      42.246 -19.454   1.786  1.00  0.00     0.019 A 
HETATM   15  C   UNL     1      43.485 -19.997   2.108  1.00  0.00     0.011 A 
HETATM   16 BR   UNL     1      43.855 -21.802   1.690  1.00  0.00    -0.051 Br
HETATM   17  C   UNL     1      44.453 -19.219   2.739  1.00  0.00     0.019 A 
HETATM   18  C   UNL     1      44.178 -17.884   3.052  1.00  0.00     0.009 A 
ENDBRANCH   4  12
BRANCH   3  19
HETATM   19  C   UNL     1      42.073 -16.849   5.424  1.00  0.00     0.266 C 
HETATM   20  O   UNL     1      41.011 -17.458   5.368  1.00  0.00    -0.265 OA
BRANCH  19  21
HETATM   21  O   UNL     1      43.121 -17.174   6.231  1.00  0.00    -0.326 OA
HETATM   22  C   UNL     1      42.798 -17.252   7.620  1.00  0.00     0.213 C 
ENDBRANCH  19  21
ENDBRANCH   3  19
BRANCH   2  23
HETATM   23  O   UNL     1      40.955 -14.481   6.336  1.00  0.00    -0.389 OA
HETATM   24  H   UNL     1      40.394 -13.696   6.501  1.00  0.00     0.210 HD
ENDBRANCH   2  23
BRANCH  10  25
HETATM   25  O   UNL     1      42.307 -15.542  -0.110  1.00  0.00    -0.343 OA
HETATM   26  H   UNL     1      42.445 -16.502  -0.058  1.00  0.00     0.219 HD
ENDBRANCH  10  25
TORSDOF 5
ENDMDL
MODEL 2
REMARK VINA RESULT:      -6.9      3.430      4.995
REMARK  5 active torsions:
REMARK  status: ('A' for Active; 'I' for Inactive)
REMARK    1  A    between atoms: C_2  and  O_3 
REMARK    2  A    between atoms: C_4  and  C_5 
REMARK    3  A    between atoms: C_5  and  O_6 
REMARK    4  A    between atoms: C_9  and  C_10 
REMARK    5  A    between atoms: C_22  and  O_23 
ROOT
HETATM    1  C   UNL     1      43.272 -19.817   7.283  1.00  0.00     0.047 C 
HETATM    2  C   UNL     1      43.762 -18.454   6.752  1.00  0.00     0.073 C 
HETATM    3  C   UNL     1      42.629 -17.783   5.893  1.00  0.00     0.133 C 
HETATM    4  C   UNL     1      42.423 -18.393   4.465  1.00  0.00     0.074 C 
HETATM    5  C   UNL     1      43.611 -19.157   3.977  1.00  0.00     0.030 A 
HETATM    6  C   UNL     1      44.806 -19.241   4.657  1.00  0.00     0.042 A 
HETATM    7  N   UNL     1      45.630 -20.048   3.926  1.00  0.00    -0.279 N 
HETATM    8  H   UNL     1      46.584 -20.331   4.124  1.00  0.00     0.189 HD
HETATM    9  N   UNL     1      45.026 -20.543   2.825  1.00  0.00    -0.149 NA
HETATM   10  C   UNL     1      43.816 -20.003   2.885  1.00  0.00     0.190 A 
HETATM   11  C   UNL     1      45.098 -18.637   5.973  1.00  0.00     0.097 C 
ENDROOT
BRANCH   4  12
HETATM   12  C   UNL     1      42.078 -17.409   3.350  1.00  0.00    -0.048 A 
HETATM   13  C   UNL     1      40.749 -17.069   3.028  1.00  0.00     0.009 A 
HETATM   14  C   UNL     1      40.464 -16.190   1.980  1.00  0.00     0.019 A 
HETATM   15  C   UNL     1      41.506 -15.642   1.239  1.00  0.00     0.011 A 
HETATM   16 BR   UNL     1      41.124 -14.456  -0.181  1.00  0.00    -0.051 Br
HETATM   17  C   UNL     1      42.829 -15.964   1.536  1.00  0.00     0.019 A 
HETATM   18  C   UNL     1      43.112 -16.845   2.585  1.00  0.00     0.009 A 
ENDBRANCH   4  12
BRANCH   3  19
HETATM   19  C   UNL     1      42.814 -16.279   5.874  1.00  0.00     0.266 C 
HETATM   20  O   UNL     1      43.884 -15.713   5.682  1.00  0.00    -0.265 OA
BRANCH  19  21
HETATM   21  O   UNL     1      41.636 -15.653   6.151  1.00  0.00    -0.326 OA
HETATM   22  C   UNL     1      41.479 -14.379   5.525  1.00  0.00     0.213 C 
ENDBRANCH  19  21
ENDBRANCH   3  19
BRANCH   2  23
HETATM   23  O   UNL     1      44.023 -17.681   7.938  1.00  0.00    -0.389 OA
HETATM   24  H   UNL     1      43.238 -17.123   8.109  1.00  0.00     0.210 HD
ENDBRANCH   2  23
BRANCH  10  25
HETATM   25  O   UNL     1      42.977 -20.371   1.923  1.00  0.00    -0.343 OA
HETATM   26  H   UNL     1      43.502 -20.958   1.354  1.00  0.00     0.219 HD
ENDBRANCH  10  25
TORSDOF 5
ENDMDL
MODEL 3
REMARK VINA RESULT:      -6.8      2.498      4.475
REMARK  5 active torsions:
REMARK  status: ('A' for Active; 'I' for Inactive)
REMARK    1  A    between atoms: C_2  and  O_3 
REMARK    2  A    between atoms: C_4  and  C_5 
REMARK    3  A    between atoms: C_5  and  O_6 
REMARK    4  A    between atoms: C_9  and  C_10 
REMARK    5  A    between atoms: C_22  and  O_23 
ROOT
HETATM    1  C   UNL     1      38.075 -14.524   1.290  1.00  0.00     0.047 C 
HETATM    2  C   UNL     1      39.608 -14.608   1.151  1.00  0.00     0.073 C 
HETATM    3  C   UNL     1      40.145 -15.846   1.958  1.00  0.00     0.133 C 
HETATM    4  C   UNL     1      40.181 -15.666   3.514  1.00  0.00     0.074 C 
HETATM    5  C   UNL     1      40.167 -14.233   3.938  1.00  0.00     0.030 A 
HETATM    6  C   UNL     1      40.218 -13.170   3.064  1.00  0.00     0.042 A 
HETATM    7  N   UNL     1      40.147 -12.030   3.812  1.00  0.00    -0.279 N 
HETATM    8  H   UNL     1      40.157 -11.063   3.503  1.00  0.00     0.189 HD
HETATM    9  N   UNL     1      40.000 -12.283   5.130  1.00  0.00    -0.149 NA
HETATM   10  C   UNL     1      40.005 -13.609   5.177  1.00  0.00     0.190 A 
HETATM   11  C   UNL     1      40.255 -13.261   1.590  1.00  0.00     0.097 C 
ENDROOT
BRANCH   4  12
HETATM   12  C   UNL     1      41.362 -16.301   4.242  1.00  0.00    -0.048 A 
HETATM   13  C   UNL     1      41.311 -17.607   4.769  1.00  0.00     0.009 A 
HETATM   14  C   UNL     1      42.397 -18.149   5.460  1.00  0.00     0.019 A 
HETATM   15  C   UNL     1      43.549 -17.390   5.635  1.00  0.00     0.011 A 
HETATM   16 BR   UNL     1      45.018 -18.118   6.574  1.00  0.00    -0.051 Br
HETATM   17  C   UNL     1      43.624 -16.095   5.127  1.00  0.00     0.019 A 
HETATM   18  C   UNL     1      42.535 -15.554   4.436  1.00  0.00     0.009 A 
ENDBRANCH   4  12
BRANCH   3  19
HETATM   19  C   UNL     1      41.471 -16.305   1.383  1.00  0.00     0.266 C 
HETATM   20  O   UNL     1      42.374 -15.554   1.035  1.00  0.00    -0.265 OA
BRANCH  19  21
HETATM   21  O   UNL     1      41.490 -17.662   1.262  1.00  0.00    -0.326 OA
HETATM   22  C   UNL     1      42.765 -18.260   1.498  1.00  0.00     0.213 C 
ENDBRANCH  19  21
ENDBRANCH   3  19
BRANCH   2  23
HETATM   23  O   UNL     1      39.831 -14.787  -0.259  1.00  0.00    -0.389 OA
HETATM   24  H   UNL     1      40.753 -14.519  -0.451  1.00  0.00     0.210 HD
ENDBRANCH   2  23
BRANCH  10  25
HETATM   25  O   UNL     1      39.822 -14.139   6.380  1.00  0.00    -0.343 OA
HETATM   26  H   UNL     1      39.920 -13.391   6.993  1.00  0.00     0.219 HD
ENDBRANCH  10  25
TORSDOF 5
ENDMDL
MODEL 4
REMARK VINA RESULT:      -6.7      3.979      6.289
REMARK  5 active torsions:
REMARK  status: ('A' for Active; 'I' for Inactive)
REMARK    1  A    between atoms: C_2  and  O_3 
REMARK    2  A    between atoms: C_4  and  C_5 
REMARK    3  A    between atoms: C_5  and  O_6 
REMARK    4  A    between atoms: C_9  and  C_10 
REMARK    5  A    between atoms: C_22  and  O_23 
ROOT
HETATM    1  C   UNL     1      45.062 -18.853   4.532  1.00  0.00     0.047 C 
HETATM    2  C   UNL     1      43.556 -18.568   4.360  1.00  0.00     0.073 C 
HETATM    3  C   UNL     1      43.348 -17.071   3.924  1.00  0.00     0.133 C 
HETATM    4  C   UNL     1      43.535 -16.011   5.062  1.00  0.00     0.074 C 
HETATM    5  C   UNL     1      43.401 -16.593   6.432  1.00  0.00     0.030 A 
HETATM    6  C   UNL     1      43.052 -17.901   6.684  1.00  0.00     0.042 A 
HETATM    7  N   UNL     1      43.070 -18.070   8.039  1.00  0.00    -0.279 N 
HETATM    8  H   UNL     1      42.865 -18.903   8.580  1.00  0.00     0.189 HD
HETATM    9  N   UNL     1      43.463 -16.956   8.694  1.00  0.00    -0.149 NA
HETATM   10  C   UNL     1      43.665 -16.091   7.709  1.00  0.00     0.190 A 
HETATM   11  C   UNL     1      42.793 -18.939   5.666  1.00  0.00     0.097 C 
ENDROOT
BRANCH   4  12
HETATM   12  C   UNL     1      42.595 -14.809   5.030  1.00  0.00    -0.048 A 
HETATM   13  C   UNL     1      41.319 -14.832   5.628  1.00  0.00     0.009 A 
HETATM   14  C   UNL     1      40.468 -13.727   5.553  1.00  0.00     0.019 A 
HETATM   15  C   UNL     1      40.883 -12.584   4.875  1.00  0.00     0.011 A 
HETATM   16 BR   UNL     1      39.732 -11.090   4.768  1.00  0.00    -0.051 Br
HETATM   17  C   UNL     1      42.138 -12.538   4.273  1.00  0.00     0.019 A 
HETATM   18  C   UNL     1      42.988 -13.646   4.349  1.00  0.00     0.009 A 
ENDBRANCH   4  12
BRANCH   3  19
HETATM   19  C   UNL     1      42.031 -16.924   3.187  1.00  0.00     0.266 C 
HETATM   20  O   UNL     1      40.973 -17.424   3.549  1.00  0.00    -0.265 OA
BRANCH  19  21
HETATM   21  O   UNL     1      42.207 -16.204   2.044  1.00  0.00    -0.326 OA
HETATM   22  C   UNL     1      42.642 -16.970   0.920  1.00  0.00     0.213 C 
ENDBRANCH  19  21
ENDBRANCH   3  19
BRANCH   2  23
HETATM   23  O   UNL     1      43.139 -19.463   3.313  1.00  0.00    -0.389 OA
HETATM   24  H   UNL     1      42.734 -20.248   3.736  1.00  0.00     0.210 HD
ENDBRANCH   2  23
BRANCH  10  25
HETATM   25  O   UNL     1      44.116 -14.899   8.079  1.00  0.00    -0.343 OA
HETATM   26  H   UNL     1      44.771 -15.090   8.771  1.00  0.00     0.219 HD
ENDBRANCH  10  25
TORSDOF 5
ENDMDL
MODEL 5
REMARK VINA RESULT:      -6.4      3.362      4.727
REMARK  5 active torsions:
REMARK  status: ('A' for Active; 'I' for Inactive)
REMARK    1  A    between atoms: C_2  and  O_3 
REMARK    2  A    between atoms: C_4  and  C_5 
REMARK    3  A    between atoms: C_5  and  O_6 
REMARK    4  A    between atoms: C_9  and  C_10 
REMARK    5  A    between atoms: C_22  and  O_23 
ROOT
HETATM    1  C   UNL     1      42.666 -17.868   7.587  1.00  0.00     0.047 C 
HETATM    2  C   UNL     1      43.222 -16.783   6.643  1.00  0.00     0.073 C 
HETATM    3  C   UNL     1      42.209 -16.537   5.465  1.00  0.00     0.133 C 
HETATM    4  C   UNL     1      42.186 -17.647   4.361  1.00  0.00     0.074 C 
HETATM    5  C   UNL     1      43.425 -18.482   4.343  1.00  0.00     0.030 A 
HETATM    6  C   UNL     1      44.523 -18.250   5.141  1.00  0.00     0.042 A 
HETATM    7  N   UNL     1      45.432 -19.233   4.873  1.00  0.00    -0.279 N 
HETATM    8  H   UNL     1      46.352 -19.377   5.275  1.00  0.00     0.189 HD
HETATM    9  N   UNL     1      44.972 -20.133   3.977  1.00  0.00    -0.149 NA
HETATM   10  C   UNL     1      43.765 -19.666   3.684  1.00  0.00     0.190 A 
HETATM   11  C   UNL     1      44.646 -17.183   6.155  1.00  0.00     0.097 C 
ENDROOT
BRANCH   4  12
HETATM   12  C   UNL     1      41.988 -17.171   2.925  1.00  0.00    -0.048 A 
HETATM   13  C   UNL     1      43.070 -16.885   2.068  1.00  0.00     0.009 A 
HETATM   14  C   UNL     1      42.858 -16.419   0.768  1.00  0.00     0.019 A 
HETATM   15  C   UNL     1      41.558 -16.228   0.310  1.00  0.00     0.011 A 
HETATM   16 BR   UNL     1      41.267 -15.593  -1.445  1.00  0.00    -0.051 Br
HETATM   17  C   UNL     1      40.471 -16.500   1.138  1.00  0.00     0.019 A 
HETATM   18  C   UNL     1      40.687 -16.966   2.439  1.00  0.00     0.009 A 
ENDBRANCH   4  12
BRANCH   3  19
HETATM   19  C   UNL     1      42.399 -15.143   4.901  1.00  0.00     0.266 C 
HETATM   20  O   UNL     1      43.484 -14.649   4.619  1.00  0.00    -0.265 OA
BRANCH  19  21
HETATM   21  O   UNL     1      41.199 -14.504   4.802  1.00  0.00    -0.326 OA
HETATM   22  C   UNL     1      40.287 -14.788   5.863  1.00  0.00     0.213 C 
ENDBRANCH  19  21
ENDBRANCH   3  19
BRANCH   2  23
HETATM   23  O   UNL     1      43.332 -15.611   7.470  1.00  0.00    -0.389 OA
HETATM   24  H   UNL     1      44.195 -15.190   7.278  1.00  0.00     0.210 HD
ENDBRANCH   2  23
BRANCH  10  25
HETATM   25  O   UNL     1      43.055 -20.407   2.842  1.00  0.00    -0.343 OA
HETATM   26  H   UNL     1      43.403 -20.179   1.963  1.00  0.00     0.219 HD
ENDBRANCH  10  25
TORSDOF 5
ENDMDL
MODEL 6
REMARK VINA RESULT:      -6.4      3.547      6.209
REMARK  5 active torsions:
REMARK  status: ('A' for Active; 'I' for Inactive)
REMARK    1  A    between atoms: C_2  and  O_3 
REMARK    2  A    between atoms: C_4  and  C_5 
REMARK    3  A    between atoms: C_5  and  O_6 
REMARK    4  A    between atoms: C_9  and  C_10 
REMARK    5  A    between atoms: C_22  and  O_23 
ROOT
HETATM    1  C   UNL     1      44.360 -17.290   1.355  1.00  0.00     0.047 C 
HETATM    2  C   UNL     1      42.875 -16.908   1.517  1.00  0.00     0.073 C 
HETATM    3  C   UNL     1      42.764 -15.467   2.137  1.00  0.00     0.133 C 
HETATM    4  C   UNL     1      43.072 -15.373   3.670  1.00  0.00     0.074 C 
HETATM    5  C   UNL     1      42.946 -16.685   4.374  1.00  0.00     0.030 A 
HETATM    6  C   UNL     1      42.509 -17.844   3.772  1.00  0.00     0.042 A 
HETATM    7  N   UNL     1      42.565 -18.832   4.714  1.00  0.00    -0.279 N 
HETATM    8  H   UNL     1      42.318 -19.812   4.623  1.00  0.00     0.189 HD
HETATM    9  N   UNL     1      43.064 -18.398   5.891  1.00  0.00    -0.149 NA
HETATM   10  C   UNL     1      43.294 -17.113   5.657  1.00  0.00     0.190 A 
HETATM   11  C   UNL     1      42.135 -17.994   2.352  1.00  0.00     0.097 C 
ENDROOT
BRANCH   4  12
HETATM   12  C   UNL     1      42.226 -14.390   4.472  1.00  0.00    -0.048 A 
HETATM   13  C   UNL     1      42.619 -13.053   4.685  1.00  0.00     0.009 A 
HETATM   14  C   UNL     1      41.838 -12.185   5.453  1.00  0.00     0.019 A 
HETATM   15  C   UNL     1      40.654 -12.645   6.020  1.00  0.00     0.011 A 
HETATM   16 BR   UNL     1      39.598 -11.476   7.062  1.00  0.00    -0.051 Br
HETATM   17  C   UNL     1      40.245 -13.963   5.827  1.00  0.00     0.019 A 
HETATM   18  C   UNL     1      41.028 -14.830   5.059  1.00  0.00     0.009 A 
ENDBRANCH   4  12
BRANCH   3  19
HETATM   19  C   UNL     1      41.436 -14.841   1.759  1.00  0.00     0.266 C 
HETATM   20  O   UNL     1      40.356 -15.417   1.813  1.00  0.00    -0.265 OA
BRANCH  19  21
HETATM   21  O   UNL     1      41.623 -13.570   1.305  1.00  0.00    -0.326 OA
HETATM   22  C   UNL     1      41.452 -13.411  -0.103  1.00  0.00     0.213 C 
ENDBRANCH  19  21
ENDBRANCH   3  19
BRANCH   2  23
HETATM   23  O   UNL     1      42.353 -16.924   0.176  1.00  0.00    -0.389 OA
HETATM   24  H   UNL     1      41.434 -17.260   0.218  1.00  0.00     0.210 HD
ENDBRANCH   2  23
BRANCH  10  25
HETATM   25  O   UNL     1      43.847 -16.440   6.659  1.00  0.00    -0.343 OA
HETATM   26  H   UNL     1      43.227 -16.551   7.399  1.00  0.00     0.219 HD
ENDBRANCH  10  25
TORSDOF 5
ENDMDL
MODEL 7
REMARK VINA RESULT:      -6.3      3.409      5.399
REMARK  5 active torsions:
REMARK  status: ('A' for Active; 'I' for Inactive)
REMARK    1  A    between atoms: C_2  and  O_3 
REMARK    2  A    between atoms: C_4  and  C_5 
REMARK    3  A    between atoms: C_5  and  O_6 
REMARK    4  A    between atoms: C_9  and  C_10 
REMARK    5  A    between atoms: C_22  and  O_23 
ROOT
HETATM    1  C   UNL     1      40.956 -16.346   5.986  1.00  0.00     0.047 C 
HETATM    2  C   UNL     1      41.392 -15.095   5.197  1.00  0.00     0.073 C 
HETATM    3  C   UNL     1      40.217 -14.621   4.266  1.00  0.00     0.133 C 
HETATM    4  C   UNL     1      39.989 -15.490   2.982  1.00  0.00     0.074 C 
HETATM    5  C   UNL     1      41.185 -16.303   2.606  1.00  0.00     0.030 A 
HETATM    6  C   UNL     1      42.400 -16.232   3.251  1.00  0.00     0.042 A 
HETATM    7  N   UNL     1      43.226 -17.141   2.655  1.00  0.00    -0.279 N 
HETATM    8  H   UNL     1      44.193 -17.360   2.870  1.00  0.00     0.189 HD
HETATM    9  N   UNL     1      42.606 -17.846   1.684  1.00  0.00    -0.149 NA
HETATM   10  C   UNL     1      41.383 -17.332   1.682  1.00  0.00     0.190 A 
HETATM   11  C   UNL     1      42.710 -15.387   4.421  1.00  0.00     0.097 C 
ENDROOT
BRANCH   4  12
HETATM   12  C   UNL     1      39.585 -14.738   1.717  1.00  0.00    -0.048 A 
HETATM   13  C   UNL     1      40.532 -14.152   0.853  1.00  0.00     0.009 A 
HETATM   14  C   UNL     1      40.130 -13.441  -0.281  1.00  0.00     0.019 A 
HETATM   15  C   UNL     1      38.775 -13.305  -0.562  1.00  0.00     0.011 A 
HETATM   16 BR   UNL     1      38.228 -12.340  -2.092  1.00  0.00    -0.051 Br
HETATM   17  C   UNL     1      37.819 -13.871   0.278  1.00  0.00     0.019 A 
HETATM   18  C   UNL     1      38.224 -14.582   1.413  1.00  0.00     0.009 A 
ENDBRANCH   4  12
BRANCH   3  19
HETATM   19  C   UNL     1      40.358 -13.142   3.963  1.00  0.00     0.266 C 
HETATM   20  O   UNL     1      41.408 -12.594   3.649  1.00  0.00    -0.265 OA
BRANCH  19  21
HETATM   21  O   UNL     1      39.166 -12.506   4.141  1.00  0.00    -0.326 OA
HETATM   22  C   UNL     1      38.939 -11.412   3.253  1.00  0.00     0.213 C 
ENDBRANCH  19  21
ENDBRANCH   3  19
BRANCH   2  23
HETATM   23  O   UNL     1      41.664 -14.109   6.210  1.00  0.00    -0.389 OA
HETATM   24  H   UNL     1      41.136 -13.312   6.000  1.00  0.00     0.210 HD
ENDBRANCH   2  23
BRANCH  10  25
HETATM   25  O   UNL     1      40.530 -17.892   0.833  1.00  0.00    -0.343 OA
HETATM   26  H   UNL     1      40.856 -17.635  -0.045  1.00  0.00     0.219 HD
ENDBRANCH  10  25
TORSDOF 5
ENDMDL
MODEL 8
REMARK VINA RESULT:      -6.2      3.250      5.033
REMARK  5 active torsions:
REMARK  status: ('A' for Active; 'I' for Inactive)
REMARK    1  A    between atoms: C_2  and  O_3 
REMARK    2  A    between atoms: C_4  and  C_5 
REMARK    3  A    between atoms: C_5  and  O_6 
REMARK    4  A    between atoms: C_9  and  C_10 
REMARK    5  A    between atoms: C_22  and  O_23 
ROOT
HETATM    1  C   UNL     1      43.641 -15.258   5.940  1.00  0.00     0.047 C 
HETATM    2  C   UNL     1      42.558 -16.078   5.211  1.00  0.00     0.073 C 
HETATM    3  C   UNL     1      42.429 -15.581   3.724  1.00  0.00     0.133 C 
HETATM    4  C   UNL     1      41.683 -14.217   3.538  1.00  0.00     0.074 C 
HETATM    5  C   UNL     1      40.815 -13.860   4.701  1.00  0.00     0.030 A 
HETATM    6  C   UNL     1      40.604 -14.682   5.786  1.00  0.00     0.042 A 
HETATM    7  N   UNL     1      39.793 -14.005   6.652  1.00  0.00    -0.279 N 
HETATM    8  H   UNL     1      39.434 -14.304   7.553  1.00  0.00     0.189 HD
HETATM    9  N   UNL     1      39.498 -12.760   6.220  1.00  0.00    -0.149 NA
HETATM   10  C   UNL     1      40.130 -12.696   5.055  1.00  0.00     0.190 A 
HETATM   11  C   UNL     1      41.217 -16.008   6.000  1.00  0.00     0.097 C 
ENDROOT
BRANCH   4  12
HETATM   12  C   UNL     1      40.793 -14.094   2.304  1.00  0.00    -0.048 A 
HETATM   13  C   UNL     1      39.436 -14.476   2.311  1.00  0.00     0.009 A 
HETATM   14  C   UNL     1      38.655 -14.382   1.157  1.00  0.00     0.019 A 
HETATM   15  C   UNL     1      39.223 -13.909  -0.021  1.00  0.00     0.011 A 
HETATM   16 BR   UNL     1      38.171 -13.786  -1.586  1.00  0.00    -0.051 Br
HETATM   17  C   UNL     1      40.563 -13.528  -0.055  1.00  0.00     0.019 A 
HETATM   18  C   UNL     1      41.343 -13.623   1.101  1.00  0.00     0.009 A 
ENDBRANCH   4  12
BRANCH   3  19
HETATM   19  C   UNL     1      41.868 -16.688   2.854  1.00  0.00     0.266 C 
HETATM   20  O   UNL     1      40.924 -17.405   3.164  1.00  0.00    -0.265 OA
BRANCH  19  21
HETATM   21  O   UNL     1      42.595 -16.803   1.707  1.00  0.00    -0.326 OA
HETATM   22  C   UNL     1      44.000 -16.957   1.907  1.00  0.00     0.213 C 
ENDBRANCH  19  21
ENDBRANCH   3  19
BRANCH   2  23
HETATM   23  O   UNL     1      43.045 -17.432   5.252  1.00  0.00    -0.389 OA
HETATM   24  H   UNL     1      42.313 -18.021   4.976  1.00  0.00     0.210 HD
ENDBRANCH   2  23
BRANCH  10  25
HETATM   25  O   UNL     1      40.046 -11.531   4.424  1.00  0.00    -0.343 OA
HETATM   26  H   UNL     1      40.838 -11.500   3.862  1.00  0.00     0.219 HD
ENDBRANCH  10  25
TORSDOF 5
ENDMDL
MODEL 9
REMARK VINA RESULT:      -5.9      2.562      4.945
REMARK  5 active torsions:
REMARK  status: ('A' for Active; 'I' for Inactive)
REMARK    1  A    between atoms: C_2  and  O_3 
REMARK    2  A    between atoms: C_4  and  C_5 
REMARK    3  A    between atoms: C_5  and  O_6 
REMARK    4  A    between atoms: C_9  and  C_10 
REMARK    5  A    between atoms: C_22  and  O_23 
ROOT
HETATM    1  C   UNL     1      38.316 -11.643   1.593  1.00  0.00     0.047 C 
HETATM    2  C   UNL     1      39.826 -11.896   1.417  1.00  0.00     0.073 C 
HETATM    3  C   UNL     1      40.078 -13.424   1.143  1.00  0.00     0.133 C 
HETATM    4  C   UNL     1      39.952 -14.358   2.394  1.00  0.00     0.074 C 
HETATM    5  C   UNL     1      40.093 -13.625   3.689  1.00  0.00     0.030 A 
HETATM    6  C   UNL     1      40.401 -12.286   3.787  1.00  0.00     0.042 A 
HETATM    7  N   UNL     1      40.405 -11.971   5.116  1.00  0.00    -0.279 N 
HETATM    8  H   UNL     1      40.591 -11.076   5.557  1.00  0.00     0.189 HD
HETATM    9  N   UNL     1      40.065 -13.018   5.898  1.00  0.00    -0.149 NA
HETATM   10  C   UNL     1      39.873 -13.992   5.018  1.00  0.00     0.190 A 
HETATM   11  C   UNL     1      40.603 -11.359   2.656  1.00  0.00     0.097 C 
ENDROOT
BRANCH   4  12
HETATM   12  C   UNL     1      40.932 -15.525   2.470  1.00  0.00    -0.048 A 
HETATM   13  C   UNL     1      40.655 -16.783   1.899  1.00  0.00     0.009 A 
HETATM   14  C   UNL     1      41.558 -17.842   2.014  1.00  0.00     0.019 A 
HETATM   15  C   UNL     1      42.751 -17.657   2.706  1.00  0.00     0.011 A 
HETATM   16 BR   UNL     1      43.973 -19.088   2.867  1.00  0.00    -0.051 Br
HETATM   17  C   UNL     1      43.047 -16.424   3.282  1.00  0.00     0.019 A 
HETATM   18  C   UNL     1      42.141 -15.365   3.166  1.00  0.00     0.009 A 
ENDBRANCH   4  12
BRANCH   3  19
HETATM   19  C   UNL     1      41.384 -13.608   0.394  1.00  0.00     0.266 C 
HETATM   20  O   UNL     1      42.423 -13.012   0.653  1.00  0.00    -0.265 OA
BRANCH  19  21
HETATM   21  O   UNL     1      41.221 -14.488  -0.633  1.00  0.00    -0.326 OA
HETATM   22  C   UNL     1      40.648 -13.924  -1.813  1.00  0.00     0.213 C 
ENDBRANCH  19  21
ENDBRANCH   3  19
BRANCH   2  23
HETATM   23  O   UNL     1      40.190 -11.108   0.270  1.00  0.00    -0.389 OA
HETATM   24  H   UNL     1      39.832 -10.206   0.402  1.00  0.00     0.210 HD
ENDBRANCH   2  23
BRANCH  10  25
HETATM   25  O   UNL     1      39.472 -15.151   5.528  1.00  0.00    -0.343 OA
HETATM   26  H   UNL     1      38.988 -15.581   4.803  1.00  0.00     0.219 HD
ENDBRANCH  10  25
TORSDOF 5
ENDMDL
MODEL 10
REMARK VINA RESULT:      -5.9      3.032      5.035
REMARK  5 active torsions:
REMARK  status: ('A' for Active; 'I' for Inactive)
REMARK    1  A    between atoms: C_2  and  O_3 
REMARK    2  A    between atoms: C_4  and  C_5 
REMARK    3  A    between atoms: C_5  and  O_6 
REMARK    4  A    between atoms: C_9  and  C_10 
REMARK    5  A    between atoms: C_22  and  O_23 
ROOT
HETATM    1  C   UNL     1      44.747 -17.435   6.251  1.00  0.00     0.047 C 
HETATM    2  C   UNL     1      43.993 -18.070   5.065  1.00  0.00     0.073 C 
HETATM    3  C   UNL     1      43.962 -17.062   3.858  1.00  0.00     0.133 C 
HETATM    4  C   UNL     1      42.955 -15.871   4.008  1.00  0.00     0.074 C 
HETATM    5  C   UNL     1      41.876 -16.138   5.006  1.00  0.00     0.030 A 
HETATM    6  C   UNL     1      41.711 -17.339   5.661  1.00  0.00     0.042 A 
HETATM    7  N   UNL     1      40.654 -17.191   6.513  1.00  0.00    -0.279 N 
HETATM    8  H   UNL     1      40.251 -17.869   7.151  1.00  0.00     0.189 HD
HETATM    9  N   UNL     1      40.145 -15.940   6.494  1.00  0.00    -0.149 NA
HETATM   10  C   UNL     1      40.900 -15.328   5.591  1.00  0.00     0.190 A 
HETATM   11  C   UNL     1      42.576 -18.527   5.520  1.00  0.00     0.097 C 
ENDROOT
BRANCH   4  12
HETATM   12  C   UNL     1      42.241 -15.424   2.736  1.00  0.00    -0.048 A 
HETATM   13  C   UNL     1      42.614 -14.263   2.029  1.00  0.00     0.009 A 
HETATM   14  C   UNL     1      41.919 -13.861   0.885  1.00  0.00     0.019 A 
HETATM   15  C   UNL     1      40.840 -14.614   0.436  1.00  0.00     0.011 A 
HETATM   16 BR   UNL     1      39.895 -14.071  -1.107  1.00  0.00    -0.051 Br
HETATM   17  C   UNL     1      40.449 -15.764   1.118  1.00  0.00     0.019 A 
HETATM   18  C   UNL     1      41.146 -16.164   2.263  1.00  0.00     0.009 A 
ENDBRANCH   4  12
BRANCH   3  19
HETATM   19  C   UNL     1      43.796 -17.819   2.555  1.00  0.00     0.266 C 
HETATM   20  O   UNL     1      44.344 -17.517   1.502  1.00  0.00    -0.265 OA
BRANCH  19  21
HETATM   21  O   UNL     1      42.914 -18.846   2.713  1.00  0.00    -0.326 OA
HETATM   22  C   UNL     1      43.188 -19.992   1.907  1.00  0.00     0.213 C 
ENDBRANCH  19  21
ENDBRANCH   3  19
BRANCH   2  23
HETATM   23  O   UNL     1      44.767 -19.236   4.731  1.00  0.00    -0.389 OA
HETATM   24  H   UNL     1      44.478 -19.964   5.318  1.00  0.00     0.210 HD
ENDBRANCH   2  23
BRANCH  10  25
HETATM   25  O   UNL     1      40.639 -14.040   5.407  1.00  0.00    -0.343 OA
HETATM   26  H   UNL     1      40.146 -13.775   6.201  1.00  0.00     0.219 HD
ENDBRANCH  10  25
TORSDOF 5
ENDMDL
