MODEL 1
REMARK VINA RESULT:      -8.9      0.000      0.000
REMARK  5 active torsions:
REMARK  status: ('A' for Active; 'I' for Inactive)
REMARK    1  A    between atoms: C_3  and  N_4 
REMARK       I    between atoms: N_4  and  C_5 
REMARK       I    between atoms: C_5  and  N_6 
REMARK    2  A    between atoms: N_6  and  C_7 
REMARK    3  A    between atoms: C_7  and  C_8 
REMARK    4  A    between atoms: C_16  and  N_17 
REMARK       I    between atoms: N_17  and  C_18 
REMARK    5  A    between atoms: C_18  and  C_19 
ROOT
HETATM    1  C   UNL     1      42.771 -13.460   5.335  1.00  0.00     0.050 C 
HETATM    2  C   UNL     1      42.948 -14.831   5.932  1.00  0.00    -0.035 A 
HETATM    3  C   UNL     1      44.109 -15.202   6.634  1.00  0.00     0.044 A 
HETATM    4  C   UNL     1      44.222 -16.496   7.187  1.00  0.00     0.059 A 
HETATM    5  C   UNL     1      43.208 -17.437   7.011  1.00  0.00     0.037 A 
HETATM    6  C   UNL     1      42.079 -17.068   6.263  1.00  0.00     0.030 A 
HETATM    7  C   UNL     1      41.945 -15.783   5.737  1.00  0.00     0.011 A 
ENDROOT
BRANCH   3   8
HETATM    8  N   UNL     1      45.110 -14.232   6.830  1.00  0.00    -0.308 N 
HETATM    9  C   UNL     1      45.198 -13.216   7.732  1.00  0.00     0.321 C 
HETATM   10  N   UNL     1      44.331 -13.235   8.776  1.00  0.00    -0.336 N 
HETATM   11  O   UNL     1      46.114 -12.400   7.642  1.00  0.00    -0.247 OA
HETATM   12  H   UNL     1      43.842 -14.100   8.966  1.00  0.00     0.164 HD
HETATM   13  H   UNL     1      45.978 -14.346   6.324  1.00  0.00     0.170 HD
BRANCH  10  14
HETATM   14  C   UNL     1      44.575 -12.404   9.929  1.00  0.00     0.202 C 
BRANCH  14  15
HETATM   15  C   UNL     1      43.442 -11.447  10.083  1.00  0.00     0.121 A 
HETATM   16  N   UNL     1      43.201 -10.365   9.363  1.00  0.00    -0.244 NA
HETATM   17  C   UNL     1      42.058  -9.819   9.884  1.00  0.00     0.135 A 
HETATM   18  C   UNL     1      41.585 -10.581  10.923  1.00  0.00     0.109 A 
HETATM   19  N   UNL     1      42.468 -11.618  11.037  1.00  0.00    -0.352 N 
HETATM   20  H   UNL     1      42.416 -12.380  11.700  1.00  0.00     0.166 HD
ENDBRANCH  14  15
ENDBRANCH  10  14
ENDBRANCH   3   8
BRANCH   5  21
HETATM   21  N   UNL     1      43.149 -18.725   7.572  1.00  0.00    -0.323 N 
HETATM   22  C   UNL     1      43.631 -19.964   7.244  1.00  0.00     0.256 C 
HETATM   23  O   UNL     1      43.631 -20.836   8.118  1.00  0.00    -0.267 OA
HETATM   24  H   UNL     1      42.768 -18.768   8.511  1.00  0.00     0.169 HD
BRANCH  22  25
HETATM   25  C   UNL     1      44.117 -20.346   5.911  1.00  0.00     0.032 A 
HETATM   26  C   UNL     1      44.073 -19.452   4.838  1.00  0.00     0.017 A 
HETATM   27  C   UNL     1      44.404 -19.900   3.557  1.00  0.00     0.001 A 
HETATM   28  C   UNL     1      44.763 -21.231   3.344  1.00  0.00     0.000 A 
HETATM   29  C   UNL     1      44.781 -22.128   4.410  1.00  0.00     0.001 A 
HETATM   30  C   UNL     1      44.449 -21.689   5.691  1.00  0.00     0.017 A 
ENDBRANCH  22  25
ENDBRANCH   5  21
TORSDOF 5
ENDMDL
MODEL 2
REMARK VINA RESULT:      -8.9      3.090      4.756
REMARK  5 active torsions:
REMARK  status: ('A' for Active; 'I' for Inactive)
REMARK    1  A    between atoms: C_3  and  N_4 
REMARK       I    between atoms: N_4  and  C_5 
REMARK       I    between atoms: C_5  and  N_6 
REMARK    2  A    between atoms: N_6  and  C_7 
REMARK    3  A    between atoms: C_7  and  C_8 
REMARK    4  A    between atoms: C_16  and  N_17 
REMARK       I    between atoms: N_17  and  C_18 
REMARK    5  A    between atoms: C_18  and  C_19 
ROOT
HETATM    1  C   UNL     1      40.951 -15.498   0.837  1.00  0.00     0.050 C 
HETATM    2  C   UNL     1      41.772 -16.586   1.477  1.00  0.00    -0.035 A 
HETATM    3  C   UNL     1      41.635 -16.932   2.834  1.00  0.00     0.044 A 
HETATM    4  C   UNL     1      42.418 -17.969   3.386  1.00  0.00     0.059 A 
HETATM    5  C   UNL     1      43.366 -18.635   2.609  1.00  0.00     0.037 A 
HETATM    6  C   UNL     1      43.528 -18.242   1.271  1.00  0.00     0.030 A 
HETATM    7  C   UNL     1      42.739 -17.238   0.710  1.00  0.00     0.011 A 
ENDROOT
BRANCH   3   8
HETATM    8  N   UNL     1      40.653 -16.272   3.596  1.00  0.00    -0.308 N 
HETATM    9  C   UNL     1      40.769 -15.310   4.552  1.00  0.00     0.321 C 
HETATM   10  N   UNL     1      41.970 -14.688   4.666  1.00  0.00    -0.336 N 
HETATM   11  O   UNL     1      39.775 -14.959   5.187  1.00  0.00    -0.247 OA
HETATM   12  H   UNL     1      42.626 -14.788   3.902  1.00  0.00     0.164 HD
HETATM   13  H   UNL     1      39.686 -16.412   3.336  1.00  0.00     0.170 HD
BRANCH  10  14
HETATM   14  C   UNL     1      42.075 -13.454   5.405  1.00  0.00     0.202 C 
BRANCH  14  15
HETATM   15  C   UNL     1      43.306 -13.498   6.246  1.00  0.00     0.121 A 
HETATM   16  N   UNL     1      44.437 -14.128   5.982  1.00  0.00    -0.244 NA
HETATM   17  C   UNL     1      45.260 -13.876   7.048  1.00  0.00     0.135 A 
HETATM   18  C   UNL     1      44.632 -13.073   7.968  1.00  0.00     0.109 A 
HETATM   19  N   UNL     1      43.392 -12.831   7.445  1.00  0.00    -0.352 N 
HETATM   20  H   UNL     1      42.667 -12.262   7.859  1.00  0.00     0.166 HD
ENDBRANCH  14  15
ENDBRANCH  10  14
ENDBRANCH   3   8
BRANCH   5  21
HETATM   21  N   UNL     1      44.151 -19.735   3.000  1.00  0.00    -0.323 N 
HETATM   22  C   UNL     1      44.509 -20.315   4.188  1.00  0.00     0.256 C 
HETATM   23  O   UNL     1      44.986 -21.453   4.156  1.00  0.00    -0.267 OA
HETATM   24  H   UNL     1      44.442 -20.346   2.244  1.00  0.00     0.169 HD
BRANCH  22  25
HETATM   25  C   UNL     1      44.402 -19.664   5.501  1.00  0.00     0.032 A 
HETATM   26  C   UNL     1      45.072 -18.470   5.778  1.00  0.00     0.017 A 
HETATM   27  C   UNL     1      45.063 -17.965   7.080  1.00  0.00     0.001 A 
HETATM   28  C   UNL     1      44.406 -18.650   8.102  1.00  0.00     0.000 A 
HETATM   29  C   UNL     1      43.759 -19.855   7.830  1.00  0.00     0.001 A 
HETATM   30  C   UNL     1      43.765 -20.367   6.533  1.00  0.00     0.017 A 
ENDBRANCH  22  25
ENDBRANCH   5  21
TORSDOF 5
ENDMDL
MODEL 3
REMARK VINA RESULT:      -8.7      1.833      8.785
REMARK  5 active torsions:
REMARK  status: ('A' for Active; 'I' for Inactive)
REMARK    1  A    between atoms: C_3  and  N_4 
REMARK       I    between atoms: N_4  and  C_5 
REMARK       I    between atoms: C_5  and  N_6 
REMARK    2  A    between atoms: N_6  and  C_7 
REMARK    3  A    between atoms: C_7  and  C_8 
REMARK    4  A    between atoms: C_16  and  N_17 
REMARK       I    between atoms: N_17  and  C_18 
REMARK    5  A    between atoms: C_18  and  C_19 
ROOT
HETATM    1  C   UNL     1      41.034 -17.294   5.802  1.00  0.00     0.050 C 
HETATM    2  C   UNL     1      42.162 -16.381   6.206  1.00  0.00    -0.035 A 
HETATM    3  C   UNL     1      43.244 -16.822   6.988  1.00  0.00     0.044 A 
HETATM    4  C   UNL     1      44.285 -15.931   7.329  1.00  0.00     0.059 A 
HETATM    5  C   UNL     1      44.235 -14.595   6.934  1.00  0.00     0.037 A 
HETATM    6  C   UNL     1      43.123 -14.158   6.198  1.00  0.00     0.030 A 
HETATM    7  C   UNL     1      42.104 -15.037   5.832  1.00  0.00     0.011 A 
ENDROOT
BRANCH   3   8
HETATM    8  N   UNL     1      43.294 -18.181   7.353  1.00  0.00    -0.308 N 
HETATM    9  C   UNL     1      43.705 -19.274   6.653  1.00  0.00     0.321 C 
HETATM   10  N   UNL     1      44.399 -19.054   5.507  1.00  0.00    -0.336 N 
HETATM   11  O   UNL     1      43.543 -20.397   7.128  1.00  0.00    -0.247 OA
HETATM   12  H   UNL     1      44.781 -18.129   5.359  1.00  0.00     0.164 HD
HETATM   13  H   UNL     1      43.127 -18.412   8.323  1.00  0.00     0.170 HD
BRANCH  10  14
HETATM   14  C   UNL     1      45.145 -20.128   4.900  1.00  0.00     0.202 C 
BRANCH  14  15
HETATM   15  C   UNL     1      44.525 -20.464   3.585  1.00  0.00     0.121 A 
HETATM   16  N   UNL     1      43.878 -19.648   2.771  1.00  0.00    -0.244 NA
HETATM   17  C   UNL     1      43.497 -20.416   1.702  1.00  0.00     0.135 A 
HETATM   18  C   UNL     1      43.927 -21.711   1.856  1.00  0.00     0.109 A 
HETATM   19  N   UNL     1      44.586 -21.729   3.053  1.00  0.00    -0.352 N 
HETATM   20  H   UNL     1      45.043 -22.527   3.475  1.00  0.00     0.166 HD
ENDBRANCH  14  15
ENDBRANCH  10  14
ENDBRANCH   3   8
BRANCH   5  21
HETATM   21  N   UNL     1      45.234 -13.623   7.129  1.00  0.00    -0.323 N 
HETATM   22  C   UNL     1      45.513 -12.676   8.078  1.00  0.00     0.256 C 
HETATM   23  O   UNL     1      46.641 -12.175   8.082  1.00  0.00    -0.267 OA
HETATM   24  H   UNL     1      46.024 -13.686   6.496  1.00  0.00     0.169 HD
BRANCH  22  25
HETATM   25  C   UNL     1      44.552 -12.184   9.075  1.00  0.00     0.032 A 
HETATM   26  C   UNL     1      43.489 -11.355   8.712  1.00  0.00     0.017 A 
HETATM   27  C   UNL     1      42.688 -10.790   9.708  1.00  0.00     0.001 A 
HETATM   28  C   UNL     1      42.954 -11.036  11.055  1.00  0.00     0.000 A 
HETATM   29  C   UNL     1      44.032 -11.842  11.417  1.00  0.00     0.001 A 
HETATM   30  C   UNL     1      44.836 -12.409  10.429  1.00  0.00     0.017 A 
ENDBRANCH  22  25
ENDBRANCH   5  21
TORSDOF 5
ENDMDL
MODEL 4
REMARK VINA RESULT:      -8.5      2.135      2.878
REMARK  5 active torsions:
REMARK  status: ('A' for Active; 'I' for Inactive)
REMARK    1  A    between atoms: C_3  and  N_4 
REMARK       I    between atoms: N_4  and  C_5 
REMARK       I    between atoms: C_5  and  N_6 
REMARK    2  A    between atoms: N_6  and  C_7 
REMARK    3  A    between atoms: C_7  and  C_8 
REMARK    4  A    between atoms: C_16  and  N_17 
REMARK       I    between atoms: N_17  and  C_18 
REMARK    5  A    between atoms: C_18  and  C_19 
ROOT
HETATM    1  C   UNL     1      39.262 -13.828   5.492  1.00  0.00     0.050 C 
HETATM    2  C   UNL     1      40.546 -14.566   5.766  1.00  0.00    -0.035 A 
HETATM    3  C   UNL     1      41.805 -13.942   5.686  1.00  0.00     0.044 A 
HETATM    4  C   UNL     1      42.980 -14.673   5.965  1.00  0.00     0.059 A 
HETATM    5  C   UNL     1      42.915 -16.030   6.283  1.00  0.00     0.037 A 
HETATM    6  C   UNL     1      41.656 -16.649   6.308  1.00  0.00     0.030 A 
HETATM    7  C   UNL     1      40.487 -15.929   6.061  1.00  0.00     0.011 A 
ENDROOT
BRANCH   3   8
HETATM    8  N   UNL     1      41.851 -12.566   5.394  1.00  0.00    -0.308 N 
HETATM    9  C   UNL     1      41.756 -11.481   6.211  1.00  0.00     0.321 C 
HETATM   10  N   UNL     1      41.866 -11.697   7.547  1.00  0.00    -0.336 N 
HETATM   11  O   UNL     1      41.695 -10.354   5.722  1.00  0.00    -0.247 OA
HETATM   12  H   UNL     1      42.247 -12.585   7.850  1.00  0.00     0.164 HD
HETATM   13  H   UNL     1      42.121 -12.294   4.458  1.00  0.00     0.170 HD
BRANCH  10  14
HETATM   14  C   UNL     1      42.111 -10.590   8.437  1.00  0.00     0.202 C 
BRANCH  14  15
HETATM   15  C   UNL     1      43.157 -10.985   9.424  1.00  0.00     0.121 A 
HETATM   16  N   UNL     1      44.450 -10.717   9.375  1.00  0.00    -0.244 NA
HETATM   17  C   UNL     1      44.991 -11.290  10.495  1.00  0.00     0.135 A 
HETATM   18  C   UNL     1      44.019 -11.903  11.246  1.00  0.00     0.109 A 
HETATM   19  N   UNL     1      42.854 -11.697  10.560  1.00  0.00    -0.352 N 
HETATM   20  H   UNL     1      41.933 -12.007  10.836  1.00  0.00     0.166 HD
ENDBRANCH  14  15
ENDBRANCH  10  14
ENDBRANCH   3   8
BRANCH   5  21
HETATM   21  N   UNL     1      43.987 -16.856   6.664  1.00  0.00    -0.323 N 
HETATM   22  C   UNL     1      44.748 -17.821   6.061  1.00  0.00     0.256 C 
HETATM   23  O   UNL     1      45.807 -18.150   6.606  1.00  0.00    -0.267 OA
HETATM   24  H   UNL     1      44.408 -16.629   7.559  1.00  0.00     0.169 HD
BRANCH  22  25
HETATM   25  C   UNL     1      44.379 -18.525   4.824  1.00  0.00     0.032 A 
HETATM   26  C   UNL     1      44.638 -19.887   4.659  1.00  0.00     0.017 A 
HETATM   27  C   UNL     1      44.408 -20.484   3.417  1.00  0.00     0.001 A 
HETATM   28  C   UNL     1      43.939 -19.726   2.344  1.00  0.00     0.000 A 
HETATM   29  C   UNL     1      43.706 -18.361   2.503  1.00  0.00     0.001 A 
HETATM   30  C   UNL     1      43.935 -17.758   3.739  1.00  0.00     0.017 A 
ENDBRANCH  22  25
ENDBRANCH   5  21
TORSDOF 5
ENDMDL
MODEL 5
REMARK VINA RESULT:      -8.5      3.518      5.824
REMARK  5 active torsions:
REMARK  status: ('A' for Active; 'I' for Inactive)
REMARK    1  A    between atoms: C_3  and  N_4 
REMARK       I    between atoms: N_4  and  C_5 
REMARK       I    between atoms: C_5  and  N_6 
REMARK    2  A    between atoms: N_6  and  C_7 
REMARK    3  A    between atoms: C_7  and  C_8 
REMARK    4  A    between atoms: C_16  and  N_17 
REMARK       I    between atoms: N_17  and  C_18 
REMARK    5  A    between atoms: C_18  and  C_19 
ROOT
HETATM    1  C   UNL     1      43.616 -13.732   6.231  1.00  0.00     0.050 C 
HETATM    2  C   UNL     1      43.536 -15.223   6.426  1.00  0.00    -0.035 A 
HETATM    3  C   UNL     1      42.308 -15.902   6.535  1.00  0.00     0.044 A 
HETATM    4  C   UNL     1      42.284 -17.304   6.704  1.00  0.00     0.059 A 
HETATM    5  C   UNL     1      43.471 -18.029   6.807  1.00  0.00     0.037 A 
HETATM    6  C   UNL     1      44.686 -17.330   6.748  1.00  0.00     0.030 A 
HETATM    7  C   UNL     1      44.721 -15.949   6.554  1.00  0.00     0.011 A 
ENDROOT
BRANCH   3   8
HETATM    8  N   UNL     1      41.120 -15.160   6.399  1.00  0.00    -0.308 N 
HETATM    9  C   UNL     1      40.425 -14.792   5.287  1.00  0.00     0.321 C 
HETATM   10  N   UNL     1      40.753 -15.401   4.119  1.00  0.00    -0.336 N 
HETATM   11  O   UNL     1      39.467 -14.028   5.393  1.00  0.00    -0.247 OA
HETATM   12  H   UNL     1      41.307 -16.247   4.168  1.00  0.00     0.164 HD
HETATM   13  H   UNL     1      40.597 -14.955   7.239  1.00  0.00     0.170 HD
BRANCH  10  14
HETATM   14  C   UNL     1      39.861 -15.319   2.989  1.00  0.00     0.202 C 
BRANCH  14  15
HETATM   15  C   UNL     1      40.610 -15.689   1.754  1.00  0.00     0.121 A 
HETATM   16  N   UNL     1      41.681 -16.460   1.664  1.00  0.00    -0.244 NA
HETATM   17  C   UNL     1      42.001 -16.497   0.333  1.00  0.00     0.135 A 
HETATM   18  C   UNL     1      41.110 -15.754  -0.402  1.00  0.00     0.109 A 
HETATM   19  N   UNL     1      40.225 -15.251   0.510  1.00  0.00    -0.352 N 
HETATM   20  H   UNL     1      39.426 -14.664   0.311  1.00  0.00     0.166 HD
ENDBRANCH  14  15
ENDBRANCH  10  14
ENDBRANCH   3   8
BRANCH   5  21
HETATM   21  N   UNL     1      43.597 -19.427   6.891  1.00  0.00    -0.323 N 
HETATM   22  C   UNL     1      44.004 -20.430   6.052  1.00  0.00     0.256 C 
HETATM   23  O   UNL     1      44.261 -21.531   6.547  1.00  0.00    -0.267 OA
HETATM   24  H   UNL     1      43.482 -19.814   7.821  1.00  0.00     0.169 HD
BRANCH  22  25
HETATM   25  C   UNL     1      44.125 -20.302   4.593  1.00  0.00     0.032 A 
HETATM   26  C   UNL     1      43.514 -19.252   3.902  1.00  0.00     0.017 A 
HETATM   27  C   UNL     1      43.528 -19.249   2.506  1.00  0.00     0.001 A 
HETATM   28  C   UNL     1      44.133 -20.291   1.802  1.00  0.00     0.000 A 
HETATM   29  C   UNL     1      44.720 -21.351   2.491  1.00  0.00     0.001 A 
HETATM   30  C   UNL     1      44.708 -21.362   3.885  1.00  0.00     0.017 A 
ENDBRANCH  22  25
ENDBRANCH   5  21
TORSDOF 5
ENDMDL
MODEL 6
REMARK VINA RESULT:      -8.3      4.544      6.435
REMARK  5 active torsions:
REMARK  status: ('A' for Active; 'I' for Inactive)
REMARK    1  A    between atoms: C_3  and  N_4 
REMARK       I    between atoms: N_4  and  C_5 
REMARK       I    between atoms: C_5  and  N_6 
REMARK    2  A    between atoms: N_6  and  C_7 
REMARK    3  A    between atoms: C_7  and  C_8 
REMARK    4  A    between atoms: C_16  and  N_17 
REMARK       I    between atoms: N_17  and  C_18 
REMARK    5  A    between atoms: C_18  and  C_19 
ROOT
HETATM    1  C   UNL     1      39.665 -13.604   4.570  1.00  0.00     0.050 C 
HETATM    2  C   UNL     1      40.835 -14.499   4.887  1.00  0.00    -0.035 A 
HETATM    3  C   UNL     1      42.072 -14.382   4.228  1.00  0.00     0.044 A 
HETATM    4  C   UNL     1      43.143 -15.235   4.571  1.00  0.00     0.059 A 
HETATM    5  C   UNL     1      42.981 -16.230   5.534  1.00  0.00     0.037 A 
HETATM    6  C   UNL     1      41.725 -16.367   6.145  1.00  0.00     0.030 A 
HETATM    7  C   UNL     1      40.669 -15.511   5.834  1.00  0.00     0.011 A 
ENDROOT
BRANCH   3   8
HETATM    8  N   UNL     1      42.229 -13.353   3.280  1.00  0.00    -0.308 N 
HETATM    9  C   UNL     1      42.194 -13.386   1.920  1.00  0.00     0.321 C 
HETATM   10  N   UNL     1      41.707 -14.511   1.337  1.00  0.00    -0.336 N 
HETATM   11  O   UNL     1      42.485 -12.377   1.279  1.00  0.00    -0.247 OA
HETATM   12  H   UNL     1      41.181 -15.152   1.918  1.00  0.00     0.164 HD
HETATM   13  H   UNL     1      42.248 -12.401   3.621  1.00  0.00     0.170 HD
BRANCH  10  14
HETATM   14  C   UNL     1      41.329 -14.496  -0.054  1.00  0.00     0.202 C 
BRANCH  14  15
HETATM   15  C   UNL     1      39.882 -14.148  -0.158  1.00  0.00     0.121 A 
HETATM   16  N   UNL     1      39.291 -13.448  -1.111  1.00  0.00    -0.244 NA
HETATM   17  C   UNL     1      37.966 -13.395  -0.765  1.00  0.00     0.135 A 
HETATM   18  C   UNL     1      37.741 -14.081   0.403  1.00  0.00     0.109 A 
HETATM   19  N   UNL     1      38.964 -14.563   0.777  1.00  0.00    -0.352 N 
HETATM   20  H   UNL     1      39.164 -15.127   1.591  1.00  0.00     0.166 HD
ENDBRANCH  14  15
ENDBRANCH  10  14
ENDBRANCH   3   8
BRANCH   5  21
HETATM   21  N   UNL     1      43.977 -17.089   6.032  1.00  0.00    -0.323 N 
HETATM   22  C   UNL     1      44.674 -18.167   5.556  1.00  0.00     0.256 C 
HETATM   23  O   UNL     1      45.691 -18.514   6.164  1.00  0.00    -0.267 OA
HETATM   24  H   UNL     1      44.394 -16.800   6.910  1.00  0.00     0.169 HD
BRANCH  22  25
HETATM   25  C   UNL     1      44.279 -18.968   4.389  1.00  0.00     0.032 A 
HETATM   26  C   UNL     1      44.621 -20.319   4.285  1.00  0.00     0.017 A 
HETATM   27  C   UNL     1      44.357 -21.004   3.097  1.00  0.00     0.001 A 
HETATM   28  C   UNL     1      43.772 -20.346   2.015  1.00  0.00     0.000 A 
HETATM   29  C   UNL     1      43.456 -18.992   2.110  1.00  0.00     0.001 A 
HETATM   30  C   UNL     1      43.718 -18.301   3.292  1.00  0.00     0.017 A 
ENDBRANCH  22  25
ENDBRANCH   5  21
TORSDOF 5
ENDMDL
MODEL 7
REMARK VINA RESULT:      -8.2      3.877      5.255
REMARK  5 active torsions:
REMARK  status: ('A' for Active; 'I' for Inactive)
REMARK    1  A    between atoms: C_3  and  N_4 
REMARK       I    between atoms: N_4  and  C_5 
REMARK       I    between atoms: C_5  and  N_6 
REMARK    2  A    between atoms: N_6  and  C_7 
REMARK    3  A    between atoms: C_7  and  C_8 
REMARK    4  A    between atoms: C_16  and  N_17 
REMARK       I    between atoms: N_17  and  C_18 
REMARK    5  A    between atoms: C_18  and  C_19 
ROOT
HETATM    1  C   UNL     1      40.859 -15.364   1.207  1.00  0.00     0.050 C 
HETATM    2  C   UNL     1      41.694 -16.502   1.733  1.00  0.00    -0.035 A 
HETATM    3  C   UNL     1      41.635 -16.921   3.075  1.00  0.00     0.044 A 
HETATM    4  C   UNL     1      42.427 -18.002   3.518  1.00  0.00     0.059 A 
HETATM    5  C   UNL     1      43.307 -18.643   2.646  1.00  0.00     0.037 A 
HETATM    6  C   UNL     1      43.392 -18.180   1.324  1.00  0.00     0.030 A 
HETATM    7  C   UNL     1      42.593 -17.131   0.870  1.00  0.00     0.011 A 
ENDROOT
BRANCH   3   8
HETATM    8  N   UNL     1      40.719 -16.284   3.934  1.00  0.00    -0.308 N 
HETATM    9  C   UNL     1      40.876 -15.218   4.766  1.00  0.00     0.321 C 
HETATM   10  N   UNL     1      41.998 -14.470   4.613  1.00  0.00    -0.336 N 
HETATM   11  O   UNL     1      39.965 -14.902   5.529  1.00  0.00    -0.247 OA
HETATM   12  H   UNL     1      42.528 -14.585   3.758  1.00  0.00     0.164 HD
HETATM   13  H   UNL     1      39.746 -16.548   3.860  1.00  0.00     0.170 HD
BRANCH  10  14
HETATM   14  C   UNL     1      42.077 -13.159   5.209  1.00  0.00     0.202 C 
BRANCH  14  15
HETATM   15  C   UNL     1      41.469 -12.166   4.277  1.00  0.00     0.121 A 
HETATM   16  N   UNL     1      40.615 -11.203   4.575  1.00  0.00    -0.244 NA
HETATM   17  C   UNL     1      40.348 -10.565   3.392  1.00  0.00     0.135 A 
HETATM   18  C   UNL     1      41.057 -11.133   2.363  1.00  0.00     0.109 A 
HETATM   19  N   UNL     1      41.773 -12.146   2.937  1.00  0.00    -0.352 N 
HETATM   20  H   UNL     1      42.416 -12.768   2.466  1.00  0.00     0.166 HD
ENDBRANCH  14  15
ENDBRANCH  10  14
ENDBRANCH   3   8
BRANCH   5  21
HETATM   21  N   UNL     1      44.089 -19.779   2.925  1.00  0.00    -0.323 N 
HETATM   22  C   UNL     1      44.527 -20.418   4.054  1.00  0.00     0.256 C 
HETATM   23  O   UNL     1      44.966 -21.566   3.937  1.00  0.00    -0.267 OA
HETATM   24  H   UNL     1      44.299 -20.364   2.124  1.00  0.00     0.169 HD
BRANCH  22  25
HETATM   25  C   UNL     1      44.546 -19.823   5.398  1.00  0.00     0.032 A 
HETATM   26  C   UNL     1      43.766 -20.342   6.434  1.00  0.00     0.017 A 
HETATM   27  C   UNL     1      43.699 -19.659   7.651  1.00  0.00     0.001 A 
HETATM   28  C   UNL     1      44.391 -18.461   7.830  1.00  0.00     0.000 A 
HETATM   29  C   UNL     1      45.148 -17.931   6.787  1.00  0.00     0.001 A 
HETATM   30  C   UNL     1      45.218 -18.605   5.569  1.00  0.00     0.017 A 
ENDBRANCH  22  25
ENDBRANCH   5  21
TORSDOF 5
ENDMDL
MODEL 8
REMARK VINA RESULT:      -8.1      7.311      9.183
REMARK  5 active torsions:
REMARK  status: ('A' for Active; 'I' for Inactive)
REMARK    1  A    between atoms: C_3  and  N_4 
REMARK       I    between atoms: N_4  and  C_5 
REMARK       I    between atoms: C_5  and  N_6 
REMARK    2  A    between atoms: N_6  and  C_7 
REMARK    3  A    between atoms: C_7  and  C_8 
REMARK    4  A    between atoms: C_16  and  N_17 
REMARK       I    between atoms: N_17  and  C_18 
REMARK    5  A    between atoms: C_18  and  C_19 
ROOT
HETATM    1  C   UNL     1      42.211 -12.679  -0.678  1.00  0.00     0.050 C 
HETATM    2  C   UNL     1      41.768 -13.700   0.337  1.00  0.00    -0.035 A 
HETATM    3  C   UNL     1      41.398 -15.008  -0.024  1.00  0.00     0.044 A 
HETATM    4  C   UNL     1      41.003 -15.934   0.967  1.00  0.00     0.059 A 
HETATM    5  C   UNL     1      40.933 -15.555   2.307  1.00  0.00     0.037 A 
HETATM    6  C   UNL     1      41.255 -14.231   2.644  1.00  0.00     0.030 A 
HETATM    7  C   UNL     1      41.674 -13.318   1.676  1.00  0.00     0.011 A 
ENDROOT
BRANCH   3   8
HETATM    8  N   UNL     1      41.503 -15.383  -1.376  1.00  0.00    -0.308 N 
HETATM    9  C   UNL     1      40.554 -15.481  -2.347  1.00  0.00     0.321 C 
HETATM   10  N   UNL     1      39.343 -14.922  -2.092  1.00  0.00    -0.336 N 
HETATM   11  O   UNL     1      40.850 -15.955  -3.443  1.00  0.00    -0.247 OA
HETATM   12  H   UNL     1      39.280 -14.267  -1.323  1.00  0.00     0.164 HD
HETATM   13  H   UNL     1      42.432 -15.483  -1.764  1.00  0.00     0.170 HD
BRANCH  10  14
HETATM   14  C   UNL     1      38.415 -14.690  -3.171  1.00  0.00     0.202 C 
BRANCH  14  15
HETATM   15  C   UNL     1      38.377 -13.230  -3.470  1.00  0.00     0.121 A 
HETATM   16  N   UNL     1      37.337 -12.419  -3.382  1.00  0.00    -0.244 NA
HETATM   17  C   UNL     1      37.796 -11.185  -3.761  1.00  0.00     0.135 A 
HETATM   18  C   UNL     1      39.132 -11.237  -4.071  1.00  0.00     0.109 A 
HETATM   19  N   UNL     1      39.495 -12.540  -3.876  1.00  0.00    -0.352 N 
HETATM   20  H   UNL     1      40.418 -12.931  -4.001  1.00  0.00     0.166 HD
ENDBRANCH  14  15
ENDBRANCH  10  14
ENDBRANCH   3   8
BRANCH   5  21
HETATM   21  N   UNL     1      40.640 -16.388   3.402  1.00  0.00    -0.323 N 
HETATM   22  C   UNL     1      41.280 -17.399   4.067  1.00  0.00     0.256 C 
HETATM   23  O   UNL     1      40.848 -17.728   5.176  1.00  0.00    -0.267 OA
HETATM   24  H   UNL     1      39.813 -16.130   3.930  1.00  0.00     0.169 HD
BRANCH  22  25
HETATM   25  C   UNL     1      42.428 -18.151   3.541  1.00  0.00     0.032 A 
HETATM   26  C   UNL     1      42.421 -18.676   2.246  1.00  0.00     0.017 A 
HETATM   27  C   UNL     1      43.466 -19.508   1.838  1.00  0.00     0.001 A 
HETATM   28  C   UNL     1      44.502 -19.827   2.716  1.00  0.00     0.000 A 
HETATM   29  C   UNL     1      44.494 -19.324   4.016  1.00  0.00     0.001 A 
HETATM   30  C   UNL     1      43.454 -18.494   4.432  1.00  0.00     0.017 A 
ENDBRANCH  22  25
ENDBRANCH   5  21
TORSDOF 5
ENDMDL
MODEL 9
REMARK VINA RESULT:      -8.1      3.561      6.369
REMARK  5 active torsions:
REMARK  status: ('A' for Active; 'I' for Inactive)
REMARK    1  A    between atoms: C_3  and  N_4 
REMARK       I    between atoms: N_4  and  C_5 
REMARK       I    between atoms: C_5  and  N_6 
REMARK    2  A    between atoms: N_6  and  C_7 
REMARK    3  A    between atoms: C_7  and  C_8 
REMARK    4  A    between atoms: C_16  and  N_17 
REMARK       I    between atoms: N_17  and  C_18 
REMARK    5  A    between atoms: C_18  and  C_19 
ROOT
HETATM    1  C   UNL     1      42.828 -10.956  12.889  1.00  0.00     0.050 C 
HETATM    2  C   UNL     1      43.544 -11.364  11.628  1.00  0.00    -0.035 A 
HETATM    3  C   UNL     1      43.174 -10.878  10.361  1.00  0.00     0.044 A 
HETATM    4  C   UNL     1      43.885 -11.280   9.210  1.00  0.00     0.059 A 
HETATM    5  C   UNL     1      44.935 -12.193   9.305  1.00  0.00     0.037 A 
HETATM    6  C   UNL     1      45.259 -12.708  10.569  1.00  0.00     0.030 A 
HETATM    7  C   UNL     1      44.580 -12.296  11.716  1.00  0.00     0.011 A 
ENDROOT
BRANCH   3   8
HETATM    8  N   UNL     1      42.132  -9.935  10.286  1.00  0.00    -0.308 N 
HETATM    9  C   UNL     1      40.962  -9.957   9.591  1.00  0.00     0.321 C 
HETATM   10  N   UNL     1      40.580 -11.144   9.054  1.00  0.00    -0.336 N 
HETATM   11  O   UNL     1      40.246  -8.957   9.572  1.00  0.00    -0.247 OA
HETATM   12  H   UNL     1      41.037 -11.982   9.391  1.00  0.00     0.164 HD
HETATM   13  H   UNL     1      42.156  -9.158  10.933  1.00  0.00     0.170 HD
BRANCH  10  14
HETATM   14  C   UNL     1      39.222 -11.327   8.604  1.00  0.00     0.202 C 
BRANCH  14  15
HETATM   15  C   UNL     1      39.242 -11.854   7.209  1.00  0.00     0.121 A 
HETATM   16  N   UNL     1      39.038 -11.177   6.092  1.00  0.00    -0.244 NA
HETATM   17  C   UNL     1      39.156 -12.091   5.078  1.00  0.00     0.135 A 
HETATM   18  C   UNL     1      39.449 -13.336   5.577  1.00  0.00     0.109 A 
HETATM   19  N   UNL     1      39.509 -13.173   6.933  1.00  0.00    -0.352 N 
HETATM   20  H   UNL     1      39.717 -13.890   7.615  1.00  0.00     0.166 HD
ENDBRANCH  14  15
ENDBRANCH  10  14
ENDBRANCH   3   8
BRANCH   5  21
HETATM   21  N   UNL     1      45.779 -12.614   8.261  1.00  0.00    -0.323 N 
HETATM   22  C   UNL     1      45.632 -13.335   7.106  1.00  0.00     0.256 C 
HETATM   23  O   UNL     1      46.536 -13.277   6.268  1.00  0.00    -0.267 OA
HETATM   24  H   UNL     1      46.707 -12.205   8.267  1.00  0.00     0.169 HD
BRANCH  22  25
HETATM   25  C   UNL     1      44.486 -14.204   6.804  1.00  0.00     0.032 A 
HETATM   26  C   UNL     1      44.317 -15.433   7.445  1.00  0.00     0.017 A 
HETATM   27  C   UNL     1      43.301 -16.293   7.024  1.00  0.00     0.001 A 
HETATM   28  C   UNL     1      42.468 -15.939   5.963  1.00  0.00     0.000 A 
HETATM   29  C   UNL     1      42.653 -14.724   5.306  1.00  0.00     0.001 A 
HETATM   30  C   UNL     1      43.667 -13.861   5.719  1.00  0.00     0.017 A 
ENDBRANCH  22  25
ENDBRANCH   5  21
TORSDOF 5
ENDMDL
MODEL 10
REMARK VINA RESULT:      -8.1      4.296      6.462
REMARK  5 active torsions:
REMARK  status: ('A' for Active; 'I' for Inactive)
REMARK    1  A    between atoms: C_3  and  N_4 
REMARK       I    between atoms: N_4  and  C_5 
REMARK       I    between atoms: C_5  and  N_6 
REMARK    2  A    between atoms: N_6  and  C_7 
REMARK    3  A    between atoms: C_7  and  C_8 
REMARK    4  A    between atoms: C_16  and  N_17 
REMARK       I    between atoms: N_17  and  C_18 
REMARK    5  A    between atoms: C_18  and  C_19 
ROOT
HETATM    1  C   UNL     1      42.122 -12.918   4.476  1.00  0.00     0.050 C 
HETATM    2  C   UNL     1      42.251 -14.210   5.238  1.00  0.00    -0.035 A 
HETATM    3  C   UNL     1      41.279 -15.225   5.170  1.00  0.00     0.044 A 
HETATM    4  C   UNL     1      41.453 -16.425   5.893  1.00  0.00     0.059 A 
HETATM    5  C   UNL     1      42.564 -16.606   6.715  1.00  0.00     0.037 A 
HETATM    6  C   UNL     1      43.498 -15.564   6.813  1.00  0.00     0.030 A 
HETATM    7  C   UNL     1      43.350 -14.386   6.081  1.00  0.00     0.011 A 
ENDROOT
BRANCH   3   8
HETATM    8  N   UNL     1      40.179 -15.039   4.312  1.00  0.00    -0.308 N 
HETATM    9  C   UNL     1      40.071 -15.185   2.963  1.00  0.00     0.321 C 
HETATM   10  N   UNL     1      41.080 -15.831   2.324  1.00  0.00    -0.336 N 
HETATM   11  O   UNL     1      39.034 -14.844   2.395  1.00  0.00    -0.247 OA
HETATM   12  H   UNL     1      41.724 -16.371   2.887  1.00  0.00     0.164 HD
HETATM   13  H   UNL     1      39.273 -14.896   4.736  1.00  0.00     0.170 HD
BRANCH  10  14
HETATM   14  C   UNL     1      40.888 -16.315   0.979  1.00  0.00     0.202 C 
BRANCH  14  15
HETATM   15  C   UNL     1      40.878 -15.153   0.044  1.00  0.00     0.121 A 
HETATM   16  N   UNL     1      41.889 -14.358  -0.260  1.00  0.00    -0.244 NA
HETATM   17  C   UNL     1      41.389 -13.446  -1.151  1.00  0.00     0.135 A 
HETATM   18  C   UNL     1      40.063 -13.693  -1.408  1.00  0.00     0.109 A 
HETATM   19  N   UNL     1      39.749 -14.785  -0.648  1.00  0.00    -0.352 N 
HETATM   20  H   UNL     1      38.851 -15.247  -0.604  1.00  0.00     0.166 HD
ENDBRANCH  14  15
ENDBRANCH  10  14
ENDBRANCH   3   8
BRANCH   5  21
HETATM   21  N   UNL     1      42.906 -17.774   7.421  1.00  0.00    -0.323 N 
HETATM   22  C   UNL     1      43.571 -18.937   7.135  1.00  0.00     0.256 C 
HETATM   23  O   UNL     1      43.941 -19.640   8.080  1.00  0.00    -0.267 OA
HETATM   24  H   UNL     1      42.744 -17.735   8.421  1.00  0.00     0.169 HD
BRANCH  22  25
HETATM   25  C   UNL     1      43.845 -19.431   5.778  1.00  0.00     0.032 A 
HETATM   26  C   UNL     1      44.438 -20.678   5.565  1.00  0.00     0.017 A 
HETATM   27  C   UNL     1      44.817 -21.046   4.272  1.00  0.00     0.001 A 
HETATM   28  C   UNL     1      44.622 -20.172   3.202  1.00  0.00     0.000 A 
HETATM   29  C   UNL     1      44.054 -18.918   3.420  1.00  0.00     0.001 A 
HETATM   30  C   UNL     1      43.675 -18.543   4.708  1.00  0.00     0.017 A 
ENDBRANCH  22  25
ENDBRANCH   5  21
TORSDOF 5
ENDMDL
