MODEL 1
REMARK VINA RESULT:      -8.9      0.000      0.000
REMARK  5 active torsions:
REMARK  status: ('A' for Active; 'I' for Inactive)
REMARK    1  A    between atoms: C_5  and  C_6 
REMARK    2  A    between atoms: C_6  and  N_7 
REMARK    3  A    between atoms: C_9  and  C_10 
REMARK       I    between atoms: C_10  and  N_11 
REMARK    4  A    between atoms: N_11  and  C_12 
REMARK    5  A    between atoms: C_12  and  O_13 
ROOT
HETATM    1  N   UNL     1      43.709 -16.383   5.938  1.00  0.00    -0.361 N 
HETATM    2  C   UNL     1      44.480 -15.531   6.658  1.00  0.00     0.107 A 
HETATM    3  C   UNL     1      44.122 -14.190   6.805  1.00  0.00     0.047 A 
HETATM    4  C   UNL     1      42.966 -13.728   6.177  1.00  0.00     0.020 A 
HETATM    5  C   UNL     1      42.189 -14.618   5.439  1.00  0.00     0.018 A 
HETATM    6  C   UNL     1      42.574 -15.952   5.340  1.00  0.00     0.090 A 
ENDROOT
BRANCH   1   7
HETATM    7  C   UNL     1      44.090 -17.817   5.854  1.00  0.00     0.167 C 
BRANCH   7   8
HETATM    8  C   UNL     1      44.054 -18.402   4.459  1.00  0.00    -0.029 A 
HETATM    9  C   UNL     1      44.275 -19.805   4.289  1.00  0.00    -0.018 A 
HETATM   10  C   UNL     1      44.220 -20.356   2.983  1.00  0.00    -0.025 A 
HETATM   11  C   UNL     1      44.554 -20.698   5.354  1.00  0.00     0.013 A 
HETATM   12  C   UNL     1      44.435 -21.729   2.782  1.00  0.00     0.012 A 
HETATM   13  C   UNL     1      43.952 -19.530   1.885  1.00  0.00     0.012 A 
HETATM   14  C   UNL     1      44.710 -22.577   3.851  1.00  0.00     0.001 A 
HETATM   15  C   UNL     1      44.770 -22.062   5.137  1.00  0.00     0.001 A 
HETATM   16  C   UNL     1      43.746 -18.167   2.053  1.00  0.00     0.002 A 
HETATM   17  C   UNL     1      43.799 -17.604   3.326  1.00  0.00     0.010 A 
ENDBRANCH   7   8
ENDBRANCH   1   7
BRANCH   3  18
HETATM   18  C   UNL     1      45.021 -13.348   7.630  1.00  0.00     0.254 C 
HETATM   19  N   UNL     1      44.542 -12.855   8.812  1.00  0.00    -0.336 N 
HETATM   20  H   UNL     1      43.639 -13.075   9.200  1.00  0.00     0.164 HD
HETATM   21  O   UNL     1      46.163 -13.155   7.227  1.00  0.00    -0.268 OA
BRANCH  19  22
HETATM   22  C   UNL     1      45.364 -12.076   9.676  1.00  0.00     0.290 C 
BRANCH  22  23
HETATM   23  O   UNL     1      45.702 -10.946   8.910  1.00  0.00    -0.382 OA
HETATM   24  H   UNL     1      46.151 -11.280   8.114  1.00  0.00     0.211 HD
ENDBRANCH  22  23
ENDBRANCH  19  22
ENDBRANCH   3  18
TORSDOF 5
ENDMDL
MODEL 2
REMARK VINA RESULT:      -8.9      4.508      6.494
REMARK  5 active torsions:
REMARK  status: ('A' for Active; 'I' for Inactive)
REMARK    1  A    between atoms: C_5  and  C_6 
REMARK    2  A    between atoms: C_6  and  N_7 
REMARK    3  A    between atoms: C_9  and  C_10 
REMARK       I    between atoms: C_10  and  N_11 
REMARK    4  A    between atoms: N_11  and  C_12 
REMARK    5  A    between atoms: C_12  and  O_13 
ROOT
HETATM    1  N   UNL     1      42.686 -17.207   1.986  1.00  0.00    -0.361 N 
HETATM    2  C   UNL     1      42.486 -16.555   0.814  1.00  0.00     0.107 A 
HETATM    3  C   UNL     1      41.287 -15.885   0.562  1.00  0.00     0.047 A 
HETATM    4  C   UNL     1      40.282 -15.916   1.528  1.00  0.00     0.020 A 
HETATM    5  C   UNL     1      40.506 -16.594   2.724  1.00  0.00     0.018 A 
HETATM    6  C   UNL     1      41.726 -17.228   2.940  1.00  0.00     0.090 A 
ENDROOT
BRANCH   1   7
HETATM    7  C   UNL     1      43.997 -17.858   2.243  1.00  0.00     0.167 C 
BRANCH   7   8
HETATM    8  C   UNL     1      44.134 -18.491   3.610  1.00  0.00    -0.029 A 
HETATM    9  C   UNL     1      44.311 -19.908   3.704  1.00  0.00    -0.018 A 
HETATM   10  C   UNL     1      44.461 -20.497   4.986  1.00  0.00    -0.025 A 
HETATM   11  C   UNL     1      44.345 -20.779   2.586  1.00  0.00     0.013 A 
HETATM   12  C   UNL     1      44.635 -21.885   5.113  1.00  0.00     0.012 A 
HETATM   13  C   UNL     1      44.435 -19.696   6.133  1.00  0.00     0.012 A 
HETATM   14  C   UNL     1      44.660 -22.711   3.993  1.00  0.00     0.001 A 
HETATM   15  C   UNL     1      44.514 -22.159   2.730  1.00  0.00     0.001 A 
HETATM   16  C   UNL     1      44.254 -18.322   6.038  1.00  0.00     0.002 A 
HETATM   17  C   UNL     1      44.102 -17.723   4.790  1.00  0.00     0.010 A 
ENDBRANCH   7   8
ENDBRANCH   1   7
BRANCH   3  18
HETATM   18  C   UNL     1      41.178 -15.185  -0.740  1.00  0.00     0.254 C 
HETATM   19  N   UNL     1      41.005 -15.940  -1.867  1.00  0.00    -0.336 N 
HETATM   20  H   UNL     1      40.879 -16.939  -1.874  1.00  0.00     0.164 HD
HETATM   21  O   UNL     1      41.222 -13.960  -0.744  1.00  0.00    -0.268 OA
BRANCH  19  22
HETATM   22  C   UNL     1      40.849 -15.332  -3.146  1.00  0.00     0.290 C 
BRANCH  22  23
HETATM   23  O   UNL     1      42.153 -14.965  -3.520  1.00  0.00    -0.382 OA
HETATM   24  H   UNL     1      42.128 -14.807  -4.479  1.00  0.00     0.211 HD
ENDBRANCH  22  23
ENDBRANCH  19  22
ENDBRANCH   3  18
TORSDOF 5
ENDMDL
MODEL 3
REMARK VINA RESULT:      -8.7      4.642      6.581
REMARK  5 active torsions:
REMARK  status: ('A' for Active; 'I' for Inactive)
REMARK    1  A    between atoms: C_5  and  C_6 
REMARK    2  A    between atoms: C_6  and  N_7 
REMARK    3  A    between atoms: C_9  and  C_10 
REMARK       I    between atoms: C_10  and  N_11 
REMARK    4  A    between atoms: N_11  and  C_12 
REMARK    5  A    between atoms: C_12  and  O_13 
ROOT
HETATM    1  N   UNL     1      41.497 -15.635   2.528  1.00  0.00    -0.361 N 
HETATM    2  C   UNL     1      41.305 -15.526   1.190  1.00  0.00     0.107 A 
HETATM    3  C   UNL     1      41.622 -14.347   0.513  1.00  0.00     0.047 A 
HETATM    4  C   UNL     1      42.119 -13.266   1.239  1.00  0.00     0.020 A 
HETATM    5  C   UNL     1      42.307 -13.396   2.614  1.00  0.00     0.018 A 
HETATM    6  C   UNL     1      41.999 -14.599   3.241  1.00  0.00     0.090 A 
ENDROOT
BRANCH   1   7
HETATM    7  C   UNL     1      41.205 -16.925   3.204  1.00  0.00     0.167 C 
BRANCH   7   8
HETATM    8  C   UNL     1      42.338 -17.928   3.174  1.00  0.00    -0.029 A 
HETATM    9  C   UNL     1      43.210 -18.025   4.304  1.00  0.00    -0.018 A 
HETATM   10  C   UNL     1      44.258 -18.981   4.283  1.00  0.00    -0.025 A 
HETATM   11  C   UNL     1      43.098 -17.216   5.463  1.00  0.00     0.013 A 
HETATM   12  C   UNL     1      45.132 -19.099   5.375  1.00  0.00     0.012 A 
HETATM   13  C   UNL     1      44.427 -19.811   3.169  1.00  0.00     0.012 A 
HETATM   14  C   UNL     1      44.995 -18.286   6.496  1.00  0.00     0.001 A 
HETATM   15  C   UNL     1      43.980 -17.343   6.540  1.00  0.00     0.001 A 
HETATM   16  C   UNL     1      43.584 -19.707   2.070  1.00  0.00     0.002 A 
HETATM   17  C   UNL     1      42.550 -18.774   2.068  1.00  0.00     0.010 A 
ENDBRANCH   7   8
ENDBRANCH   1   7
BRANCH   3  18
HETATM   18  C   UNL     1      41.394 -14.340  -0.952  1.00  0.00     0.254 C 
HETATM   19  N   UNL     1      41.280 -15.541  -1.594  1.00  0.00    -0.336 N 
HETATM   20  H   UNL     1      41.273 -16.438  -1.136  1.00  0.00     0.164 HD
HETATM   21  O   UNL     1      41.293 -13.256  -1.516  1.00  0.00    -0.268 OA
BRANCH  19  22
HETATM   22  C   UNL     1      41.017 -15.609  -2.993  1.00  0.00     0.290 C 
BRANCH  22  23
HETATM   23  O   UNL     1      42.193 -15.126  -3.593  1.00  0.00    -0.382 OA
HETATM   24  H   UNL     1      42.469 -15.801  -4.236  1.00  0.00     0.211 HD
ENDBRANCH  22  23
ENDBRANCH  19  22
ENDBRANCH   3  18
TORSDOF 5
ENDMDL
MODEL 4
REMARK VINA RESULT:      -8.6      4.562      6.445
REMARK  5 active torsions:
REMARK  status: ('A' for Active; 'I' for Inactive)
REMARK    1  A    between atoms: C_5  and  C_6 
REMARK    2  A    between atoms: C_6  and  N_7 
REMARK    3  A    between atoms: C_9  and  C_10 
REMARK       I    between atoms: C_10  and  N_11 
REMARK    4  A    between atoms: N_11  and  C_12 
REMARK    5  A    between atoms: C_12  and  O_13 
ROOT
HETATM    1  N   UNL     1      41.576 -15.763   2.675  1.00  0.00    -0.361 N 
HETATM    2  C   UNL     1      41.320 -15.642   1.349  1.00  0.00     0.107 A 
HETATM    3  C   UNL     1      41.644 -14.473   0.659  1.00  0.00     0.047 A 
HETATM    4  C   UNL     1      42.218 -13.414   1.361  1.00  0.00     0.020 A 
HETATM    5  C   UNL     1      42.472 -13.556   2.724  1.00  0.00     0.018 A 
HETATM    6  C   UNL     1      42.152 -14.750   3.364  1.00  0.00     0.090 A 
ENDROOT
BRANCH   1   7
HETATM    7  C   UNL     1      41.272 -17.045   3.362  1.00  0.00     0.167 C 
BRANCH   7   8
HETATM    8  C   UNL     1      42.427 -17.638   4.139  1.00  0.00    -0.029 A 
HETATM    9  C   UNL     1      43.152 -18.735   3.575  1.00  0.00    -0.018 A 
HETATM   10  C   UNL     1      44.249 -19.276   4.294  1.00  0.00    -0.025 A 
HETATM   11  C   UNL     1      42.843 -19.331   2.326  1.00  0.00     0.013 A 
HETATM   12  C   UNL     1      44.979 -20.354   3.770  1.00  0.00     0.012 A 
HETATM   13  C   UNL     1      44.607 -18.737   5.535  1.00  0.00     0.012 A 
HETATM   14  C   UNL     1      44.646 -20.917   2.542  1.00  0.00     0.001 A 
HETATM   15  C   UNL     1      43.578 -20.407   1.820  1.00  0.00     0.001 A 
HETATM   16  C   UNL     1      43.895 -17.677   6.083  1.00  0.00     0.002 A 
HETATM   17  C   UNL     1      42.814 -17.133   5.396  1.00  0.00     0.010 A 
ENDBRANCH   7   8
ENDBRANCH   1   7
BRANCH   3  18
HETATM   18  C   UNL     1      41.342 -14.451  -0.792  1.00  0.00     0.254 C 
HETATM   19  N   UNL     1      41.345 -15.638  -1.471  1.00  0.00    -0.336 N 
HETATM   20  H   UNL     1      41.474 -16.542  -1.045  1.00  0.00     0.164 HD
HETATM   21  O   UNL     1      41.077 -13.373  -1.311  1.00  0.00    -0.268 OA
BRANCH  19  22
HETATM   22  C   UNL     1      41.021 -15.697  -2.857  1.00  0.00     0.290 C 
BRANCH  22  23
HETATM   23  O   UNL     1      42.111 -15.083  -3.497  1.00  0.00    -0.382 OA
HETATM   24  H   UNL     1      41.738 -14.383  -4.061  1.00  0.00     0.211 HD
ENDBRANCH  22  23
ENDBRANCH  19  22
ENDBRANCH   3  18
TORSDOF 5
ENDMDL
MODEL 5
REMARK VINA RESULT:      -8.5      3.973      5.142
REMARK  5 active torsions:
REMARK  status: ('A' for Active; 'I' for Inactive)
REMARK    1  A    between atoms: C_5  and  C_6 
REMARK    2  A    between atoms: C_6  and  N_7 
REMARK    3  A    between atoms: C_9  and  C_10 
REMARK       I    between atoms: C_10  and  N_11 
REMARK    4  A    between atoms: N_11  and  C_12 
REMARK    5  A    between atoms: C_12  and  O_13 
ROOT
HETATM    1  N   UNL     1      42.335 -17.028   1.658  1.00  0.00    -0.361 N 
HETATM    2  C   UNL     1      42.608 -15.709   1.507  1.00  0.00     0.107 A 
HETATM    3  C   UNL     1      41.590 -14.755   1.560  1.00  0.00     0.047 A 
HETATM    4  C   UNL     1      40.276 -15.182   1.747  1.00  0.00     0.020 A 
HETATM    5  C   UNL     1      40.015 -16.542   1.897  1.00  0.00     0.018 A 
HETATM    6  C   UNL     1      41.066 -17.454   1.860  1.00  0.00     0.090 A 
ENDROOT
BRANCH   1   7
HETATM    7  C   UNL     1      43.452 -18.008   1.656  1.00  0.00     0.167 C 
BRANCH   7   8
HETATM    8  C   UNL     1      43.840 -18.530   3.022  1.00  0.00    -0.029 A 
HETATM    9  C   UNL     1      44.138 -19.921   3.175  1.00  0.00    -0.018 A 
HETATM   10  C   UNL     1      44.523 -20.405   4.452  1.00  0.00    -0.025 A 
HETATM   11  C   UNL     1      44.070 -20.867   2.121  1.00  0.00     0.013 A 
HETATM   12  C   UNL     1      44.819 -21.765   4.637  1.00  0.00     0.012 A 
HETATM   13  C   UNL     1      44.608 -19.525   5.538  1.00  0.00     0.012 A 
HETATM   14  C   UNL     1      44.739 -22.666   3.579  1.00  0.00     0.001 A 
HETATM   15  C   UNL     1      44.363 -22.219   2.322  1.00  0.00     0.001 A 
HETATM   16  C   UNL     1      44.310 -18.177   5.387  1.00  0.00     0.002 A 
HETATM   17  C   UNL     1      43.927 -17.681   4.143  1.00  0.00     0.010 A 
ENDBRANCH   7   8
ENDBRANCH   1   7
BRANCH   3  18
HETATM   18  C   UNL     1      41.998 -13.338   1.405  1.00  0.00     0.254 C 
HETATM   19  N   UNL     1      41.436 -12.610   0.394  1.00  0.00    -0.336 N 
HETATM   20  H   UNL     1      40.711 -12.946  -0.220  1.00  0.00     0.164 HD
HETATM   21  O   UNL     1      42.801 -12.877   2.208  1.00  0.00    -0.268 OA
BRANCH  19  22
HETATM   22  C   UNL     1      41.748 -11.232   0.213  1.00  0.00     0.290 C 
BRANCH  22  23
HETATM   23  O   UNL     1      43.095 -11.230  -0.191  1.00  0.00    -0.382 OA
HETATM   24  H   UNL     1      43.147 -10.644  -0.966  1.00  0.00     0.211 HD
ENDBRANCH  22  23
ENDBRANCH  19  22
ENDBRANCH   3  18
TORSDOF 5
ENDMDL
MODEL 6
REMARK VINA RESULT:      -8.4      3.278      4.027
REMARK  5 active torsions:
REMARK  status: ('A' for Active; 'I' for Inactive)
REMARK    1  A    between atoms: C_5  and  C_6 
REMARK    2  A    between atoms: C_6  and  N_7 
REMARK    3  A    between atoms: C_9  and  C_10 
REMARK       I    between atoms: C_10  and  N_11 
REMARK    4  A    between atoms: N_11  and  C_12 
REMARK    5  A    between atoms: C_12  and  O_13 
ROOT
HETATM    1  N   UNL     1      41.589 -15.329   4.492  1.00  0.00    -0.361 N 
HETATM    2  C   UNL     1      40.732 -14.603   5.251  1.00  0.00     0.107 A 
HETATM    3  C   UNL     1      40.883 -13.221   5.380  1.00  0.00     0.047 A 
HETATM    4  C   UNL     1      41.947 -12.596   4.731  1.00  0.00     0.020 A 
HETATM    5  C   UNL     1      42.818 -13.360   3.957  1.00  0.00     0.018 A 
HETATM    6  C   UNL     1      42.614 -14.732   3.840  1.00  0.00     0.090 A 
ENDROOT
BRANCH   1   7
HETATM    7  C   UNL     1      41.361 -16.789   4.330  1.00  0.00     0.167 C 
BRANCH   7   8
HETATM    8  C   UNL     1      42.407 -17.669   4.979  1.00  0.00    -0.029 A 
HETATM    9  C   UNL     1      43.119 -18.612   4.171  1.00  0.00    -0.018 A 
HETATM   10  C   UNL     1      44.114 -19.421   4.776  1.00  0.00    -0.025 A 
HETATM   11  C   UNL     1      42.892 -18.798   2.784  1.00  0.00     0.013 A 
HETATM   12  C   UNL     1      44.829 -20.358   4.012  1.00  0.00     0.012 A 
HETATM   13  C   UNL     1      44.388 -19.291   6.142  1.00  0.00     0.012 A 
HETATM   14  C   UNL     1      44.578 -20.516   2.652  1.00  0.00     0.001 A 
HETATM   15  C   UNL     1      43.609 -19.738   2.038  1.00  0.00     0.001 A 
HETATM   16  C   UNL     1      43.689 -18.381   6.925  1.00  0.00     0.002 A 
HETATM   17  C   UNL     1      42.706 -17.579   6.353  1.00  0.00     0.010 A 
ENDBRANCH   7   8
ENDBRANCH   1   7
BRANCH   3  18
HETATM   18  C   UNL     1      39.881 -12.518   6.216  1.00  0.00     0.254 C 
HETATM   19  N   UNL     1      40.256 -12.104   7.464  1.00  0.00    -0.336 N 
HETATM   20  H   UNL     1      41.188 -12.182   7.838  1.00  0.00     0.164 HD
HETATM   21  O   UNL     1      38.769 -12.317   5.740  1.00  0.00    -0.268 OA
BRANCH  19  22
HETATM   22  C   UNL     1      39.358 -11.385   8.305  1.00  0.00     0.290 C 
BRANCH  22  23
HETATM   23  O   UNL     1      38.904 -12.341   9.229  1.00  0.00    -0.382 OA
HETATM   24  H   UNL     1      39.699 -12.760   9.602  1.00  0.00     0.211 HD
ENDBRANCH  22  23
ENDBRANCH  19  22
ENDBRANCH   3  18
TORSDOF 5
ENDMDL
MODEL 7
REMARK VINA RESULT:      -8.3      1.384      2.593
REMARK  5 active torsions:
REMARK  status: ('A' for Active; 'I' for Inactive)
REMARK    1  A    between atoms: C_5  and  C_6 
REMARK    2  A    between atoms: C_6  and  N_7 
REMARK    3  A    between atoms: C_9  and  C_10 
REMARK       I    between atoms: C_10  and  N_11 
REMARK    4  A    between atoms: N_11  and  C_12 
REMARK    5  A    between atoms: C_12  and  O_13 
ROOT
HETATM    1  N   UNL     1      41.962 -15.777   5.154  1.00  0.00    -0.361 N 
HETATM    2  C   UNL     1      42.863 -15.294   6.044  1.00  0.00     0.107 A 
HETATM    3  C   UNL     1      43.328 -13.980   5.953  1.00  0.00     0.047 A 
HETATM    4  C   UNL     1      42.869 -13.174   4.912  1.00  0.00     0.020 A 
HETATM    5  C   UNL     1      41.945 -13.690   4.006  1.00  0.00     0.018 A 
HETATM    6  C   UNL     1      41.493 -14.998   4.151  1.00  0.00     0.090 A 
ENDROOT
BRANCH   1   7
HETATM    7  C   UNL     1      41.445 -17.160   5.319  1.00  0.00     0.167 C 
BRANCH   7   8
HETATM    8  C   UNL     1      42.511 -18.230   5.408  1.00  0.00    -0.029 A 
HETATM    9  C   UNL     1      43.039 -18.787   4.201  1.00  0.00    -0.018 A 
HETATM   10  C   UNL     1      44.054 -19.774   4.286  1.00  0.00    -0.025 A 
HETATM   11  C   UNL     1      42.608 -18.417   2.902  1.00  0.00     0.013 A 
HETATM   12  C   UNL     1      44.591 -20.343   3.120  1.00  0.00     0.012 A 
HETATM   13  C   UNL     1      44.525 -20.188   5.537  1.00  0.00     0.012 A 
HETATM   14  C   UNL     1      44.142 -19.957   1.861  1.00  0.00     0.001 A 
HETATM   15  C   UNL     1      43.150 -18.995   1.751  1.00  0.00     0.001 A 
HETATM   16  C   UNL     1      44.004 -19.651   6.708  1.00  0.00     0.002 A 
HETATM   17  C   UNL     1      43.005 -18.684   6.647  1.00  0.00     0.010 A 
ENDBRANCH   7   8
ENDBRANCH   1   7
BRANCH   3  18
HETATM   18  C   UNL     1      44.295 -13.544   6.988  1.00  0.00     0.254 C 
HETATM   19  N   UNL     1      43.819 -12.854   8.068  1.00  0.00    -0.336 N 
HETATM   20  H   UNL     1      42.845 -12.674   8.249  1.00  0.00     0.164 HD
HETATM   21  O   UNL     1      45.475 -13.845   6.841  1.00  0.00    -0.268 OA
BRANCH  19  22
HETATM   22  C   UNL     1      44.685 -12.442   9.122  1.00  0.00     0.290 C 
BRANCH  22  23
HETATM   23  O   UNL     1      44.189 -13.103  10.259  1.00  0.00    -0.382 OA
HETATM   24  H   UNL     1      44.482 -14.028  10.187  1.00  0.00     0.211 HD
ENDBRANCH  22  23
ENDBRANCH  19  22
ENDBRANCH   3  18
TORSDOF 5
ENDMDL
MODEL 8
REMARK VINA RESULT:      -8.2      5.892      7.950
REMARK  5 active torsions:
REMARK  status: ('A' for Active; 'I' for Inactive)
REMARK    1  A    between atoms: C_5  and  C_6 
REMARK    2  A    between atoms: C_6  and  N_7 
REMARK    3  A    between atoms: C_9  and  C_10 
REMARK       I    between atoms: C_10  and  N_11 
REMARK    4  A    between atoms: N_11  and  C_12 
REMARK    5  A    between atoms: C_12  and  O_13 
ROOT
HETATM    1  N   UNL     1      41.633 -16.387   0.375  1.00  0.00    -0.361 N 
HETATM    2  C   UNL     1      41.068 -16.300  -0.855  1.00  0.00     0.107 A 
HETATM    3  C   UNL     1      40.903 -15.064  -1.483  1.00  0.00     0.047 A 
HETATM    4  C   UNL     1      41.306 -13.909  -0.815  1.00  0.00     0.020 A 
HETATM    5  C   UNL     1      41.883 -14.018   0.449  1.00  0.00     0.018 A 
HETATM    6  C   UNL     1      42.048 -15.275   1.025  1.00  0.00     0.090 A 
ENDROOT
BRANCH   1   7
HETATM    7  C   UNL     1      41.847 -17.724   0.986  1.00  0.00     0.167 C 
BRANCH   7   8
HETATM    8  C   UNL     1      41.951 -17.722   2.495  1.00  0.00    -0.029 A 
HETATM    9  C   UNL     1      42.935 -18.550   3.124  1.00  0.00    -0.018 A 
HETATM   10  C   UNL     1      43.045 -18.531   4.539  1.00  0.00    -0.025 A 
HETATM   11  C   UNL     1      43.819 -19.405   2.420  1.00  0.00     0.013 A 
HETATM   12  C   UNL     1      43.998 -19.333   5.187  1.00  0.00     0.012 A 
HETATM   13  C   UNL     1      42.201 -17.711   5.296  1.00  0.00     0.012 A 
HETATM   14  C   UNL     1      44.849 -20.163   4.463  1.00  0.00     0.001 A 
HETATM   15  C   UNL     1      44.760 -20.200   3.080  1.00  0.00     0.001 A 
HETATM   16  C   UNL     1      41.242 -16.916   4.682  1.00  0.00     0.002 A 
HETATM   17  C   UNL     1      41.113 -16.921   3.296  1.00  0.00     0.010 A 
ENDBRANCH   7   8
ENDBRANCH   1   7
BRANCH   3  18
HETATM   18  C   UNL     1      40.294 -15.082  -2.835  1.00  0.00     0.254 C 
HETATM   19  N   UNL     1      39.009 -15.532  -2.960  1.00  0.00    -0.336 N 
HETATM   20  H   UNL     1      38.416 -15.794  -2.189  1.00  0.00     0.164 HD
HETATM   21  O   UNL     1      40.963 -14.668  -3.776  1.00  0.00    -0.268 OA
BRANCH  19  22
HETATM   22  C   UNL     1      38.347 -15.536  -4.221  1.00  0.00     0.290 C 
BRANCH  22  23
HETATM   23  O   UNL     1      39.027 -16.513  -4.970  1.00  0.00    -0.382 OA
HETATM   24  H   UNL     1      38.678 -17.373  -4.677  1.00  0.00     0.211 HD
ENDBRANCH  22  23
ENDBRANCH  19  22
ENDBRANCH   3  18
TORSDOF 5
ENDMDL
MODEL 9
REMARK VINA RESULT:      -7.9      3.193      3.736
REMARK  5 active torsions:
REMARK  status: ('A' for Active; 'I' for Inactive)
REMARK    1  A    between atoms: C_5  and  C_6 
REMARK    2  A    between atoms: C_6  and  N_7 
REMARK    3  A    between atoms: C_9  and  C_10 
REMARK       I    between atoms: C_10  and  N_11 
REMARK    4  A    between atoms: N_11  and  C_12 
REMARK    5  A    between atoms: C_12  and  O_13 
ROOT
HETATM    1  N   UNL     1      41.335 -15.211   4.417  1.00  0.00    -0.361 N 
HETATM    2  C   UNL     1      40.484 -14.475   5.173  1.00  0.00     0.107 A 
HETATM    3  C   UNL     1      40.790 -13.158   5.521  1.00  0.00     0.047 A 
HETATM    4  C   UNL     1      42.002 -12.614   5.100  1.00  0.00     0.020 A 
HETATM    5  C   UNL     1      42.865 -13.387   4.325  1.00  0.00     0.018 A 
HETATM    6  C   UNL     1      42.506 -14.688   3.984  1.00  0.00     0.090 A 
ENDROOT
BRANCH   1   7
HETATM    7  C   UNL     1      40.948 -16.588   4.015  1.00  0.00     0.167 C 
BRANCH   7   8
HETATM    8  C   UNL     1      42.026 -17.365   3.292  1.00  0.00    -0.029 A 
HETATM    9  C   UNL     1      42.847 -18.271   4.036  1.00  0.00    -0.018 A 
HETATM   10  C   UNL     1      43.843 -19.014   3.352  1.00  0.00    -0.025 A 
HETATM   11  C   UNL     1      42.733 -18.477   5.434  1.00  0.00     0.013 A 
HETATM   12  C   UNL     1      44.667 -19.909   4.054  1.00  0.00     0.012 A 
HETATM   13  C   UNL     1      44.011 -18.857   1.972  1.00  0.00     0.012 A 
HETATM   14  C   UNL     1      44.530 -20.085   5.428  1.00  0.00     0.001 A 
HETATM   15  C   UNL     1      43.564 -19.369   6.118  1.00  0.00     0.001 A 
HETATM   16  C   UNL     1      43.217 -17.971   1.255  1.00  0.00     0.002 A 
HETATM   17  C   UNL     1      42.236 -17.228   1.905  1.00  0.00     0.010 A 
ENDBRANCH   7   8
ENDBRANCH   1   7
BRANCH   3  18
HETATM   18  C   UNL     1      39.782 -12.434   6.332  1.00  0.00     0.254 C 
HETATM   19  N   UNL     1      40.076 -12.166   7.640  1.00  0.00    -0.336 N 
HETATM   20  H   UNL     1      40.958 -12.367   8.082  1.00  0.00     0.164 HD
HETATM   21  O   UNL     1      38.742 -12.085   5.785  1.00  0.00    -0.268 OA
BRANCH  19  22
HETATM   22  C   UNL     1      39.173 -11.436   8.466  1.00  0.00     0.290 C 
BRANCH  22  23
HETATM   23  O   UNL     1      39.584 -11.730   9.778  1.00  0.00    -0.382 OA
HETATM   24  H   UNL     1      40.448 -11.297   9.896  1.00  0.00     0.211 HD
ENDBRANCH  22  23
ENDBRANCH  19  22
ENDBRANCH   3  18
TORSDOF 5
ENDMDL
MODEL 10
REMARK VINA RESULT:      -7.8      3.179      4.165
REMARK  5 active torsions:
REMARK  status: ('A' for Active; 'I' for Inactive)
REMARK    1  A    between atoms: C_5  and  C_6 
REMARK    2  A    between atoms: C_6  and  N_7 
REMARK    3  A    between atoms: C_9  and  C_10 
REMARK       I    between atoms: C_10  and  N_11 
REMARK    4  A    between atoms: N_11  and  C_12 
REMARK    5  A    between atoms: C_12  and  O_13 
ROOT
HETATM    1  N   UNL     1      42.248 -15.677   2.600  1.00  0.00    -0.361 N 
HETATM    2  C   UNL     1      42.057 -14.698   3.518  1.00  0.00     0.107 A 
HETATM    3  C   UNL     1      40.779 -14.206   3.787  1.00  0.00     0.047 A 
HETATM    4  C   UNL     1      39.696 -14.720   3.076  1.00  0.00     0.020 A 
HETATM    5  C   UNL     1      39.912 -15.725   2.135  1.00  0.00     0.018 A 
HETATM    6  C   UNL     1      41.202 -16.200   1.918  1.00  0.00     0.090 A 
ENDROOT
BRANCH   1   7
HETATM    7  C   UNL     1      43.615 -16.218   2.385  1.00  0.00     0.167 C 
BRANCH   7   8
HETATM    8  C   UNL     1      43.764 -17.697   2.666  1.00  0.00    -0.029 A 
HETATM    9  C   UNL     1      43.956 -18.132   4.015  1.00  0.00    -0.018 A 
HETATM   10  C   UNL     1      44.074 -19.521   4.279  1.00  0.00    -0.025 A 
HETATM   11  C   UNL     1      44.042 -17.255   5.126  1.00  0.00     0.013 A 
HETATM   12  C   UNL     1      44.265 -19.980   5.592  1.00  0.00     0.012 A 
HETATM   13  C   UNL     1      44.000 -20.442   3.229  1.00  0.00     0.012 A 
HETATM   14  C   UNL     1      44.348 -19.090   6.659  1.00  0.00     0.001 A 
HETATM   15  C   UNL     1      44.237 -17.728   6.427  1.00  0.00     0.001 A 
HETATM   16  C   UNL     1      43.822 -20.016   1.919  1.00  0.00     0.002 A 
HETATM   17  C   UNL     1      43.708 -18.658   1.636  1.00  0.00     0.010 A 
ENDBRANCH   7   8
ENDBRANCH   1   7
BRANCH   3  18
HETATM   18  C   UNL     1      40.677 -13.151   4.823  1.00  0.00     0.254 C 
HETATM   19  N   UNL     1      39.577 -13.147   5.636  1.00  0.00    -0.336 N 
HETATM   20  H   UNL     1      38.856 -13.850   5.628  1.00  0.00     0.164 HD
HETATM   21  O   UNL     1      41.597 -12.346   4.921  1.00  0.00    -0.268 OA
BRANCH  19  22
HETATM   22  C   UNL     1      39.434 -12.189   6.681  1.00  0.00     0.290 C 
BRANCH  22  23
HETATM   23  O   UNL     1      39.143 -12.957   7.821  1.00  0.00    -0.382 OA
HETATM   24  H   UNL     1      39.465 -12.446   8.584  1.00  0.00     0.211 HD
ENDBRANCH  22  23
ENDBRANCH  19  22
ENDBRANCH   3  18
TORSDOF 5
ENDMDL
