MODEL 1
REMARK VINA RESULT:      -8.4      0.000      0.000
REMARK  2 active torsions:
REMARK  status: ('A' for Active; 'I' for Inactive)
REMARK    1  A    between atoms: C_4  and  C_5 
REMARK    2  A    between atoms: C_10  and  C_11 
ROOT
HETATM    1  C   UNL     1      42.173 -17.576   4.963  1.00  0.00     0.202 C 
HETATM    2  N   UNL     1      43.546 -17.359   5.413  1.00  0.00    -0.331 N 
HETATM    3  C   UNL     1      43.807 -16.547   6.593  1.00  0.00     0.155 C 
HETATM    4  C   UNL     1      44.458 -18.396   5.178  1.00  0.00     0.256 C 
HETATM    5  O   UNL     1      45.488 -18.566   5.825  1.00  0.00    -0.267 OA
HETATM    6  C   UNL     1      44.158 -19.294   4.041  1.00  0.00     0.053 A 
HETATM    7  C   UNL     1      43.046 -18.995   3.251  1.00  0.00     0.026 A 
HETATM    8  N   UNL     1      42.238 -17.872   3.524  1.00  0.00    -0.266 NA
HETATM    9  C   UNL     1      44.999 -20.366   3.726  1.00  0.00     0.019 A 
HETATM   10  C   UNL     1      44.744 -21.129   2.587  1.00  0.00     0.001 A 
HETATM   11  C   UNL     1      43.665 -20.806   1.762  1.00  0.00     0.002 A 
HETATM   12  C   UNL     1      42.830 -19.733   2.085  1.00  0.00     0.024 A 
HETATM   13  H   UNL     1      42.664 -17.067   3.071  1.00  0.00     0.130 HD
ENDROOT
BRANCH   1  14
HETATM   14  C   UNL     1      41.271 -16.411   5.266  1.00  0.00     0.029 A 
HETATM   15  C   UNL     1      40.942 -15.309   4.422  1.00  0.00     0.121 A 
HETATM   16  N   UNL     1      40.119 -14.441   5.029  1.00  0.00    -0.172 NA
HETATM   17  N   UNL     1      39.931 -14.964   6.247  1.00  0.00    -0.288 N 
HETATM   18  H   UNL     1      39.340 -14.460   6.900  1.00  0.00     0.188 HD
HETATM   19  C   UNL     1      40.583 -16.142   6.440  1.00  0.00     0.122 A 
BRANCH  15  20
HETATM   20  C   UNL     1      41.393 -15.100   3.011  1.00  0.00     0.106 A 
HETATM   21  O   UNL     1      41.007 -15.865   1.945  1.00  0.00    -0.313 OA
HETATM   22  C   UNL     1      41.593 -15.348   0.831  1.00  0.00     0.050 A 
HETATM   23  C   UNL     1      41.295 -16.030  -0.444  1.00  0.00     0.076 C 
HETATM   24  C   UNL     1      42.368 -14.260   1.167  1.00  0.00     0.035 A 
HETATM   25  C   UNL     1      42.239 -14.100   2.568  1.00  0.00     0.042 A 
ENDBRANCH  15  20
ENDBRANCH   1  14
TORSDOF 2
ENDMDL
MODEL 2
REMARK VINA RESULT:      -8.2      1.932      2.299
REMARK  2 active torsions:
REMARK  status: ('A' for Active; 'I' for Inactive)
REMARK    1  A    between atoms: C_4  and  C_5 
REMARK    2  A    between atoms: C_10  and  C_11 
ROOT
HETATM    1  C   UNL     1      43.245 -17.406   5.849  1.00  0.00     0.202 C 
HETATM    2  N   UNL     1      43.725 -17.973   7.106  1.00  0.00    -0.331 N 
HETATM    3  C   UNL     1      43.396 -17.330   8.371  1.00  0.00     0.155 C 
HETATM    4  C   UNL     1      43.870 -19.366   7.156  1.00  0.00     0.256 C 
HETATM    5  O   UNL     1      43.851 -20.024   8.193  1.00  0.00    -0.267 OA
HETATM    6  C   UNL     1      44.108 -20.051   5.867  1.00  0.00     0.053 A 
HETATM    7  C   UNL     1      44.249 -19.258   4.724  1.00  0.00     0.026 A 
HETATM    8  N   UNL     1      44.171 -17.852   4.798  1.00  0.00    -0.266 NA
HETATM    9  C   UNL     1      44.257 -21.440   5.803  1.00  0.00     0.019 A 
HETATM   10  C   UNL     1      44.583 -22.042   4.589  1.00  0.00     0.001 A 
HETATM   11  C   UNL     1      44.778 -21.254   3.453  1.00  0.00     0.002 A 
HETATM   12  C   UNL     1      44.627 -19.867   3.525  1.00  0.00     0.024 A 
HETATM   13  H   UNL     1      45.095 -17.504   5.044  1.00  0.00     0.130 HD
ENDROOT
BRANCH   1  14
HETATM   14  C   UNL     1      43.117 -15.908   5.900  1.00  0.00     0.029 A 
HETATM   15  C   UNL     1      42.396 -15.055   5.012  1.00  0.00     0.121 A 
HETATM   16  N   UNL     1      42.518 -13.762   5.349  1.00  0.00    -0.172 NA
HETATM   17  N   UNL     1      43.313 -13.778   6.426  1.00  0.00    -0.288 N 
HETATM   18  H   UNL     1      43.557 -12.891   6.855  1.00  0.00     0.188 HD
HETATM   19  C   UNL     1      43.690 -15.028   6.805  1.00  0.00     0.122 A 
BRANCH  15  20
HETATM   20  C   UNL     1      41.558 -15.482   3.848  1.00  0.00     0.106 A 
HETATM   21  O   UNL     1      41.868 -16.504   2.995  1.00  0.00    -0.313 OA
HETATM   22  C   UNL     1      40.855 -16.612   2.093  1.00  0.00     0.050 A 
HETATM   23  C   UNL     1      40.991 -17.675   1.076  1.00  0.00     0.076 C 
HETATM   24  C   UNL     1      39.895 -15.659   2.345  1.00  0.00     0.035 A 
HETATM   25  C   UNL     1      40.347 -14.932   3.474  1.00  0.00     0.042 A 
ENDBRANCH  15  20
ENDBRANCH   1  14
TORSDOF 2
ENDMDL
MODEL 3
REMARK VINA RESULT:      -8.1      2.045      5.333
REMARK  2 active torsions:
REMARK  status: ('A' for Active; 'I' for Inactive)
REMARK    1  A    between atoms: C_4  and  C_5 
REMARK    2  A    between atoms: C_10  and  C_11 
ROOT
HETATM    1  C   UNL     1      43.398 -16.837   5.446  1.00  0.00     0.202 C 
HETATM    2  N   UNL     1      43.492 -15.384   5.566  1.00  0.00    -0.331 N 
HETATM    3  C   UNL     1      44.352 -14.789   6.580  1.00  0.00     0.155 C 
HETATM    4  C   UNL     1      43.345 -14.642   4.387  1.00  0.00     0.256 C 
HETATM    5  O   UNL     1      43.791 -13.510   4.226  1.00  0.00    -0.267 OA
HETATM    6  C   UNL     1      42.555 -15.272   3.306  1.00  0.00     0.053 A 
HETATM    7  C   UNL     1      41.957 -16.507   3.570  1.00  0.00     0.026 A 
HETATM    8  N   UNL     1      42.097 -17.131   4.827  1.00  0.00    -0.266 NA
HETATM    9  C   UNL     1      42.355 -14.621   2.084  1.00  0.00     0.019 A 
HETATM   10  C   UNL     1      41.521 -15.196   1.127  1.00  0.00     0.001 A 
HETATM   11  C   UNL     1      40.877 -16.404   1.402  1.00  0.00     0.002 A 
HETATM   12  C   UNL     1      41.082 -17.047   2.625  1.00  0.00     0.024 A 
HETATM   13  H   UNL     1      41.380 -16.752   5.442  1.00  0.00     0.130 HD
ENDROOT
BRANCH   1  14
HETATM   14  C   UNL     1      43.576 -17.541   6.764  1.00  0.00     0.029 A 
HETATM   15  C   UNL     1      43.901 -18.911   6.993  1.00  0.00     0.121 A 
HETATM   16  N   UNL     1      43.960 -19.200   8.302  1.00  0.00    -0.172 NA
HETATM   17  N   UNL     1      43.666 -18.042   8.907  1.00  0.00    -0.288 N 
HETATM   18  H   UNL     1      43.640 -18.024   9.921  1.00  0.00     0.188 HD
HETATM   19  C   UNL     1      43.440 -17.018   8.041  1.00  0.00     0.122 A 
BRANCH  15  20
HETATM   20  C   UNL     1      44.187 -19.947   5.952  1.00  0.00     0.106 A 
HETATM   21  O   UNL     1      44.287 -19.701   4.611  1.00  0.00    -0.313 OA
HETATM   22  C   UNL     1      44.588 -20.876   3.996  1.00  0.00     0.050 A 
HETATM   23  C   UNL     1      44.751 -20.827   2.529  1.00  0.00     0.076 C 
HETATM   24  C   UNL     1      44.673 -21.888   4.926  1.00  0.00     0.035 A 
HETATM   25  C   UNL     1      44.415 -21.290   6.184  1.00  0.00     0.042 A 
ENDBRANCH  15  20
ENDBRANCH   1  14
TORSDOF 2
ENDMDL
MODEL 4
REMARK VINA RESULT:      -7.9      2.273      5.741
REMARK  2 active torsions:
REMARK  status: ('A' for Active; 'I' for Inactive)
REMARK    1  A    between atoms: C_4  and  C_5 
REMARK    2  A    between atoms: C_10  and  C_11 
ROOT
HETATM    1  C   UNL     1      41.152 -15.399   3.239  1.00  0.00     0.202 C 
HETATM    2  N   UNL     1      41.890 -14.146   3.107  1.00  0.00    -0.331 N 
HETATM    3  C   UNL     1      43.211 -14.010   3.703  1.00  0.00     0.155 C 
HETATM    4  C   UNL     1      41.676 -13.408   1.936  1.00  0.00     0.256 C 
HETATM    5  O   UNL     1      42.476 -12.596   1.477  1.00  0.00    -0.267 OA
HETATM    6  C   UNL     1      40.375 -13.606   1.259  1.00  0.00     0.053 A 
HETATM    7  C   UNL     1      39.440 -14.441   1.877  1.00  0.00     0.026 A 
HETATM    8  N   UNL     1      39.725 -15.072   3.105  1.00  0.00    -0.266 NA
HETATM    9  C   UNL     1      40.064 -12.925   0.078  1.00  0.00     0.019 A 
HETATM   10  C   UNL     1      38.791 -13.055  -0.476  1.00  0.00     0.001 A 
HETATM   11  C   UNL     1      37.833 -13.846   0.162  1.00  0.00     0.002 A 
HETATM   12  C   UNL     1      38.153 -14.523   1.341  1.00  0.00     0.024 A 
HETATM   13  H   UNL     1      39.497 -14.416   3.850  1.00  0.00     0.130 HD
ENDROOT
BRANCH   1  14
HETATM   14  C   UNL     1      41.456 -16.119   4.525  1.00  0.00     0.029 A 
HETATM   15  C   UNL     1      42.242 -17.294   4.712  1.00  0.00     0.121 A 
HETATM   16  N   UNL     1      42.283 -17.671   5.999  1.00  0.00    -0.172 NA
HETATM   17  N   UNL     1      41.527 -16.763   6.630  1.00  0.00    -0.288 N 
HETATM   18  H   UNL     1      41.402 -16.856   7.633  1.00  0.00     0.188 HD
HETATM   19  C   UNL     1      41.019 -15.809   5.804  1.00  0.00     0.122 A 
BRANCH  15  20
HETATM   20  C   UNL     1      42.986 -18.048   3.656  1.00  0.00     0.106 A 
HETATM   21  O   UNL     1      43.255 -19.388   3.694  1.00  0.00    -0.313 OA
HETATM   22  C   UNL     1      43.913 -19.711   2.548  1.00  0.00     0.050 A 
HETATM   23  C   UNL     1      44.292 -21.129   2.385  1.00  0.00     0.076 C 
HETATM   24  C   UNL     1      44.085 -18.589   1.770  1.00  0.00     0.035 A 
HETATM   25  C   UNL     1      43.489 -17.519   2.482  1.00  0.00     0.042 A 
ENDBRANCH  15  20
ENDBRANCH   1  14
TORSDOF 2
ENDMDL
MODEL 5
REMARK VINA RESULT:      -7.6      2.414      5.961
REMARK  2 active torsions:
REMARK  status: ('A' for Active; 'I' for Inactive)
REMARK    1  A    between atoms: C_4  and  C_5 
REMARK    2  A    between atoms: C_10  and  C_11 
ROOT
HETATM    1  C   UNL     1      40.505 -14.433   2.764  1.00  0.00     0.202 C 
HETATM    2  N   UNL     1      41.410 -13.321   2.486  1.00  0.00    -0.331 N 
HETATM    3  C   UNL     1      42.609 -13.136   3.293  1.00  0.00     0.155 C 
HETATM    4  C   UNL     1      41.510 -12.906   1.152  1.00  0.00     0.256 C 
HETATM    5  O   UNL     1      42.478 -12.311   0.686  1.00  0.00    -0.267 OA
HETATM    6  C   UNL     1      40.339 -13.174   0.289  1.00  0.00     0.053 A 
HETATM    7  C   UNL     1      39.207 -13.739   0.883  1.00  0.00     0.026 A 
HETATM    8  N   UNL     1      39.181 -14.041   2.260  1.00  0.00    -0.266 NA
HETATM    9  C   UNL     1      40.337 -12.809  -1.061  1.00  0.00     0.019 A 
HETATM   10  C   UNL     1      39.180 -12.981  -1.819  1.00  0.00     0.001 A 
HETATM   11  C   UNL     1      38.028 -13.497  -1.222  1.00  0.00     0.002 A 
HETATM   12  C   UNL     1      38.038 -13.858   0.127  1.00  0.00     0.024 A 
HETATM   13  H   UNL     1      38.909 -13.195   2.757  1.00  0.00     0.130 HD
ENDROOT
BRANCH   1  14
HETATM   14  C   UNL     1      40.474 -14.807   4.221  1.00  0.00     0.029 A 
HETATM   15  C   UNL     1      41.116 -15.907   4.862  1.00  0.00     0.121 A 
HETATM   16  N   UNL     1      40.855 -15.945   6.177  1.00  0.00    -0.172 NA
HETATM   17  N   UNL     1      40.048 -14.896   6.380  1.00  0.00    -0.288 N 
HETATM   18  H   UNL     1      39.705 -14.729   7.321  1.00  0.00     0.188 HD
HETATM   19  C   UNL     1      39.797 -14.176   5.254  1.00  0.00     0.122 A 
BRANCH  15  20
HETATM   20  C   UNL     1      42.013 -16.916   4.216  1.00  0.00     0.106 A 
HETATM   21  O   UNL     1      42.671 -16.733   3.032  1.00  0.00    -0.313 OA
HETATM   22  C   UNL     1      43.411 -17.850   2.792  1.00  0.00     0.050 A 
HETATM   23  C   UNL     1      44.213 -17.853   1.552  1.00  0.00     0.076 C 
HETATM   24  C   UNL     1      43.229 -18.763   3.806  1.00  0.00     0.035 A 
HETATM   25  C   UNL     1      42.330 -18.163   4.722  1.00  0.00     0.042 A 
ENDBRANCH  15  20
ENDBRANCH   1  14
TORSDOF 2
ENDMDL
MODEL 6
REMARK VINA RESULT:      -7.6      2.305      5.855
REMARK  2 active torsions:
REMARK  status: ('A' for Active; 'I' for Inactive)
REMARK    1  A    between atoms: C_4  and  C_5 
REMARK    2  A    between atoms: C_10  and  C_11 
ROOT
HETATM    1  C   UNL     1      41.570 -15.020   1.647  1.00  0.00     0.202 C 
HETATM    2  N   UNL     1      41.678 -13.564   1.593  1.00  0.00    -0.331 N 
HETATM    3  C   UNL     1      42.072 -12.816   2.778  1.00  0.00     0.155 C 
HETATM    4  C   UNL     1      42.067 -13.005   0.368  1.00  0.00     0.256 C 
HETATM    5  O   UNL     1      42.596 -11.903   0.251  1.00  0.00    -0.267 OA
HETATM    6  C   UNL     1      41.763 -13.797  -0.844  1.00  0.00     0.053 A 
HETATM    7  C   UNL     1      41.048 -14.987  -0.683  1.00  0.00     0.026 A 
HETATM    8  N   UNL     1      40.627 -15.418   0.592  1.00  0.00    -0.266 NA
HETATM    9  C   UNL     1      42.117 -13.335  -2.116  1.00  0.00     0.019 A 
HETATM   10  C   UNL     1      41.724 -14.055  -3.243  1.00  0.00     0.001 A 
HETATM   11  C   UNL     1      40.965 -15.218  -3.095  1.00  0.00     0.002 A 
HETATM   12  C   UNL     1      40.616 -15.672  -1.821  1.00  0.00     0.024 A 
HETATM   13  H   UNL     1      39.740 -14.962   0.794  1.00  0.00     0.130 HD
ENDROOT
BRANCH   1  14
HETATM   14  C   UNL     1      41.153 -15.520   3.004  1.00  0.00     0.029 A 
HETATM   15  C   UNL     1      41.517 -16.744   3.640  1.00  0.00     0.121 A 
HETATM   16  N   UNL     1      40.943 -16.872   4.846  1.00  0.00    -0.172 NA
HETATM   17  N   UNL     1      40.212 -15.759   4.980  1.00  0.00    -0.288 N 
HETATM   18  H   UNL     1      39.669 -15.641   5.830  1.00  0.00     0.188 HD
HETATM   19  C   UNL     1      40.308 -14.913   3.920  1.00  0.00     0.122 A 
BRANCH  15  20
HETATM   20  C   UNL     1      42.446 -17.787   3.105  1.00  0.00     0.106 A 
HETATM   21  O   UNL     1      43.270 -18.566   3.868  1.00  0.00    -0.313 OA
HETATM   22  C   UNL     1      43.931 -19.414   3.032  1.00  0.00     0.050 A 
HETATM   23  C   UNL     1      44.874 -20.357   3.664  1.00  0.00     0.076 C 
HETATM   24  C   UNL     1      43.551 -19.182   1.729  1.00  0.00     0.035 A 
HETATM   25  C   UNL     1      42.597 -18.136   1.776  1.00  0.00     0.042 A 
ENDBRANCH  15  20
ENDBRANCH   1  14
TORSDOF 2
ENDMDL
MODEL 7
REMARK VINA RESULT:      -7.5      2.077      4.393
REMARK  2 active torsions:
REMARK  status: ('A' for Active; 'I' for Inactive)
REMARK    1  A    between atoms: C_4  and  C_5 
REMARK    2  A    between atoms: C_10  and  C_11 
ROOT
HETATM    1  C   UNL     1      42.723 -15.744   2.512  1.00  0.00     0.202 C 
HETATM    2  N   UNL     1      41.482 -16.373   2.068  1.00  0.00    -0.331 N 
HETATM    3  C   UNL     1      40.429 -15.566   1.465  1.00  0.00     0.155 C 
HETATM    4  C   UNL     1      41.573 -17.692   1.606  1.00  0.00     0.256 C 
HETATM    5  O   UNL     1      40.766 -18.210   0.839  1.00  0.00    -0.267 OA
HETATM    6  C   UNL     1      42.695 -18.500   2.133  1.00  0.00     0.053 A 
HETATM    7  C   UNL     1      43.519 -17.917   3.100  1.00  0.00     0.026 A 
HETATM    8  N   UNL     1      43.287 -16.605   3.561  1.00  0.00    -0.266 NA
HETATM    9  C   UNL     1      42.883 -19.825   1.729  1.00  0.00     0.019 A 
HETATM   10  C   UNL     1      43.887 -20.589   2.323  1.00  0.00     0.001 A 
HETATM   11  C   UNL     1      44.681 -20.033   3.326  1.00  0.00     0.002 A 
HETATM   12  C   UNL     1      44.487 -18.708   3.724  1.00  0.00     0.024 A 
HETATM   13  H   UNL     1      42.599 -16.658   4.309  1.00  0.00     0.130 HD
ENDROOT
BRANCH   1  14
HETATM   14  C   UNL     1      42.521 -14.329   2.982  1.00  0.00     0.029 A 
HETATM   15  C   UNL     1      42.694 -13.805   4.298  1.00  0.00     0.121 A 
HETATM   16  N   UNL     1      42.405 -12.496   4.359  1.00  0.00    -0.172 NA
HETATM   17  N   UNL     1      42.040 -12.183   3.109  1.00  0.00    -0.288 N 
HETATM   18  H   UNL     1      41.761 -11.226   2.916  1.00  0.00     0.188 HD
HETATM   19  C   UNL     1      42.101 -13.232   2.245  1.00  0.00     0.122 A 
BRANCH  15  20
HETATM   20  C   UNL     1      43.168 -14.555   5.502  1.00  0.00     0.106 A 
HETATM   21  O   UNL     1      42.562 -15.666   6.020  1.00  0.00    -0.313 OA
HETATM   22  C   UNL     1      43.301 -16.082   7.085  1.00  0.00     0.050 A 
HETATM   23  C   UNL     1      42.818 -17.287   7.789  1.00  0.00     0.076 C 
HETATM   24  C   UNL     1      44.375 -15.241   7.272  1.00  0.00     0.035 A 
HETATM   25  C   UNL     1      44.290 -14.260   6.254  1.00  0.00     0.042 A 
ENDBRANCH  15  20
ENDBRANCH   1  14
TORSDOF 2
ENDMDL
MODEL 8
REMARK VINA RESULT:      -7.4      1.414      1.604
REMARK  2 active torsions:
REMARK  status: ('A' for Active; 'I' for Inactive)
REMARK    1  A    between atoms: C_4  and  C_5 
REMARK    2  A    between atoms: C_10  and  C_11 
ROOT
HETATM    1  C   UNL     1      42.934 -16.663   4.917  1.00  0.00     0.202 C 
HETATM    2  N   UNL     1      43.887 -17.234   5.865  1.00  0.00    -0.331 N 
HETATM    3  C   UNL     1      43.928 -16.754   7.239  1.00  0.00     0.155 C 
HETATM    4  C   UNL     1      44.225 -18.582   5.685  1.00  0.00     0.256 C 
HETATM    5  O   UNL     1      44.650 -19.310   6.578  1.00  0.00    -0.267 OA
HETATM    6  C   UNL     1      44.096 -19.117   4.312  1.00  0.00     0.053 A 
HETATM    7  C   UNL     1      43.730 -18.228   3.298  1.00  0.00     0.026 A 
HETATM    8  N   UNL     1      43.494 -16.865   3.573  1.00  0.00    -0.266 NA
HETATM    9  C   UNL     1      44.398 -20.452   4.025  1.00  0.00     0.019 A 
HETATM   10  C   UNL     1      44.366 -20.896   2.704  1.00  0.00     0.001 A 
HETATM   11  C   UNL     1      44.052 -20.003   1.678  1.00  0.00     0.002 A 
HETATM   12  C   UNL     1      43.751 -18.671   1.973  1.00  0.00     0.024 A 
HETATM   13  H   UNL     1      44.392 -16.385   3.547  1.00  0.00     0.130 HD
ENDROOT
BRANCH   1  14
HETATM   14  C   UNL     1      42.632 -15.216   5.198  1.00  0.00     0.029 A 
HETATM   15  C   UNL     1      41.850 -14.312   4.419  1.00  0.00     0.121 A 
HETATM   16  N   UNL     1      41.809 -13.087   4.964  1.00  0.00    -0.172 NA
HETATM   17  N   UNL     1      42.561 -13.193   6.067  1.00  0.00    -0.288 N 
HETATM   18  H   UNL     1      42.685 -12.368   6.645  1.00  0.00     0.188 HD
HETATM   19  C   UNL     1      43.066 -14.441   6.263  1.00  0.00     0.122 A 
BRANCH  15  20
HETATM   20  C   UNL     1      41.111 -14.629   3.158  1.00  0.00     0.106 A 
HETATM   21  O   UNL     1      41.698 -14.981   1.975  1.00  0.00    -0.313 OA
HETATM   22  C   UNL     1      40.705 -15.225   1.076  1.00  0.00     0.050 A 
HETATM   23  C   UNL     1      41.131 -15.633  -0.278  1.00  0.00     0.076 C 
HETATM   24  C   UNL     1      39.477 -15.022   1.663  1.00  0.00     0.035 A 
HETATM   25  C   UNL     1      39.737 -14.639   3.002  1.00  0.00     0.042 A 
ENDBRANCH  15  20
ENDBRANCH   1  14
TORSDOF 2
ENDMDL
MODEL 9
REMARK VINA RESULT:      -7.4      2.075      3.085
REMARK  2 active torsions:
REMARK  status: ('A' for Active; 'I' for Inactive)
REMARK    1  A    between atoms: C_4  and  C_5 
REMARK    2  A    between atoms: C_10  and  C_11 
ROOT
HETATM    1  C   UNL     1      41.686 -16.147   3.891  1.00  0.00     0.202 C 
HETATM    2  N   UNL     1      40.834 -16.728   2.857  1.00  0.00    -0.331 N 
HETATM    3  C   UNL     1      39.775 -15.933   2.252  1.00  0.00     0.155 C 
HETATM    4  C   UNL     1      41.420 -17.690   2.023  1.00  0.00     0.256 C 
HETATM    5  O   UNL     1      41.017 -17.961   0.896  1.00  0.00    -0.267 OA
HETATM    6  C   UNL     1      42.564 -18.441   2.585  1.00  0.00     0.053 A 
HETATM    7  C   UNL     1      42.915 -18.195   3.915  1.00  0.00     0.026 A 
HETATM    8  N   UNL     1      42.201 -17.263   4.697  1.00  0.00    -0.266 NA
HETATM    9  C   UNL     1      43.226 -19.417   1.835  1.00  0.00     0.019 A 
HETATM   10  C   UNL     1      44.231 -20.178   2.429  1.00  0.00     0.001 A 
HETATM   11  C   UNL     1      44.554 -19.975   3.772  1.00  0.00     0.002 A 
HETATM   12  C   UNL     1      43.887 -18.998   4.515  1.00  0.00     0.024 A 
HETATM   13  H   UNL     1      41.397 -17.744   5.093  1.00  0.00     0.130 HD
ENDROOT
BRANCH   1  14
HETATM   14  C   UNL     1      40.968 -15.122   4.727  1.00  0.00     0.029 A 
HETATM   15  C   UNL     1      40.682 -13.763   4.400  1.00  0.00     0.121 A 
HETATM   16  N   UNL     1      40.040 -13.133   5.394  1.00  0.00    -0.172 NA
HETATM   17  N   UNL     1      39.924 -14.063   6.351  1.00  0.00    -0.288 N 
HETATM   18  H   UNL     1      39.471 -13.802   7.221  1.00  0.00     0.188 HD
HETATM   19  C   UNL     1      40.448 -15.268   6.004  1.00  0.00     0.122 A 
BRANCH  15  20
HETATM   20  C   UNL     1      40.999 -13.069   3.113  1.00  0.00     0.106 A 
HETATM   21  O   UNL     1      40.096 -12.377   2.355  1.00  0.00    -0.313 OA
HETATM   22  C   UNL     1      40.761 -11.861   1.286  1.00  0.00     0.050 A 
HETATM   23  C   UNL     1      39.960 -11.063   0.336  1.00  0.00     0.076 C 
HETATM   24  C   UNL     1      42.089 -12.223   1.337  1.00  0.00     0.035 A 
HETATM   25  C   UNL     1      42.242 -12.999   2.512  1.00  0.00     0.042 A 
ENDBRANCH  15  20
ENDBRANCH   1  14
TORSDOF 2
ENDMDL
MODEL 10
REMARK VINA RESULT:      -7.3      2.567      4.323
REMARK  2 active torsions:
REMARK  status: ('A' for Active; 'I' for Inactive)
REMARK    1  A    between atoms: C_4  and  C_5 
REMARK    2  A    between atoms: C_10  and  C_11 
ROOT
HETATM    1  C   UNL     1      42.821 -16.340   4.480  1.00  0.00     0.202 C 
HETATM    2  N   UNL     1      42.839 -16.742   3.076  1.00  0.00    -0.331 N 
HETATM    3  C   UNL     1      42.645 -15.748   2.029  1.00  0.00     0.155 C 
HETATM    4  C   UNL     1      43.666 -17.821   2.738  1.00  0.00     0.256 C 
HETATM    5  O   UNL     1      44.117 -18.019   1.613  1.00  0.00    -0.267 OA
HETATM    6  C   UNL     1      43.956 -18.792   3.816  1.00  0.00     0.053 A 
HETATM    7  C   UNL     1      43.325 -18.604   5.049  1.00  0.00     0.026 A 
HETATM    8  N   UNL     1      42.439 -17.527   5.258  1.00  0.00    -0.266 NA
HETATM    9  C   UNL     1      44.778 -19.900   3.589  1.00  0.00     0.019 A 
HETATM   10  C   UNL     1      44.946 -20.850   4.596  1.00  0.00     0.001 A 
HETATM   11  C   UNL     1      44.279 -20.698   5.812  1.00  0.00     0.002 A 
HETATM   12  C   UNL     1      43.460 -19.588   6.031  1.00  0.00     0.024 A 
HETATM   13  H   UNL     1      41.519 -17.817   4.933  1.00  0.00     0.130 HD
ENDROOT
BRANCH   1  14
HETATM   14  C   UNL     1      41.910 -15.171   4.737  1.00  0.00     0.029 A 
HETATM   15  C   UNL     1      42.154 -14.027   5.554  1.00  0.00     0.121 A 
HETATM   16  N   UNL     1      41.108 -13.188   5.568  1.00  0.00    -0.172 NA
HETATM   17  N   UNL     1      40.199 -13.785   4.787  1.00  0.00    -0.288 N 
HETATM   18  H   UNL     1      39.302 -13.327   4.658  1.00  0.00     0.188 HD
HETATM   19  C   UNL     1      40.626 -14.962   4.256  1.00  0.00     0.122 A 
BRANCH  15  20
HETATM   20  C   UNL     1      43.412 -13.718   6.303  1.00  0.00     0.106 A 
HETATM   21  O   UNL     1      43.476 -12.978   7.451  1.00  0.00    -0.313 OA
HETATM   22  C   UNL     1      44.777 -12.946   7.850  1.00  0.00     0.050 A 
HETATM   23  C   UNL     1      45.065 -12.197   9.090  1.00  0.00     0.076 C 
HETATM   24  C   UNL     1      45.561 -13.648   6.963  1.00  0.00     0.035 A 
HETATM   25  C   UNL     1      44.683 -14.145   5.968  1.00  0.00     0.042 A 
ENDBRANCH  15  20
ENDBRANCH   1  14
TORSDOF 2
ENDMDL
