MODEL 1
REMARK VINA RESULT:      -9.2      0.000      0.000
REMARK  7 active torsions:
REMARK  status: ('A' for Active; 'I' for Inactive)
REMARK    1  A    between atoms: C_3  and  C_4 
REMARK       I    between atoms: C_4  and  N_5 
REMARK    2  A    between atoms: N_8  and  C_9 
REMARK    3  A    between atoms: C_12  and  N_13 
REMARK    4  A    between atoms: N_13  and  C_14 
REMARK    5  A    between atoms: C_14  and  N_15 
REMARK       I    between atoms: N_15  and  C_16 
REMARK    6  A    between atoms: C_16  and  C_17 
REMARK    7  A    between atoms: C_19  and  O_20 
ROOT
HETATM    1  C   UNL     1      40.985 -11.383   6.600  1.00  0.00     0.030 A 
HETATM    2  C   UNL     1      39.822 -10.634   6.826  1.00  0.00     0.031 A 
HETATM    3  C   UNL     1      39.731  -9.720   7.883  1.00  0.00     0.026 A 
HETATM    4  C   UNL     1      40.813  -9.531   8.745  1.00  0.00     0.014 A 
HETATM    5  C   UNL     1      42.009 -10.198   8.482  1.00  0.00     0.026 A 
HETATM    6  C   UNL     1      42.085 -11.123   7.427  1.00  0.00     0.031 A 
ENDROOT
BRANCH   4   7
HETATM    7  N   UNL     1      40.596  -8.741   9.916  1.00  0.00    -0.236 NA
HETATM    8  H   UNL     1      39.634  -8.410   9.912  1.00  0.00     0.136 HD
BRANCH   7   9
HETATM    9  C   UNL     1      40.958  -9.210  11.148  1.00  0.00     0.157 C 
HETATM   10  S   UNL     1      39.929 -10.165  12.054  1.00  0.00    -0.047 SA
BRANCH   9  11
HETATM   11  N   UNL     1      42.161  -8.817  11.681  1.00  0.00    -0.304 N 
HETATM   12  C   UNL     1      43.089  -9.547  12.402  1.00  0.00     0.257 C 
HETATM   13  O   UNL     1      43.352  -9.236  13.562  1.00  0.00    -0.267 OA
HETATM   14  H   UNL     1      42.099  -7.860  12.008  1.00  0.00     0.171 HD
BRANCH  12  15
HETATM   15  C   UNL     1      43.905 -10.576  11.676  1.00  0.00     0.035 A 
HETATM   16  C   UNL     1      44.804 -10.114  10.698  1.00  0.00     0.053 A 
HETATM   17  C   UNL     1      45.509 -11.017   9.896  1.00  0.00     0.069 A 
HETATM   18  C   UNL     1      45.368 -12.387  10.112  1.00  0.00     0.037 A 
HETATM   19  C   UNL     1      44.481 -12.857  11.077  1.00  0.00     0.004 A 
HETATM   20  C   UNL     1      43.734 -11.957  11.838  1.00  0.00     0.017 A 
BRANCH  17  21
HETATM   21  O   UNL     1      46.364 -10.674   8.884  1.00  0.00    -0.356 OA
HETATM   22  C   UNL     1      46.915 -11.765   8.154  1.00  0.00     0.210 C 
ENDBRANCH  17  21
ENDBRANCH  12  15
ENDBRANCH   9  11
ENDBRANCH   7   9
ENDBRANCH   4   7
BRANCH   1  23
HETATM   23  N   UNL     1      40.962 -12.380   5.622  1.00  0.00    -0.378 N 
HETATM   24  C   UNL     1      39.652 -12.912   5.194  1.00  0.00     0.143 C 
HETATM   25  C   UNL     1      39.806 -13.651   3.854  1.00  0.00     0.146 C 
HETATM   26  N   UNL     1      40.871 -14.662   3.871  1.00  0.00    -0.345 N 
HETATM   27  C   UNL     1      40.769 -15.697   2.941  1.00  0.00     0.254 C 
HETATM   28  C   UNL     1      42.144 -14.230   4.475  1.00  0.00     0.146 C 
HETATM   29  O   UNL     1      39.768 -15.908   2.260  1.00  0.00    -0.267 OA
HETATM   30  C   UNL     1      41.973 -13.444   5.792  1.00  0.00     0.143 C 
BRANCH  27  31
HETATM   31  C   UNL     1      41.910 -16.622   2.782  1.00  0.00     0.038 A 
HETATM   32  C   UNL     1      42.187 -17.633   3.718  1.00  0.00    -0.046 A 
HETATM   33  C   UNL     1      41.331 -17.880   4.927  1.00  0.00     0.049 C 
HETATM   34  C   UNL     1      43.293 -18.466   3.486  1.00  0.00     0.007 A 
HETATM   35  C   UNL     1      44.119 -18.265   2.377  1.00  0.00     0.001 A 
HETATM   36  C   UNL     1      43.854 -17.233   1.479  1.00  0.00     0.001 A 
HETATM   37  C   UNL     1      42.747 -16.410   1.680  1.00  0.00     0.017 A 
ENDBRANCH  27  31
ENDBRANCH   1  23
TORSDOF 7
ENDMDL
MODEL 2
REMARK VINA RESULT:      -8.7      5.070      8.413
REMARK  7 active torsions:
REMARK  status: ('A' for Active; 'I' for Inactive)
REMARK    1  A    between atoms: C_3  and  C_4 
REMARK       I    between atoms: C_4  and  N_5 
REMARK    2  A    between atoms: N_8  and  C_9 
REMARK    3  A    between atoms: C_12  and  N_13 
REMARK    4  A    between atoms: N_13  and  C_14 
REMARK    5  A    between atoms: C_14  and  N_15 
REMARK       I    between atoms: N_15  and  C_16 
REMARK    6  A    between atoms: C_16  and  C_17 
REMARK    7  A    between atoms: C_19  and  O_20 
ROOT
HETATM    1  C   UNL     1      41.124 -13.951   2.160  1.00  0.00     0.030 A 
HETATM    2  C   UNL     1      40.185 -13.947   3.201  1.00  0.00     0.031 A 
HETATM    3  C   UNL     1      40.578 -13.858   4.542  1.00  0.00     0.026 A 
HETATM    4  C   UNL     1      41.931 -13.767   4.875  1.00  0.00     0.014 A 
HETATM    5  C   UNL     1      42.872 -13.677   3.851  1.00  0.00     0.026 A 
HETATM    6  C   UNL     1      42.469 -13.781   2.509  1.00  0.00     0.031 A 
ENDROOT
BRANCH   4   7
HETATM    7  N   UNL     1      42.282 -13.880   6.256  1.00  0.00    -0.236 NA
HETATM    8  H   UNL     1      41.438 -13.778   6.815  1.00  0.00     0.136 HD
BRANCH   7   9
HETATM    9  C   UNL     1      43.049 -14.923   6.694  1.00  0.00     0.157 C 
HETATM   10  S   UNL     1      44.711 -14.793   6.811  1.00  0.00    -0.047 SA
BRANCH   9  11
HETATM   11  N   UNL     1      42.445 -16.126   6.964  1.00  0.00    -0.304 N 
HETATM   12  C   UNL     1      41.620 -16.898   6.166  1.00  0.00     0.257 C 
HETATM   13  O   UNL     1      40.460 -17.118   6.508  1.00  0.00    -0.267 OA
HETATM   14  H   UNL     1      42.172 -16.166   7.938  1.00  0.00     0.171 HD
BRANCH  12  15
HETATM   15  C   UNL     1      42.230 -17.622   5.001  1.00  0.00     0.035 A 
HETATM   16  C   UNL     1      43.262 -18.537   5.278  1.00  0.00     0.053 A 
HETATM   17  C   UNL     1      43.960 -19.158   4.239  1.00  0.00     0.069 A 
HETATM   18  C   UNL     1      43.587 -18.918   2.917  1.00  0.00     0.037 A 
HETATM   19  C   UNL     1      42.568 -18.014   2.629  1.00  0.00     0.004 A 
HETATM   20  C   UNL     1      41.909 -17.350   3.665  1.00  0.00     0.017 A 
BRANCH  17  21
HETATM   21  O   UNL     1      45.011 -20.020   4.398  1.00  0.00    -0.356 OA
HETATM   22  C   UNL     1      44.727 -21.198   5.145  1.00  0.00     0.210 C 
ENDBRANCH  17  21
ENDBRANCH  12  15
ENDBRANCH   9  11
ENDBRANCH   7   9
ENDBRANCH   4   7
BRANCH   1  23
HETATM   23  N   UNL     1      40.679 -14.188   0.857  1.00  0.00    -0.378 N 
HETATM   24  C   UNL     1      41.686 -14.459  -0.189  1.00  0.00     0.143 C 
HETATM   25  C   UNL     1      41.005 -15.103  -1.408  1.00  0.00     0.146 C 
HETATM   26  N   UNL     1      39.848 -14.341  -1.894  1.00  0.00    -0.345 N 
HETATM   27  C   UNL     1      39.487 -14.531  -3.228  1.00  0.00     0.254 C 
HETATM   28  C   UNL     1      38.914 -13.877  -0.854  1.00  0.00     0.146 C 
HETATM   29  O   UNL     1      40.178 -15.135  -4.045  1.00  0.00    -0.267 OA
HETATM   30  C   UNL     1      39.611 -13.281   0.388  1.00  0.00     0.143 C 
BRANCH  27  31
HETATM   31  C   UNL     1      38.218 -13.946  -3.709  1.00  0.00     0.038 A 
HETATM   32  C   UNL     1      38.051 -12.561  -3.878  1.00  0.00    -0.046 A 
HETATM   33  C   UNL     1      39.152 -11.572  -3.625  1.00  0.00     0.049 C 
HETATM   34  C   UNL     1      36.810 -12.094  -4.339  1.00  0.00     0.007 A 
HETATM   35  C   UNL     1      35.757 -12.981  -4.579  1.00  0.00     0.001 A 
HETATM   36  C   UNL     1      35.926 -14.348  -4.369  1.00  0.00     0.001 A 
HETATM   37  C   UNL     1      37.157 -14.833  -3.933  1.00  0.00     0.017 A 
ENDBRANCH  27  31
ENDBRANCH   1  23
TORSDOF 7
ENDMDL
MODEL 3
REMARK VINA RESULT:      -8.6      4.745      7.846
REMARK  7 active torsions:
REMARK  status: ('A' for Active; 'I' for Inactive)
REMARK    1  A    between atoms: C_3  and  C_4 
REMARK       I    between atoms: C_4  and  N_5 
REMARK    2  A    between atoms: N_8  and  C_9 
REMARK    3  A    between atoms: C_12  and  N_13 
REMARK    4  A    between atoms: N_13  and  C_14 
REMARK    5  A    between atoms: C_14  and  N_15 
REMARK       I    between atoms: N_15  and  C_16 
REMARK    6  A    between atoms: C_16  and  C_17 
REMARK    7  A    between atoms: C_19  and  O_20 
ROOT
HETATM    1  C   UNL     1      41.996 -13.472   2.428  1.00  0.00     0.030 A 
HETATM    2  C   UNL     1      41.018 -13.199   3.394  1.00  0.00     0.031 A 
HETATM    3  C   UNL     1      41.285 -13.318   4.763  1.00  0.00     0.026 A 
HETATM    4  C   UNL     1      42.550 -13.713   5.201  1.00  0.00     0.014 A 
HETATM    5  C   UNL     1      43.562 -13.900   4.260  1.00  0.00     0.026 A 
HETATM    6  C   UNL     1      43.280 -13.792   2.888  1.00  0.00     0.031 A 
ENDROOT
BRANCH   4   7
HETATM    7  N   UNL     1      42.707 -14.009   6.592  1.00  0.00    -0.236 NA
HETATM    8  H   UNL     1      41.923 -14.584   6.892  1.00  0.00     0.136 HD
BRANCH   7   9
HETATM    9  C   UNL     1      43.893 -14.491   7.070  1.00  0.00     0.157 C 
HETATM   10  S   UNL     1      45.177 -13.475   7.400  1.00  0.00    -0.047 SA
BRANCH   9  11
HETATM   11  N   UNL     1      44.054 -15.849   7.200  1.00  0.00    -0.304 N 
HETATM   12  C   UNL     1      43.134 -16.868   7.032  1.00  0.00     0.257 C 
HETATM   13  O   UNL     1      42.836 -17.592   7.980  1.00  0.00    -0.267 OA
HETATM   14  H   UNL     1      44.707 -16.050   7.947  1.00  0.00     0.171 HD
BRANCH  12  15
HETATM   15  C   UNL     1      42.679 -17.194   5.639  1.00  0.00     0.035 A 
HETATM   16  C   UNL     1      43.666 -17.562   4.707  1.00  0.00     0.053 A 
HETATM   17  C   UNL     1      43.337 -17.762   3.363  1.00  0.00     0.069 A 
HETATM   18  C   UNL     1      42.007 -17.660   2.956  1.00  0.00     0.037 A 
HETATM   19  C   UNL     1      41.020 -17.296   3.869  1.00  0.00     0.004 A 
HETATM   20  C   UNL     1      41.358 -17.040   5.199  1.00  0.00     0.017 A 
BRANCH  17  21
HETATM   21  O   UNL     1      44.226 -18.068   2.369  1.00  0.00    -0.356 OA
HETATM   22  C   UNL     1      43.963 -17.463   1.107  1.00  0.00     0.210 C 
ENDBRANCH  17  21
ENDBRANCH  12  15
ENDBRANCH   9  11
ENDBRANCH   7   9
ENDBRANCH   4   7
BRANCH   1  23
HETATM   23  N   UNL     1      41.627 -13.477   1.081  1.00  0.00    -0.378 N 
HETATM   24  C   UNL     1      42.298 -12.531   0.166  1.00  0.00     0.143 C 
HETATM   25  C   UNL     1      42.080 -12.976  -1.290  1.00  0.00     0.146 C 
HETATM   26  N   UNL     1      40.668 -13.204  -1.619  1.00  0.00    -0.345 N 
HETATM   27  C   UNL     1      40.314 -13.109  -2.965  1.00  0.00     0.254 C 
HETATM   28  C   UNL     1      39.905 -13.981  -0.627  1.00  0.00     0.146 C 
HETATM   29  O   UNL     1      41.057 -12.669  -3.839  1.00  0.00    -0.267 OA
HETATM   30  C   UNL     1      40.173 -13.561   0.834  1.00  0.00     0.143 C 
BRANCH  27  31
HETATM   31  C   UNL     1      38.955 -13.525  -3.371  1.00  0.00     0.038 A 
HETATM   32  C   UNL     1      38.651 -14.853  -3.717  1.00  0.00    -0.046 A 
HETATM   33  C   UNL     1      39.666 -15.959  -3.666  1.00  0.00     0.049 C 
HETATM   34  C   UNL     1      37.333 -15.155  -4.090  1.00  0.00     0.007 A 
HETATM   35  C   UNL     1      36.360 -14.153  -4.158  1.00  0.00     0.001 A 
HETATM   36  C   UNL     1      36.687 -12.834  -3.850  1.00  0.00     0.001 A 
HETATM   37  C   UNL     1      37.985 -12.517  -3.455  1.00  0.00     0.017 A 
ENDBRANCH  27  31
ENDBRANCH   1  23
TORSDOF 7
ENDMDL
MODEL 4
REMARK VINA RESULT:      -8.5      3.404     10.074
REMARK  7 active torsions:
REMARK  status: ('A' for Active; 'I' for Inactive)
REMARK    1  A    between atoms: C_3  and  C_4 
REMARK       I    between atoms: C_4  and  N_5 
REMARK    2  A    between atoms: N_8  and  C_9 
REMARK    3  A    between atoms: C_12  and  N_13 
REMARK    4  A    between atoms: N_13  and  C_14 
REMARK    5  A    between atoms: C_14  and  N_15 
REMARK       I    between atoms: N_15  and  C_16 
REMARK    6  A    between atoms: C_16  and  C_17 
REMARK    7  A    between atoms: C_19  and  O_20 
ROOT
HETATM    1  C   UNL     1      41.822 -12.154   5.894  1.00  0.00     0.030 A 
HETATM    2  C   UNL     1      42.791 -13.168   5.925  1.00  0.00     0.031 A 
HETATM    3  C   UNL     1      43.194 -13.833   4.762  1.00  0.00     0.026 A 
HETATM    4  C   UNL     1      42.636 -13.495   3.528  1.00  0.00     0.014 A 
HETATM    5  C   UNL     1      41.741 -12.428   3.462  1.00  0.00     0.026 A 
HETATM    6  C   UNL     1      41.331 -11.776   4.638  1.00  0.00     0.031 A 
ENDROOT
BRANCH   4   7
HETATM    7  N   UNL     1      42.937 -14.337   2.412  1.00  0.00    -0.236 NA
HETATM    8  H   UNL     1      43.510 -15.113   2.735  1.00  0.00     0.136 HD
BRANCH   7   9
HETATM    9  C   UNL     1      41.943 -14.764   1.576  1.00  0.00     0.157 C 
HETATM   10  S   UNL     1      41.608 -13.971   0.144  1.00  0.00    -0.047 SA
BRANCH   9  11
HETATM   11  N   UNL     1      41.152 -15.816   1.967  1.00  0.00    -0.304 N 
HETATM   12  C   UNL     1      41.357 -17.176   1.822  1.00  0.00     0.257 C 
HETATM   13  O   UNL     1      40.579 -17.848   1.148  1.00  0.00    -0.267 OA
HETATM   14  H   UNL     1      40.175 -15.570   1.871  1.00  0.00     0.171 HD
BRANCH  12  15
HETATM   15  C   UNL     1      42.409 -17.832   2.667  1.00  0.00     0.035 A 
HETATM   16  C   UNL     1      43.127 -18.898   2.094  1.00  0.00     0.053 A 
HETATM   17  C   UNL     1      44.036 -19.636   2.857  1.00  0.00     0.069 A 
HETATM   18  C   UNL     1      44.283 -19.271   4.180  1.00  0.00     0.037 A 
HETATM   19  C   UNL     1      43.579 -18.218   4.760  1.00  0.00     0.004 A 
HETATM   20  C   UNL     1      42.629 -17.518   4.014  1.00  0.00     0.017 A 
BRANCH  17  21
HETATM   21  O   UNL     1      44.742 -20.721   2.413  1.00  0.00    -0.356 OA
HETATM   22  C   UNL     1      43.966 -21.748   1.804  1.00  0.00     0.210 C 
ENDBRANCH  17  21
ENDBRANCH  12  15
ENDBRANCH   9  11
ENDBRANCH   7   9
ENDBRANCH   4   7
BRANCH   1  23
HETATM   23  N   UNL     1      41.358 -11.632   7.103  1.00  0.00    -0.378 N 
HETATM   24  C   UNL     1      40.127 -10.816   7.087  1.00  0.00     0.143 C 
HETATM   25  C   UNL     1      39.560 -10.707   8.513  1.00  0.00     0.146 C 
HETATM   26  N   UNL     1      40.551 -10.251   9.496  1.00  0.00    -0.345 N 
HETATM   27  C   UNL     1      40.056  -9.649  10.653  1.00  0.00     0.254 C 
HETATM   28  C   UNL     1      41.868 -10.905   9.416  1.00  0.00     0.146 C 
HETATM   29  O   UNL     1      38.883  -9.314  10.802  1.00  0.00    -0.267 OA
HETATM   30  C   UNL     1      42.402 -11.056   7.975  1.00  0.00     0.143 C 
BRANCH  27  31
HETATM   31  C   UNL     1      40.995  -9.356  11.755  1.00  0.00     0.038 A 
HETATM   32  C   UNL     1      41.219 -10.261  12.807  1.00  0.00    -0.046 A 
HETATM   33  C   UNL     1      40.557 -11.607  12.876  1.00  0.00     0.049 C 
HETATM   34  C   UNL     1      42.129  -9.898  13.811  1.00  0.00     0.007 A 
HETATM   35  C   UNL     1      42.760  -8.651  13.789  1.00  0.00     0.001 A 
HETATM   36  C   UNL     1      42.497  -7.748  12.760  1.00  0.00     0.001 A 
HETATM   37  C   UNL     1      41.614  -8.099  11.741  1.00  0.00     0.017 A 
ENDBRANCH  27  31
ENDBRANCH   1  23
TORSDOF 7
ENDMDL
MODEL 5
REMARK VINA RESULT:      -8.5      6.069      9.161
REMARK  7 active torsions:
REMARK  status: ('A' for Active; 'I' for Inactive)
REMARK    1  A    between atoms: C_3  and  C_4 
REMARK       I    between atoms: C_4  and  N_5 
REMARK    2  A    between atoms: N_8  and  C_9 
REMARK    3  A    between atoms: C_12  and  N_13 
REMARK    4  A    between atoms: N_13  and  C_14 
REMARK    5  A    between atoms: C_14  and  N_15 
REMARK       I    between atoms: N_15  and  C_16 
REMARK    6  A    between atoms: C_16  and  C_17 
REMARK    7  A    between atoms: C_19  and  O_20 
ROOT
HETATM    1  C   UNL     1      40.196 -14.736   2.898  1.00  0.00     0.030 A 
HETATM    2  C   UNL     1      39.405 -15.361   1.925  1.00  0.00     0.031 A 
HETATM    3  C   UNL     1      38.380 -14.677   1.261  1.00  0.00     0.026 A 
HETATM    4  C   UNL     1      38.123 -13.337   1.557  1.00  0.00     0.014 A 
HETATM    5  C   UNL     1      38.957 -12.672   2.455  1.00  0.00     0.026 A 
HETATM    6  C   UNL     1      39.974 -13.372   3.125  1.00  0.00     0.031 A 
ENDROOT
BRANCH   4   7
HETATM    7  N   UNL     1      36.944 -12.750   0.998  1.00  0.00    -0.236 NA
HETATM    8  H   UNL     1      36.205 -12.778   1.697  1.00  0.00     0.136 HD
BRANCH   7   9
HETATM    9  C   UNL     1      37.001 -11.534   0.378  1.00  0.00     0.157 C 
HETATM   10  S   UNL     1      36.429 -10.150   1.118  1.00  0.00    -0.047 SA
BRANCH   9  11
HETATM   11  N   UNL     1      37.462 -11.468  -0.914  1.00  0.00    -0.304 N 
HETATM   12  C   UNL     1      38.703 -11.084  -1.391  1.00  0.00     0.257 C 
HETATM   13  O   UNL     1      38.805 -10.103  -2.123  1.00  0.00    -0.267 OA
HETATM   14  H   UNL     1      36.715 -11.182  -1.535  1.00  0.00     0.171 HD
BRANCH  12  15
HETATM   15  C   UNL     1      39.867 -12.005  -1.168  1.00  0.00     0.035 A 
HETATM   16  C   UNL     1      39.802 -13.282  -1.754  1.00  0.00     0.053 A 
HETATM   17  C   UNL     1      40.789 -14.237  -1.491  1.00  0.00     0.069 A 
HETATM   18  C   UNL     1      41.882 -13.898  -0.695  1.00  0.00     0.037 A 
HETATM   19  C   UNL     1      41.958 -12.637  -0.108  1.00  0.00     0.004 A 
HETATM   20  C   UNL     1      40.944 -11.704  -0.324  1.00  0.00     0.017 A 
BRANCH  17  21
HETATM   21  O   UNL     1      40.793 -15.520  -1.966  1.00  0.00    -0.356 OA
HETATM   22  C   UNL     1      40.191 -15.700  -3.244  1.00  0.00     0.210 C 
ENDBRANCH  17  21
ENDBRANCH  12  15
ENDBRANCH   9  11
ENDBRANCH   7   9
ENDBRANCH   4   7
BRANCH   1  23
HETATM   23  N   UNL     1      41.103 -15.510   3.625  1.00  0.00    -0.378 N 
HETATM   24  C   UNL     1      42.293 -14.846   4.196  1.00  0.00     0.143 C 
HETATM   25  C   UNL     1      42.911 -15.738   5.285  1.00  0.00     0.146 C 
HETATM   26  N   UNL     1      43.169 -17.111   4.832  1.00  0.00    -0.345 N 
HETATM   27  C   UNL     1      44.148 -17.826   5.522  1.00  0.00     0.254 C 
HETATM   28  C   UNL     1      42.072 -17.745   4.080  1.00  0.00     0.146 C 
HETATM   29  O   UNL     1      44.917 -17.322   6.337  1.00  0.00    -0.267 OA
HETATM   30  C   UNL     1      41.425 -16.821   3.026  1.00  0.00     0.143 C 
BRANCH  27  31
HETATM   31  C   UNL     1      44.304 -19.268   5.237  1.00  0.00     0.038 A 
HETATM   32  C   UNL     1      44.099 -20.250   6.221  1.00  0.00    -0.046 A 
HETATM   33  C   UNL     1      43.671 -19.921   7.623  1.00  0.00     0.049 C 
HETATM   34  C   UNL     1      44.269 -21.596   5.860  1.00  0.00     0.007 A 
HETATM   35  C   UNL     1      44.675 -21.944   4.568  1.00  0.00     0.001 A 
HETATM   36  C   UNL     1      44.912 -20.956   3.615  1.00  0.00     0.001 A 
HETATM   37  C   UNL     1      44.726 -19.615   3.948  1.00  0.00     0.017 A 
ENDBRANCH  27  31
ENDBRANCH   1  23
TORSDOF 7
ENDMDL
MODEL 6
REMARK VINA RESULT:      -8.4      3.397      9.547
REMARK  7 active torsions:
REMARK  status: ('A' for Active; 'I' for Inactive)
REMARK    1  A    between atoms: C_3  and  C_4 
REMARK       I    between atoms: C_4  and  N_5 
REMARK    2  A    between atoms: N_8  and  C_9 
REMARK    3  A    between atoms: C_12  and  N_13 
REMARK    4  A    between atoms: N_13  and  C_14 
REMARK    5  A    between atoms: C_14  and  N_15 
REMARK       I    between atoms: N_15  and  C_16 
REMARK    6  A    between atoms: C_16  and  C_17 
REMARK    7  A    between atoms: C_19  and  O_20 
ROOT
HETATM    1  C   UNL     1      41.720 -11.982   5.885  1.00  0.00     0.030 A 
HETATM    2  C   UNL     1      42.624 -13.053   5.868  1.00  0.00     0.031 A 
HETATM    3  C   UNL     1      43.001 -13.676   4.672  1.00  0.00     0.026 A 
HETATM    4  C   UNL     1      42.480 -13.235   3.455  1.00  0.00     0.014 A 
HETATM    5  C   UNL     1      41.651 -12.114   3.442  1.00  0.00     0.026 A 
HETATM    6  C   UNL     1      41.268 -11.505   4.649  1.00  0.00     0.031 A 
ENDROOT
BRANCH   4   7
HETATM    7  N   UNL     1      42.743 -14.030   2.296  1.00  0.00    -0.236 NA
HETATM    8  H   UNL     1      43.383 -14.777   2.553  1.00  0.00     0.136 HD
BRANCH   7   9
HETATM    9  C   UNL     1      41.714 -14.495   1.525  1.00  0.00     0.157 C 
HETATM   10  S   UNL     1      41.491 -13.965  -0.043  1.00  0.00    -0.047 SA
BRANCH   9  11
HETATM   11  N   UNL     1      40.800 -15.354   2.085  1.00  0.00    -0.304 N 
HETATM   12  C   UNL     1      40.881 -16.719   2.293  1.00  0.00     0.257 C 
HETATM   13  O   UNL     1      40.092 -17.476   1.733  1.00  0.00    -0.267 OA
HETATM   14  H   UNL     1      39.860 -15.065   1.843  1.00  0.00     0.171 HD
BRANCH  12  15
HETATM   15  C   UNL     1      41.804 -17.222   3.364  1.00  0.00     0.035 A 
HETATM   16  C   UNL     1      41.418 -17.011   4.700  1.00  0.00     0.053 A 
HETATM   17  C   UNL     1      42.280 -17.342   5.751  1.00  0.00     0.069 A 
HETATM   18  C   UNL     1      43.505 -17.946   5.474  1.00  0.00     0.037 A 
HETATM   19  C   UNL     1      43.900 -18.160   4.155  1.00  0.00     0.004 A 
HETATM   20  C   UNL     1      43.064 -17.778   3.105  1.00  0.00     0.017 A 
BRANCH  17  21
HETATM   21  O   UNL     1      42.025 -17.129   7.078  1.00  0.00    -0.356 OA
HETATM   22  C   UNL     1      43.133 -17.320   7.951  1.00  0.00     0.210 C 
ENDBRANCH  17  21
ENDBRANCH  12  15
ENDBRANCH   9  11
ENDBRANCH   7   9
ENDBRANCH   4   7
BRANCH   1  23
HETATM   23  N   UNL     1      41.273 -11.500   7.118  1.00  0.00    -0.378 N 
HETATM   24  C   UNL     1      40.063 -10.654   7.144  1.00  0.00     0.143 C 
HETATM   25  C   UNL     1      39.504 -10.593   8.575  1.00  0.00     0.146 C 
HETATM   26  N   UNL     1      40.510 -10.205   9.572  1.00  0.00    -0.345 N 
HETATM   27  C   UNL     1      40.035  -9.640  10.756  1.00  0.00     0.254 C 
HETATM   28  C   UNL     1      41.810 -10.887   9.458  1.00  0.00     0.146 C 
HETATM   29  O   UNL     1      38.871  -9.283  10.925  1.00  0.00    -0.267 OA
HETATM   30  C   UNL     1      42.335 -10.989   8.009  1.00  0.00     0.143 C 
BRANCH  27  31
HETATM   31  C   UNL     1      40.985  -9.418  11.866  1.00  0.00     0.038 A 
HETATM   32  C   UNL     1      41.181 -10.368  12.883  1.00  0.00    -0.046 A 
HETATM   33  C   UNL     1      40.475 -11.693  12.906  1.00  0.00     0.049 C 
HETATM   34  C   UNL     1      42.104 -10.071  13.898  1.00  0.00     0.007 A 
HETATM   35  C   UNL     1      42.776  -8.846  13.918  1.00  0.00     0.001 A 
HETATM   36  C   UNL     1      42.542  -7.899  12.923  1.00  0.00     0.001 A 
HETATM   37  C   UNL     1      41.645  -8.183  11.895  1.00  0.00     0.017 A 
ENDBRANCH  27  31
ENDBRANCH   1  23
TORSDOF 7
ENDMDL
MODEL 7
REMARK VINA RESULT:      -8.3      5.441      8.007
REMARK  7 active torsions:
REMARK  status: ('A' for Active; 'I' for Inactive)
REMARK    1  A    between atoms: C_3  and  C_4 
REMARK       I    between atoms: C_4  and  N_5 
REMARK    2  A    between atoms: N_8  and  C_9 
REMARK    3  A    between atoms: C_12  and  N_13 
REMARK    4  A    between atoms: N_13  and  C_14 
REMARK    5  A    between atoms: C_14  and  N_15 
REMARK       I    between atoms: N_15  and  C_16 
REMARK    6  A    between atoms: C_16  and  C_17 
REMARK    7  A    between atoms: C_19  and  O_20 
ROOT
HETATM    1  C   UNL     1      41.061 -14.445   5.116  1.00  0.00     0.030 A 
HETATM    2  C   UNL     1      41.356 -13.416   4.210  1.00  0.00     0.031 A 
HETATM    3  C   UNL     1      40.505 -12.317   4.046  1.00  0.00     0.026 A 
HETATM    4  C   UNL     1      39.330 -12.219   4.793  1.00  0.00     0.014 A 
HETATM    5  C   UNL     1      39.065 -13.184   5.764  1.00  0.00     0.026 A 
HETATM    6  C   UNL     1      39.918 -14.291   5.911  1.00  0.00     0.031 A 
ENDROOT
BRANCH   4   7
HETATM    7  N   UNL     1      38.407 -11.184   4.443  1.00  0.00    -0.236 NA
HETATM    8  H   UNL     1      38.553 -10.394   5.066  1.00  0.00     0.136 HD
BRANCH   7   9
HETATM    9  C   UNL     1      38.279 -10.779   3.144  1.00  0.00     0.157 C 
HETATM   10  S   UNL     1      38.961  -9.352   2.604  1.00  0.00    -0.047 SA
BRANCH   9  11
HETATM   11  N   UNL     1      37.503 -11.522   2.289  1.00  0.00    -0.304 N 
HETATM   12  C   UNL     1      37.810 -12.049   1.048  1.00  0.00     0.257 C 
HETATM   13  O   UNL     1      37.191 -11.681   0.052  1.00  0.00    -0.267 OA
HETATM   14  H   UNL     1      36.539 -11.214   2.339  1.00  0.00     0.171 HD
BRANCH  12  15
HETATM   15  C   UNL     1      38.754 -13.215   0.983  1.00  0.00     0.035 A 
HETATM   16  C   UNL     1      39.727 -13.202  -0.032  1.00  0.00     0.053 A 
HETATM   17  C   UNL     1      40.561 -14.306  -0.232  1.00  0.00     0.069 A 
HETATM   18  C   UNL     1      40.472 -15.402   0.625  1.00  0.00     0.037 A 
HETATM   19  C   UNL     1      39.513 -15.427   1.634  1.00  0.00     0.004 A 
HETATM   20  C   UNL     1      38.642 -14.349   1.797  1.00  0.00     0.017 A 
BRANCH  17  21
HETATM   21  O   UNL     1      41.500 -14.417  -1.221  1.00  0.00    -0.356 OA
HETATM   22  C   UNL     1      41.014 -14.887  -2.474  1.00  0.00     0.210 C 
ENDBRANCH  17  21
ENDBRANCH  12  15
ENDBRANCH   9  11
ENDBRANCH   7   9
ENDBRANCH   4   7
BRANCH   1  23
HETATM   23  N   UNL     1      41.872 -15.582   5.128  1.00  0.00    -0.378 N 
HETATM   24  C   UNL     1      43.243 -15.459   5.665  1.00  0.00     0.143 C 
HETATM   25  C   UNL     1      43.800 -16.856   5.986  1.00  0.00     0.146 C 
HETATM   26  N   UNL     1      43.694 -17.794   4.862  1.00  0.00    -0.345 N 
HETATM   27  C   UNL     1      44.583 -18.869   4.856  1.00  0.00     0.254 C 
HETATM   28  C   UNL     1      42.395 -17.805   4.167  1.00  0.00     0.146 C 
HETATM   29  O   UNL     1      45.546 -18.965   5.612  1.00  0.00    -0.267 OA
HETATM   30  C   UNL     1      41.822 -16.397   3.897  1.00  0.00     0.143 C 
BRANCH  27  31
HETATM   31  C   UNL     1      44.387 -19.944   3.860  1.00  0.00     0.038 A 
HETATM   32  C   UNL     1      44.493 -21.304   4.199  1.00  0.00    -0.046 A 
HETATM   33  C   UNL     1      44.773 -21.775   5.597  1.00  0.00     0.049 C 
HETATM   34  C   UNL     1      44.290 -22.256   3.188  1.00  0.00     0.007 A 
HETATM   35  C   UNL     1      44.035 -21.859   1.872  1.00  0.00     0.001 A 
HETATM   36  C   UNL     1      43.973 -20.506   1.545  1.00  0.00     0.001 A 
HETATM   37  C   UNL     1      44.148 -19.546   2.539  1.00  0.00     0.017 A 
ENDBRANCH  27  31
ENDBRANCH   1  23
TORSDOF 7
ENDMDL
MODEL 8
REMARK VINA RESULT:      -8.3      2.638      3.769
REMARK  7 active torsions:
REMARK  status: ('A' for Active; 'I' for Inactive)
REMARK    1  A    between atoms: C_3  and  C_4 
REMARK       I    between atoms: C_4  and  N_5 
REMARK    2  A    between atoms: N_8  and  C_9 
REMARK    3  A    between atoms: C_12  and  N_13 
REMARK    4  A    between atoms: N_13  and  C_14 
REMARK    5  A    between atoms: C_14  and  N_15 
REMARK       I    between atoms: N_15  and  C_16 
REMARK    6  A    between atoms: C_16  and  C_17 
REMARK    7  A    between atoms: C_19  and  O_20 
ROOT
HETATM    1  C   UNL     1      41.476 -13.872   5.676  1.00  0.00     0.030 A 
HETATM    2  C   UNL     1      40.128 -13.898   6.060  1.00  0.00     0.031 A 
HETATM    3  C   UNL     1      39.412 -12.720   6.304  1.00  0.00     0.026 A 
HETATM    4  C   UNL     1      40.033 -11.477   6.165  1.00  0.00     0.014 A 
HETATM    5  C   UNL     1      41.345 -11.428   5.696  1.00  0.00     0.026 A 
HETATM    6  C   UNL     1      42.059 -12.616   5.468  1.00  0.00     0.031 A 
ENDROOT
BRANCH   4   7
HETATM    7  N   UNL     1      39.317 -10.325   6.618  1.00  0.00    -0.236 NA
HETATM    8  H   UNL     1      38.375 -10.609   6.877  1.00  0.00     0.136 HD
BRANCH   7   9
HETATM    9  C   UNL     1      39.863  -9.491   7.553  1.00  0.00     0.157 C 
HETATM   10  S   UNL     1      40.845  -8.214   7.113  1.00  0.00    -0.047 SA
BRANCH   9  11
HETATM   11  N   UNL     1      39.665  -9.765   8.884  1.00  0.00    -0.304 N 
HETATM   12  C   UNL     1      40.295 -10.687   9.700  1.00  0.00     0.257 C 
HETATM   13  O   UNL     1      39.651 -11.600  10.211  1.00  0.00    -0.267 OA
HETATM   14  H   UNL     1      38.684  -9.665   9.116  1.00  0.00     0.171 HD
BRANCH  12  15
HETATM   15  C   UNL     1      41.715 -10.423  10.108  1.00  0.00     0.035 A 
HETATM   16  C   UNL     1      42.731 -10.978   9.309  1.00  0.00     0.053 A 
HETATM   17  C   UNL     1      44.072 -10.879   9.691  1.00  0.00     0.069 A 
HETATM   18  C   UNL     1      44.411 -10.165  10.840  1.00  0.00     0.037 A 
HETATM   19  C   UNL     1      43.415  -9.610  11.640  1.00  0.00     0.004 A 
HETATM   20  C   UNL     1      42.072  -9.759  11.289  1.00  0.00     0.017 A 
BRANCH  17  21
HETATM   21  O   UNL     1      45.128 -11.428   9.017  1.00  0.00    -0.356 OA
HETATM   22  C   UNL     1      44.836 -12.616   8.288  1.00  0.00     0.210 C 
ENDBRANCH  17  21
ENDBRANCH  12  15
ENDBRANCH   9  11
ENDBRANCH   7   9
ENDBRANCH   4   7
BRANCH   1  23
HETATM   23  N   UNL     1      42.172 -15.080   5.589  1.00  0.00    -0.378 N 
HETATM   24  C   UNL     1      43.531 -15.149   6.164  1.00  0.00     0.143 C 
HETATM   25  C   UNL     1      43.939 -16.619   6.354  1.00  0.00     0.146 C 
HETATM   26  N   UNL     1      43.777 -17.426   5.138  1.00  0.00    -0.345 N 
HETATM   27  C   UNL     1      44.557 -18.579   5.041  1.00  0.00     0.254 C 
HETATM   28  C   UNL     1      42.506 -17.238   4.419  1.00  0.00     0.146 C 
HETATM   29  O   UNL     1      45.483 -18.845   5.804  1.00  0.00    -0.267 OA
HETATM   30  C   UNL     1      42.081 -15.760   4.281  1.00  0.00     0.143 C 
BRANCH  27  31
HETATM   31  C   UNL     1      44.289 -19.524   3.938  1.00  0.00     0.038 A 
HETATM   32  C   UNL     1      44.383 -20.916   4.107  1.00  0.00    -0.046 A 
HETATM   33  C   UNL     1      44.725 -21.554   5.423  1.00  0.00     0.049 C 
HETATM   34  C   UNL     1      44.110 -21.738   3.003  1.00  0.00     0.007 A 
HETATM   35  C   UNL     1      43.796 -21.184   1.759  1.00  0.00     0.001 A 
HETATM   36  C   UNL     1      43.745 -19.801   1.598  1.00  0.00     0.001 A 
HETATM   37  C   UNL     1      43.991 -18.968   2.687  1.00  0.00     0.017 A 
ENDBRANCH  27  31
ENDBRANCH   1  23
TORSDOF 7
ENDMDL
MODEL 9
REMARK VINA RESULT:      -8.3      2.974      4.799
REMARK  7 active torsions:
REMARK  status: ('A' for Active; 'I' for Inactive)
REMARK    1  A    between atoms: C_3  and  C_4 
REMARK       I    between atoms: C_4  and  N_5 
REMARK    2  A    between atoms: N_8  and  C_9 
REMARK    3  A    between atoms: C_12  and  N_13 
REMARK    4  A    between atoms: N_13  and  C_14 
REMARK    5  A    between atoms: C_14  and  N_15 
REMARK       I    between atoms: N_15  and  C_16 
REMARK    6  A    between atoms: C_16  and  C_17 
REMARK    7  A    between atoms: C_19  and  O_20 
ROOT
HETATM    1  C   UNL     1      40.787 -14.618   4.990  1.00  0.00     0.030 A 
HETATM    2  C   UNL     1      40.265 -14.142   6.201  1.00  0.00     0.031 A 
HETATM    3  C   UNL     1      39.517 -12.960   6.263  1.00  0.00     0.026 A 
HETATM    4  C   UNL     1      39.269 -12.223   5.104  1.00  0.00     0.014 A 
HETATM    5  C   UNL     1      39.700 -12.728   3.878  1.00  0.00     0.026 A 
HETATM    6  C   UNL     1      40.462 -13.907   3.828  1.00  0.00     0.031 A 
ENDROOT
BRANCH   4   7
HETATM    7  N   UNL     1      38.675 -10.931   5.256  1.00  0.00    -0.236 NA
HETATM    8  H   UNL     1      37.831 -11.025   5.816  1.00  0.00     0.136 HD
BRANCH   7   9
HETATM    9  C   UNL     1      39.427  -9.865   5.661  1.00  0.00     0.157 C 
HETATM   10  S   UNL     1      40.668  -9.264   4.717  1.00  0.00    -0.047 SA
BRANCH   9  11
HETATM   11  N   UNL     1      39.209  -9.333   6.909  1.00  0.00    -0.304 N 
HETATM   12  C   UNL     1      39.235  -9.948   8.148  1.00  0.00     0.257 C 
HETATM   13  O   UNL     1      38.218  -9.991   8.836  1.00  0.00    -0.267 OA
HETATM   14  H   UNL     1      38.497  -8.615   6.860  1.00  0.00     0.171 HD
BRANCH  12  15
HETATM   15  C   UNL     1      40.564 -10.363   8.708  1.00  0.00     0.035 A 
HETATM   16  C   UNL     1      40.698 -10.380  10.109  1.00  0.00     0.053 A 
HETATM   17  C   UNL     1      41.937 -10.637  10.702  1.00  0.00     0.069 A 
HETATM   18  C   UNL     1      43.035 -10.945   9.900  1.00  0.00     0.037 A 
HETATM   19  C   UNL     1      42.916 -10.932   8.513  1.00  0.00     0.004 A 
HETATM   20  C   UNL     1      41.693 -10.618   7.919  1.00  0.00     0.017 A 
BRANCH  17  21
HETATM   21  O   UNL     1      42.186 -10.624  12.047  1.00  0.00    -0.356 OA
HETATM   22  C   UNL     1      43.498 -10.214  12.421  1.00  0.00     0.210 C 
ENDBRANCH  17  21
ENDBRANCH  12  15
ENDBRANCH   9  11
ENDBRANCH   7   9
ENDBRANCH   4   7
BRANCH   1  23
HETATM   23  N   UNL     1      41.645 -15.720   5.016  1.00  0.00    -0.378 N 
HETATM   24  C   UNL     1      43.001 -15.540   5.573  1.00  0.00     0.143 C 
HETATM   25  C   UNL     1      43.611 -16.912   5.905  1.00  0.00     0.146 C 
HETATM   26  N   UNL     1      43.561 -17.855   4.781  1.00  0.00    -0.345 N 
HETATM   27  C   UNL     1      44.494 -18.893   4.790  1.00  0.00     0.254 C 
HETATM   28  C   UNL     1      42.274 -17.921   4.067  1.00  0.00     0.146 C 
HETATM   29  O   UNL     1      45.448 -18.948   5.561  1.00  0.00    -0.267 OA
HETATM   30  C   UNL     1      41.647 -16.539   3.786  1.00  0.00     0.143 C 
BRANCH  27  31
HETATM   31  C   UNL     1      44.358 -19.976   3.794  1.00  0.00     0.038 A 
HETATM   32  C   UNL     1      44.486 -21.331   4.141  1.00  0.00    -0.046 A 
HETATM   33  C   UNL     1      44.732 -21.790   5.550  1.00  0.00     0.049 C 
HETATM   34  C   UNL     1      44.341 -22.292   3.129  1.00  0.00     0.007 A 
HETATM   35  C   UNL     1      44.120 -21.906   1.803  1.00  0.00     0.001 A 
HETATM   36  C   UNL     1      44.034 -20.557   1.468  1.00  0.00     0.001 A 
HETATM   37  C   UNL     1      44.153 -19.588   2.463  1.00  0.00     0.017 A 
ENDBRANCH  27  31
ENDBRANCH   1  23
TORSDOF 7
ENDMDL
MODEL 10
REMARK VINA RESULT:      -8.1      5.078      8.568
REMARK  7 active torsions:
REMARK  status: ('A' for Active; 'I' for Inactive)
REMARK    1  A    between atoms: C_3  and  C_4 
REMARK       I    between atoms: C_4  and  N_5 
REMARK    2  A    between atoms: N_8  and  C_9 
REMARK    3  A    between atoms: C_12  and  N_13 
REMARK    4  A    between atoms: N_13  and  C_14 
REMARK    5  A    between atoms: C_14  and  N_15 
REMARK       I    between atoms: N_15  and  C_16 
REMARK    6  A    between atoms: C_16  and  C_17 
REMARK    7  A    between atoms: C_19  and  O_20 
ROOT
HETATM    1  C   UNL     1      41.516 -13.454   2.267  1.00  0.00     0.030 A 
HETATM    2  C   UNL     1      40.536 -13.282   3.255  1.00  0.00     0.031 A 
HETATM    3  C   UNL     1      40.838 -13.403   4.617  1.00  0.00     0.026 A 
HETATM    4  C   UNL     1      42.141 -13.698   5.025  1.00  0.00     0.014 A 
HETATM    5  C   UNL     1      43.146 -13.781   4.063  1.00  0.00     0.026 A 
HETATM    6  C   UNL     1      42.830 -13.672   2.699  1.00  0.00     0.031 A 
ENDROOT
BRANCH   4   7
HETATM    7  N   UNL     1      42.347 -14.005   6.406  1.00  0.00    -0.236 NA
HETATM    8  H   UNL     1      41.459 -13.919   6.895  1.00  0.00     0.136 HD
BRANCH   7   9
HETATM    9  C   UNL     1      43.012 -15.141   6.773  1.00  0.00     0.157 C 
HETATM   10  S   UNL     1      44.673 -15.161   6.951  1.00  0.00    -0.047 SA
BRANCH   9  11
HETATM   11  N   UNL     1      42.303 -16.309   6.915  1.00  0.00    -0.304 N 
HETATM   12  C   UNL     1      41.346 -16.867   6.087  1.00  0.00     0.257 C 
HETATM   13  O   UNL     1      40.197 -17.027   6.493  1.00  0.00    -0.267 OA
HETATM   14  H   UNL     1      42.098 -16.473   7.893  1.00  0.00     0.171 HD
BRANCH  12  15
HETATM   15  C   UNL     1      41.791 -17.457   4.781  1.00  0.00     0.035 A 
HETATM   16  C   UNL     1      42.829 -18.406   4.820  1.00  0.00     0.053 A 
HETATM   17  C   UNL     1      43.379 -18.909   3.638  1.00  0.00     0.069 A 
HETATM   18  C   UNL     1      42.850 -18.516   2.409  1.00  0.00     0.037 A 
HETATM   19  C   UNL     1      41.822 -17.578   2.356  1.00  0.00     0.004 A 
HETATM   20  C   UNL     1      41.312 -17.032   3.535  1.00  0.00     0.017 A 
BRANCH  17  21
HETATM   21  O   UNL     1      44.423 -19.790   3.565  1.00  0.00    -0.356 OA
HETATM   22  C   UNL     1      44.375 -20.704   2.474  1.00  0.00     0.210 C 
ENDBRANCH  17  21
ENDBRANCH  12  15
ENDBRANCH   9  11
ENDBRANCH   7   9
ENDBRANCH   4   7
BRANCH   1  23
HETATM   23  N   UNL     1      41.123 -13.465   0.927  1.00  0.00    -0.378 N 
HETATM   24  C   UNL     1      41.693 -14.496   0.037  1.00  0.00     0.143 C 
HETATM   25  C   UNL     1      40.839 -14.612  -1.236  1.00  0.00     0.146 C 
HETATM   26  N   UNL     1      40.617 -13.323  -1.903  1.00  0.00    -0.345 N 
HETATM   27  C   UNL     1      40.317 -13.364  -3.265  1.00  0.00     0.254 C 
HETATM   28  C   UNL     1      40.236 -12.210  -1.017  1.00  0.00     0.146 C 
HETATM   29  O   UNL     1      40.415 -14.375  -3.957  1.00  0.00    -0.267 OA
HETATM   30  C   UNL     1      41.066 -12.136   0.283  1.00  0.00     0.143 C 
BRANCH  27  31
HETATM   31  C   UNL     1      39.891 -12.118  -3.934  1.00  0.00     0.038 A 
HETATM   32  C   UNL     1      40.815 -11.197  -4.457  1.00  0.00    -0.046 A 
HETATM   33  C   UNL     1      42.299 -11.420  -4.415  1.00  0.00     0.049 C 
HETATM   34  C   UNL     1      40.318 -10.039  -5.077  1.00  0.00     0.007 A 
HETATM   35  C   UNL     1      38.944  -9.790  -5.130  1.00  0.00     0.001 A 
HETATM   36  C   UNL     1      38.043 -10.694  -4.572  1.00  0.00     0.001 A 
HETATM   37  C   UNL     1      38.514 -11.860  -3.973  1.00  0.00     0.017 A 
ENDBRANCH  27  31
ENDBRANCH   1  23
TORSDOF 7
ENDMDL
