MODEL 1
REMARK VINA RESULT:      -8.4      0.000      0.000
REMARK  4 active torsions:
REMARK  status: ('A' for Active; 'I' for Inactive)
REMARK    1  A    between atoms: C_3  and  N_4 
REMARK    2  A    between atoms: N_4  and  C_5 
REMARK    3  A    between atoms: C_5  and  C_6 
REMARK    4  A    between atoms: C_14  and  C_15 
ROOT
HETATM    1  C   UNL     1      42.151 -14.320   3.526  1.00  0.00     0.006 A 
HETATM    2  C   UNL     1      42.500 -13.653   4.697  1.00  0.00     0.048 A 
HETATM    3  C   UNL     1      43.257 -14.298   5.687  1.00  0.00     0.101 A 
HETATM    4  N   UNL     1      43.577 -15.587   5.485  1.00  0.00    -0.342 N 
HETATM    5  H   UNL     1      44.088 -16.081   6.205  1.00  0.00     0.167 HD
HETATM    6  C   UNL     1      43.252 -16.275   4.374  1.00  0.00     0.044 A 
HETATM    7  C   UNL     1      42.537 -15.642   3.358  1.00  0.00     0.030 A 
ENDROOT
BRANCH   6   8
HETATM    8  C   UNL     1      43.722 -17.658   4.335  1.00  0.00    -0.007 A 
HETATM    9  C   UNL     1      43.495 -18.456   3.199  1.00  0.00     0.053 A 
HETATM   10  C   UNL     1      43.941 -19.779   3.148  1.00  0.00     0.103 A 
HETATM   11  C   UNL     1      44.599 -20.338   4.241  1.00  0.00     0.102 A 
HETATM   12  O   UNL     1      43.681 -20.466   1.991  1.00  0.00    -0.346 OA
HETATM   13  O   UNL     1      45.029 -21.636   4.273  1.00  0.00    -0.346 OA
HETATM   14  C   UNL     1      44.849 -19.562   5.369  1.00  0.00     0.040 A 
HETATM   15  C   UNL     1      44.400 -22.421   3.251  1.00  0.00     0.202 C 
HETATM   16  C   UNL     1      44.429 -21.688   1.920  1.00  0.00     0.202 C 
HETATM   17  C   UNL     1      44.409 -18.235   5.421  1.00  0.00     0.016 A 
ENDBRANCH   6   8
BRANCH   3  18
HETATM   18  N   UNL     1      43.532 -13.631   6.874  1.00  0.00    -0.372 N 
HETATM   19  H   UNL     1      43.282 -12.640   6.805  1.00  0.00     0.161 HD
BRANCH  18  20
HETATM   20  C   UNL     1      44.754 -13.803   7.657  1.00  0.00     0.162 C 
BRANCH  20  21
HETATM   21  C   UNL     1      44.979 -12.682   8.620  1.00  0.00    -0.005 A 
HETATM   22  C   UNL     1      46.003 -11.771   8.450  1.00  0.00     0.128 A 
HETATM   23  N   UNL     1      46.268 -10.779   9.318  1.00  0.00    -0.254 NA
HETATM   24  C   UNL     1      45.429 -10.658  10.357  1.00  0.00     0.232 A 
HETATM   25  N   UNL     1      44.394 -11.468  10.610  1.00  0.00    -0.254 NA
HETATM   26  C   UNL     1      44.171 -12.449   9.717  1.00  0.00     0.128 A 
ENDBRANCH  20  21
ENDBRANCH  18  20
ENDBRANCH   3  18
TORSDOF 4
ENDMDL
MODEL 2
REMARK VINA RESULT:      -8.2      5.216      8.084
REMARK  4 active torsions:
REMARK  status: ('A' for Active; 'I' for Inactive)
REMARK    1  A    between atoms: C_3  and  N_4 
REMARK    2  A    between atoms: N_4  and  C_5 
REMARK    3  A    between atoms: C_5  and  C_6 
REMARK    4  A    between atoms: C_14  and  C_15 
ROOT
HETATM    1  C   UNL     1      40.214 -15.131   2.554  1.00  0.00     0.006 A 
HETATM    2  C   UNL     1      40.527 -14.705   1.266  1.00  0.00     0.048 A 
HETATM    3  C   UNL     1      41.509 -15.368   0.515  1.00  0.00     0.101 A 
HETATM    4  N   UNL     1      42.165 -16.381   1.104  1.00  0.00    -0.342 N 
HETATM    5  H   UNL     1      42.905 -16.847   0.593  1.00  0.00     0.167 HD
HETATM    6  C   UNL     1      41.904 -16.820   2.350  1.00  0.00     0.044 A 
HETATM    7  C   UNL     1      40.903 -16.204   3.099  1.00  0.00     0.030 A 
ENDROOT
BRANCH   6   8
HETATM    8  C   UNL     1      42.708 -17.956   2.795  1.00  0.00    -0.007 A 
HETATM    9  C   UNL     1      42.799 -19.118   2.007  1.00  0.00     0.053 A 
HETATM   10  C   UNL     1      43.566 -20.210   2.419  1.00  0.00     0.103 A 
HETATM   11  C   UNL     1      44.236 -20.172   3.640  1.00  0.00     0.102 A 
HETATM   12  O   UNL     1      43.599 -21.286   1.574  1.00  0.00    -0.346 OA
HETATM   13  O   UNL     1      44.974 -21.218   4.124  1.00  0.00    -0.346 OA
HETATM   14  C   UNL     1      44.174 -19.027   4.429  1.00  0.00     0.040 A 
HETATM   15  C   UNL     1      44.663 -22.438   3.437  1.00  0.00     0.202 C 
HETATM   16  C   UNL     1      44.634 -22.213   1.933  1.00  0.00     0.202 C 
HETATM   17  C   UNL     1      43.412 -17.929   4.015  1.00  0.00     0.016 A 
ENDBRANCH   6   8
BRANCH   3  18
HETATM   18  N   UNL     1      41.849 -14.879  -0.741  1.00  0.00    -0.372 N 
HETATM   19  H   UNL     1      42.852 -14.684  -0.800  1.00  0.00     0.161 HD
BRANCH  18  20
HETATM   20  C   UNL     1      41.082 -13.873  -1.473  1.00  0.00     0.162 C 
BRANCH  20  21
HETATM   21  C   UNL     1      40.105 -14.481  -2.427  1.00  0.00    -0.005 A 
HETATM   22  C   UNL     1      38.760 -14.171  -2.386  1.00  0.00     0.128 A 
HETATM   23  N   UNL     1      37.843 -14.732  -3.193  1.00  0.00    -0.254 NA
HETATM   24  C   UNL     1      38.307 -15.582  -4.121  1.00  0.00     0.232 A 
HETATM   25  N   UNL     1      39.589 -15.938  -4.267  1.00  0.00    -0.254 NA
HETATM   26  C   UNL     1      40.469 -15.355  -3.433  1.00  0.00     0.128 A 
ENDBRANCH  20  21
ENDBRANCH  18  20
ENDBRANCH   3  18
TORSDOF 4
ENDMDL
MODEL 3
REMARK VINA RESULT:      -8.1      4.951      8.089
REMARK  4 active torsions:
REMARK  status: ('A' for Active; 'I' for Inactive)
REMARK    1  A    between atoms: C_3  and  N_4 
REMARK    2  A    between atoms: N_4  and  C_5 
REMARK    3  A    between atoms: C_5  and  C_6 
REMARK    4  A    between atoms: C_14  and  C_15 
ROOT
HETATM    1  C   UNL     1      42.794 -14.712   2.858  1.00  0.00     0.006 A 
HETATM    2  C   UNL     1      42.299 -14.585   1.563  1.00  0.00     0.048 A 
HETATM    3  C   UNL     1      42.182 -15.710   0.732  1.00  0.00     0.101 A 
HETATM    4  N   UNL     1      42.614 -16.887   1.213  1.00  0.00    -0.342 N 
HETATM    5  H   UNL     1      42.575 -17.702   0.614  1.00  0.00     0.167 HD
HETATM    6  C   UNL     1      43.110 -17.054   2.453  1.00  0.00     0.044 A 
HETATM    7  C   UNL     1      43.197 -15.960   3.312  1.00  0.00     0.030 A 
ENDROOT
BRANCH   6   8
HETATM    8  C   UNL     1      43.497 -18.422   2.794  1.00  0.00    -0.007 A 
HETATM    9  C   UNL     1      43.787 -18.770   4.125  1.00  0.00     0.053 A 
HETATM   10  C   UNL     1      44.155 -20.074   4.465  1.00  0.00     0.103 A 
HETATM   11  C   UNL     1      44.265 -21.049   3.476  1.00  0.00     0.102 A 
HETATM   12  O   UNL     1      44.403 -20.312   5.791  1.00  0.00    -0.346 OA
HETATM   13  O   UNL     1      44.657 -22.335   3.732  1.00  0.00    -0.346 OA
HETATM   14  C   UNL     1      43.968 -20.732   2.154  1.00  0.00     0.040 A 
HETATM   15  C   UNL     1      45.287 -22.444   5.016  1.00  0.00     0.202 C 
HETATM   16  C   UNL     1      44.473 -21.717   6.075  1.00  0.00     0.202 C 
HETATM   17  C   UNL     1      43.592 -19.428   1.812  1.00  0.00     0.016 A 
ENDBRANCH   6   8
BRANCH   3  18
HETATM   18  N   UNL     1      41.749 -15.544  -0.578  1.00  0.00    -0.372 N 
HETATM   19  H   UNL     1      42.488 -15.788  -1.243  1.00  0.00     0.161 HD
BRANCH  18  20
HETATM   20  C   UNL     1      40.980 -14.396  -1.057  1.00  0.00     0.162 C 
BRANCH  20  21
HETATM   21  C   UNL     1      40.010 -14.766  -2.131  1.00  0.00    -0.005 A 
HETATM   22  C   UNL     1      40.316 -15.705  -3.097  1.00  0.00     0.128 A 
HETATM   23  N   UNL     1      39.491 -16.030  -4.107  1.00  0.00    -0.254 NA
HETATM   24  C   UNL     1      38.287 -15.440  -4.104  1.00  0.00     0.232 A 
HETATM   25  N   UNL     1      37.874 -14.534  -3.209  1.00  0.00    -0.254 NA
HETATM   26  C   UNL     1      38.736 -14.237  -2.220  1.00  0.00     0.128 A 
ENDBRANCH  20  21
ENDBRANCH  18  20
ENDBRANCH   3  18
TORSDOF 4
ENDMDL
MODEL 4
REMARK VINA RESULT:      -8.0      2.983      3.980
REMARK  4 active torsions:
REMARK  status: ('A' for Active; 'I' for Inactive)
REMARK    1  A    between atoms: C_3  and  N_4 
REMARK    2  A    between atoms: N_4  and  C_5 
REMARK    3  A    between atoms: C_5  and  C_6 
REMARK    4  A    between atoms: C_14  and  C_15 
ROOT
HETATM    1  C   UNL     1      41.750 -15.795   0.778  1.00  0.00     0.006 A 
HETATM    2  C   UNL     1      42.255 -14.764   1.567  1.00  0.00     0.048 A 
HETATM    3  C   UNL     1      43.131 -15.042   2.628  1.00  0.00     0.101 A 
HETATM    4  N   UNL     1      43.413 -16.330   2.881  1.00  0.00    -0.342 N 
HETATM    5  H   UNL     1      44.011 -16.553   3.666  1.00  0.00     0.167 HD
HETATM    6  C   UNL     1      42.940 -17.359   2.153  1.00  0.00     0.044 A 
HETATM    7  C   UNL     1      42.101 -17.105   1.068  1.00  0.00     0.030 A 
ENDROOT
BRANCH   6   8
HETATM    8  C   UNL     1      43.392 -18.684   2.573  1.00  0.00    -0.007 A 
HETATM    9  C   UNL     1      43.681 -18.942   3.925  1.00  0.00     0.053 A 
HETATM   10  C   UNL     1      44.111 -20.204   4.341  1.00  0.00     0.103 A 
HETATM   11  C   UNL     1      44.286 -21.226   3.409  1.00  0.00     0.102 A 
HETATM   12  O   UNL     1      44.354 -20.356   5.680  1.00  0.00    -0.346 OA
HETATM   13  O   UNL     1      44.740 -22.473   3.740  1.00  0.00    -0.346 OA
HETATM   14  C   UNL     1      43.990 -20.997   2.068  1.00  0.00     0.040 A 
HETATM   15  C   UNL     1      45.357 -22.479   5.035  1.00  0.00     0.202 C 
HETATM   16  C   UNL     1      44.493 -21.737   6.042  1.00  0.00     0.202 C 
HETATM   17  C   UNL     1      43.552 -19.736   1.650  1.00  0.00     0.016 A 
ENDBRANCH   6   8
BRANCH   3  18
HETATM   18  N   UNL     1      43.564 -14.002   3.440  1.00  0.00    -0.372 N 
HETATM   19  H   UNL     1      44.586 -13.983   3.501  1.00  0.00     0.161 HD
BRANCH  18  20
HETATM   20  C   UNL     1      42.964 -13.650   4.726  1.00  0.00     0.162 C 
BRANCH  20  21
HETATM   21  C   UNL     1      42.885 -14.815   5.659  1.00  0.00    -0.005 A 
HETATM   22  C   UNL     1      41.710 -15.512   5.854  1.00  0.00     0.128 A 
HETATM   23  N   UNL     1      41.585 -16.534   6.719  1.00  0.00    -0.254 NA
HETATM   24  C   UNL     1      42.702 -16.911   7.358  1.00  0.00     0.232 A 
HETATM   25  N   UNL     1      43.899 -16.324   7.231  1.00  0.00    -0.254 NA
HETATM   26  C   UNL     1      43.973 -15.303   6.358  1.00  0.00     0.128 A 
ENDBRANCH  20  21
ENDBRANCH  18  20
ENDBRANCH   3  18
TORSDOF 4
ENDMDL
MODEL 5
REMARK VINA RESULT:      -7.9      3.686      6.302
REMARK  4 active torsions:
REMARK  status: ('A' for Active; 'I' for Inactive)
REMARK    1  A    between atoms: C_3  and  N_4 
REMARK    2  A    between atoms: N_4  and  C_5 
REMARK    3  A    between atoms: C_5  and  C_6 
REMARK    4  A    between atoms: C_14  and  C_15 
ROOT
HETATM    1  C   UNL     1      44.323 -21.016   2.524  1.00  0.00     0.006 A 
HETATM    2  C   UNL     1      44.675 -20.865   3.863  1.00  0.00     0.048 A 
HETATM    3  C   UNL     1      44.254 -19.739   4.588  1.00  0.00     0.101 A 
HETATM    4  N   UNL     1      43.556 -18.800   3.930  1.00  0.00    -0.342 N 
HETATM    5  H   UNL     1      43.278 -17.962   4.425  1.00  0.00     0.167 HD
HETATM    6  C   UNL     1      43.203 -18.898   2.634  1.00  0.00     0.044 A 
HETATM    7  C   UNL     1      43.573 -20.027   1.905  1.00  0.00     0.030 A 
ENDROOT
BRANCH   6   8
HETATM    8  C   UNL     1      42.416 -17.782   2.114  1.00  0.00    -0.007 A 
HETATM    9  C   UNL     1      41.593 -17.030   2.970  1.00  0.00     0.053 A 
HETATM   10  C   UNL     1      40.838 -15.959   2.486  1.00  0.00     0.103 A 
HETATM   11  C   UNL     1      40.871 -15.636   1.131  1.00  0.00     0.102 A 
HETATM   12  O   UNL     1      40.079 -15.282   3.404  1.00  0.00    -0.346 OA
HETATM   13  O   UNL     1      40.129 -14.626   0.582  1.00  0.00    -0.346 OA
HETATM   14  C   UNL     1      41.690 -16.357   0.268  1.00  0.00     0.040 A 
HETATM   15  C   UNL     1      39.070 -14.218   1.460  1.00  0.00     0.202 C 
HETATM   16  C   UNL     1      39.590 -14.040   2.878  1.00  0.00     0.202 C 
HETATM   17  C   UNL     1      42.453 -17.425   0.751  1.00  0.00     0.016 A 
ENDBRANCH   6   8
BRANCH   3  18
HETATM   18  N   UNL     1      44.677 -19.582   5.902  1.00  0.00    -0.372 N 
HETATM   19  H   UNL     1      45.203 -20.400   6.220  1.00  0.00     0.161 HD
BRANCH  18  20
HETATM   20  C   UNL     1      43.847 -19.049   6.982  1.00  0.00     0.162 C 
BRANCH  20  21
HETATM   21  C   UNL     1      43.460 -17.624   6.755  1.00  0.00    -0.005 A 
HETATM   22  C   UNL     1      42.138 -17.231   6.685  1.00  0.00     0.128 A 
HETATM   23  N   UNL     1      41.748 -15.969   6.435  1.00  0.00    -0.254 NA
HETATM   24  C   UNL     1      42.725 -15.057   6.321  1.00  0.00     0.232 A 
HETATM   25  N   UNL     1      44.036 -15.318   6.393  1.00  0.00    -0.254 NA
HETATM   26  C   UNL     1      44.377 -16.596   6.639  1.00  0.00     0.128 A 
ENDBRANCH  20  21
ENDBRANCH  18  20
ENDBRANCH   3  18
TORSDOF 4
ENDMDL
MODEL 6
REMARK VINA RESULT:      -7.8      4.065      7.008
REMARK  4 active torsions:
REMARK  status: ('A' for Active; 'I' for Inactive)
REMARK    1  A    between atoms: C_3  and  N_4 
REMARK    2  A    between atoms: N_4  and  C_5 
REMARK    3  A    between atoms: C_5  and  C_6 
REMARK    4  A    between atoms: C_14  and  C_15 
ROOT
HETATM    1  C   UNL     1      42.116 -14.318   4.574  1.00  0.00     0.006 A 
HETATM    2  C   UNL     1      41.518 -14.116   3.332  1.00  0.00     0.048 A 
HETATM    3  C   UNL     1      41.529 -15.131   2.363  1.00  0.00     0.101 A 
HETATM    4  N   UNL     1      42.180 -16.267   2.658  1.00  0.00    -0.342 N 
HETATM    5  H   UNL     1      42.232 -16.995   1.957  1.00  0.00     0.167 HD
HETATM    6  C   UNL     1      42.781 -16.502   3.839  1.00  0.00     0.044 A 
HETATM    7  C   UNL     1      42.747 -15.525   4.834  1.00  0.00     0.030 A 
ENDROOT
BRANCH   6   8
HETATM    8  C   UNL     1      43.408 -17.816   3.973  1.00  0.00    -0.007 A 
HETATM    9  C   UNL     1      43.267 -18.779   2.958  1.00  0.00     0.053 A 
HETATM   10  C   UNL     1      43.863 -20.037   3.072  1.00  0.00     0.103 A 
HETATM   11  C   UNL     1      44.589 -20.366   4.215  1.00  0.00     0.102 A 
HETATM   12  O   UNL     1      43.677 -20.897   2.022  1.00  0.00    -0.346 OA
HETATM   13  O   UNL     1      45.166 -21.591   4.409  1.00  0.00    -0.346 OA
HETATM   14  C   UNL     1      44.754 -19.423   5.225  1.00  0.00     0.040 A 
HETATM   15  C   UNL     1      44.626 -22.572   3.514  1.00  0.00     0.202 C 
HETATM   16  C   UNL     1      44.561 -22.025   2.096  1.00  0.00     0.202 C 
HETATM   17  C   UNL     1      44.164 -18.160   5.111  1.00  0.00     0.016 A 
ENDBRANCH   6   8
BRANCH   3  18
HETATM   18  N   UNL     1      40.985 -14.877   1.109  1.00  0.00    -0.372 N 
HETATM   19  H   UNL     1      40.002 -14.601   1.184  1.00  0.00     0.161 HD
BRANCH  18  20
HETATM   20  C   UNL     1      41.199 -15.713  -0.071  1.00  0.00     0.162 C 
BRANCH  20  21
HETATM   21  C   UNL     1      41.238 -14.918  -1.336  1.00  0.00    -0.005 A 
HETATM   22  C   UNL     1      40.856 -15.459  -2.548  1.00  0.00     0.128 A 
HETATM   23  N   UNL     1      40.922 -14.794  -3.714  1.00  0.00    -0.254 NA
HETATM   24  C   UNL     1      41.320 -13.516  -3.647  1.00  0.00     0.232 A 
HETATM   25  N   UNL     1      41.693 -12.882  -2.528  1.00  0.00    -0.254 NA
HETATM   26  C   UNL     1      41.615 -13.590  -1.387  1.00  0.00     0.128 A 
ENDBRANCH  20  21
ENDBRANCH  18  20
ENDBRANCH   3  18
TORSDOF 4
ENDMDL
MODEL 7
REMARK VINA RESULT:      -7.7      5.383      7.796
REMARK  4 active torsions:
REMARK  status: ('A' for Active; 'I' for Inactive)
REMARK    1  A    between atoms: C_3  and  N_4 
REMARK    2  A    between atoms: N_4  and  C_5 
REMARK    3  A    between atoms: C_5  and  C_6 
REMARK    4  A    between atoms: C_14  and  C_15 
ROOT
HETATM    1  C   UNL     1      40.174 -15.092   1.984  1.00  0.00     0.006 A 
HETATM    2  C   UNL     1      40.397 -14.896   0.623  1.00  0.00     0.048 A 
HETATM    3  C   UNL     1      41.316 -15.697  -0.071  1.00  0.00     0.101 A 
HETATM    4  N   UNL     1      42.003 -16.611   0.633  1.00  0.00    -0.342 N 
HETATM    5  H   UNL     1      42.698 -17.171   0.157  1.00  0.00     0.167 HD
HETATM    6  C   UNL     1      41.829 -16.828   1.950  1.00  0.00     0.044 A 
HETATM    7  C   UNL     1      40.892 -16.073   2.654  1.00  0.00     0.030 A 
ENDROOT
BRANCH   6   8
HETATM    8  C   UNL     1      42.653 -17.891   2.524  1.00  0.00    -0.007 A 
HETATM    9  C   UNL     1      42.757 -19.137   1.881  1.00  0.00     0.053 A 
HETATM   10  C   UNL     1      43.543 -20.160   2.417  1.00  0.00     0.103 A 
HETATM   11  C   UNL     1      44.219 -19.966   3.619  1.00  0.00     0.102 A 
HETATM   12  O   UNL     1      43.588 -21.330   1.707  1.00  0.00    -0.346 OA
HETATM   13  O   UNL     1      44.974 -20.935   4.220  1.00  0.00    -0.346 OA
HETATM   14  C   UNL     1      44.143 -18.735   4.265  1.00  0.00     0.040 A 
HETATM   15  C   UNL     1      44.679 -22.234   3.688  1.00  0.00     0.202 C 
HETATM   16  C   UNL     1      44.638 -22.192   2.168  1.00  0.00     0.202 C 
HETATM   17  C   UNL     1      43.362 -17.706   3.727  1.00  0.00     0.016 A 
ENDBRANCH   6   8
BRANCH   3  18
HETATM   18  N   UNL     1      41.568 -15.434  -1.412  1.00  0.00    -0.372 N 
HETATM   19  H   UNL     1      42.421 -14.881  -1.524  1.00  0.00     0.161 HD
BRANCH  18  20
HETATM   20  C   UNL     1      40.553 -15.020  -2.380  1.00  0.00     0.162 C 
BRANCH  20  21
HETATM   21  C   UNL     1      40.859 -13.694  -2.998  1.00  0.00    -0.005 A 
HETATM   22  C   UNL     1      42.149 -13.205  -3.070  1.00  0.00     0.128 A 
HETATM   23  N   UNL     1      42.460 -11.998  -3.573  1.00  0.00    -0.254 NA
HETATM   24  C   UNL     1      41.445 -11.288  -4.085  1.00  0.00     0.232 A 
HETATM   25  N   UNL     1      40.162 -11.670  -4.089  1.00  0.00    -0.254 NA
HETATM   26  C   UNL     1      39.898 -12.883  -3.571  1.00  0.00     0.128 A 
ENDBRANCH  20  21
ENDBRANCH  18  20
ENDBRANCH   3  18
TORSDOF 4
ENDMDL
MODEL 8
REMARK VINA RESULT:      -7.7      3.505      6.258
REMARK  4 active torsions:
REMARK  status: ('A' for Active; 'I' for Inactive)
REMARK    1  A    between atoms: C_3  and  N_4 
REMARK    2  A    between atoms: N_4  and  C_5 
REMARK    3  A    between atoms: C_5  and  C_6 
REMARK    4  A    between atoms: C_14  and  C_15 
ROOT
HETATM    1  C   UNL     1      44.118 -19.460   2.569  1.00  0.00     0.006 A 
HETATM    2  C   UNL     1      43.895 -19.389   3.941  1.00  0.00     0.048 A 
HETATM    3  C   UNL     1      42.955 -18.487   4.464  1.00  0.00     0.101 A 
HETATM    4  N   UNL     1      42.331 -17.668   3.602  1.00  0.00    -0.342 N 
HETATM    5  H   UNL     1      41.679 -16.983   3.964  1.00  0.00     0.167 HD
HETATM    6  C   UNL     1      42.523 -17.694   2.270  1.00  0.00     0.044 A 
HETATM    7  C   UNL     1      43.420 -18.610   1.723  1.00  0.00     0.030 A 
ENDROOT
BRANCH   6   8
HETATM    8  C   UNL     1      41.723 -16.742   1.503  1.00  0.00    -0.007 A 
HETATM    9  C   UNL     1      40.601 -16.123   2.084  1.00  0.00     0.053 A 
HETATM   10  C   UNL     1      39.829 -15.209   1.363  1.00  0.00     0.103 A 
HETATM   11  C   UNL     1      40.147 -14.916   0.039  1.00  0.00     0.102 A 
HETATM   12  O   UNL     1      38.767 -14.652   2.025  1.00  0.00    -0.346 OA
HETATM   13  O   UNL     1      39.413 -14.061  -0.737  1.00  0.00    -0.346 OA
HETATM   14  C   UNL     1      41.261 -15.505  -0.552  1.00  0.00     0.040 A 
HETATM   15  C   UNL     1      38.118 -13.822  -0.170  1.00  0.00     0.202 C 
HETATM   16  C   UNL     1      38.231 -13.525   1.317  1.00  0.00     0.202 C 
HETATM   17  C   UNL     1      42.041 -16.415   0.170  1.00  0.00     0.016 A 
ENDBRANCH   6   8
BRANCH   3  18
HETATM   18  N   UNL     1      42.803 -18.388   5.842  1.00  0.00    -0.372 N 
HETATM   19  H   UNL     1      42.613 -19.304   6.257  1.00  0.00     0.161 HD
BRANCH  18  20
HETATM   20  C   UNL     1      42.033 -17.345   6.518  1.00  0.00     0.162 C 
BRANCH  20  21
HETATM   21  C   UNL     1      42.772 -16.048   6.595  1.00  0.00    -0.005 A 
HETATM   22  C   UNL     1      43.910 -15.904   7.366  1.00  0.00     0.128 A 
HETATM   23  N   UNL     1      44.575 -14.744   7.500  1.00  0.00    -0.254 NA
HETATM   24  C   UNL     1      44.119 -13.710   6.778  1.00  0.00     0.232 A 
HETATM   25  N   UNL     1      43.043 -13.740   5.983  1.00  0.00    -0.254 NA
HETATM   26  C   UNL     1      42.406 -14.921   5.884  1.00  0.00     0.128 A 
ENDBRANCH  20  21
ENDBRANCH  18  20
ENDBRANCH   3  18
TORSDOF 4
ENDMDL
MODEL 9
REMARK VINA RESULT:      -7.6      2.895      5.411
REMARK  4 active torsions:
REMARK  status: ('A' for Active; 'I' for Inactive)
REMARK    1  A    between atoms: C_3  and  N_4 
REMARK    2  A    between atoms: N_4  and  C_5 
REMARK    3  A    between atoms: C_5  and  C_6 
REMARK    4  A    between atoms: C_14  and  C_15 
ROOT
HETATM    1  C   UNL     1      43.992 -15.296   6.828  1.00  0.00     0.006 A 
HETATM    2  C   UNL     1      43.345 -14.218   6.229  1.00  0.00     0.048 A 
HETATM    3  C   UNL     1      42.759 -14.354   4.961  1.00  0.00     0.101 A 
HETATM    4  N   UNL     1      42.895 -15.534   4.335  1.00  0.00    -0.342 N 
HETATM    5  H   UNL     1      42.514 -15.639   3.403  1.00  0.00     0.167 HD
HETATM    6  C   UNL     1      43.521 -16.599   4.870  1.00  0.00     0.044 A 
HETATM    7  C   UNL     1      44.075 -16.502   6.146  1.00  0.00     0.030 A 
ENDROOT
BRANCH   6   8
HETATM    8  C   UNL     1      43.533 -17.801   4.039  1.00  0.00    -0.007 A 
HETATM    9  C   UNL     1      44.208 -18.958   4.468  1.00  0.00     0.053 A 
HETATM   10  C   UNL     1      44.226 -20.114   3.685  1.00  0.00     0.103 A 
HETATM   11  C   UNL     1      43.591 -20.128   2.445  1.00  0.00     0.102 A 
HETATM   12  O   UNL     1      44.899 -21.190   4.200  1.00  0.00    -0.346 OA
HETATM   13  O   UNL     1      43.600 -21.212   1.609  1.00  0.00    -0.346 OA
HETATM   14  C   UNL     1      42.904 -19.000   2.006  1.00  0.00     0.040 A 
HETATM   15  C   UNL     1      44.624 -22.147   1.977  1.00  0.00     0.202 C 
HETATM   16  C   UNL     1      44.608 -22.395   3.477  1.00  0.00     0.202 C 
HETATM   17  C   UNL     1      42.879 -17.843   2.792  1.00  0.00     0.016 A 
ENDBRANCH   6   8
BRANCH   3  18
HETATM   18  N   UNL     1      42.181 -13.244   4.359  1.00  0.00    -0.372 N 
HETATM   19  H   UNL     1      42.820 -12.444   4.370  1.00  0.00     0.161 HD
BRANCH  18  20
HETATM   20  C   UNL     1      40.802 -12.806   4.576  1.00  0.00     0.162 C 
BRANCH  20  21
HETATM   21  C   UNL     1      39.905 -13.155   3.433  1.00  0.00    -0.005 A 
HETATM   22  C   UNL     1      39.119 -12.206   2.810  1.00  0.00     0.128 A 
HETATM   23  N   UNL     1      38.263 -12.487   1.812  1.00  0.00    -0.254 NA
HETATM   24  C   UNL     1      38.251 -13.756   1.379  1.00  0.00     0.232 A 
HETATM   25  N   UNL     1      38.983 -14.752   1.892  1.00  0.00    -0.254 NA
HETATM   26  C   UNL     1      39.821 -14.424   2.893  1.00  0.00     0.128 A 
ENDBRANCH  20  21
ENDBRANCH  18  20
ENDBRANCH   3  18
TORSDOF 4
ENDMDL
MODEL 10
REMARK VINA RESULT:      -7.5      3.053      3.849
REMARK  4 active torsions:
REMARK  status: ('A' for Active; 'I' for Inactive)
REMARK    1  A    between atoms: C_3  and  N_4 
REMARK    2  A    between atoms: N_4  and  C_5 
REMARK    3  A    between atoms: C_5  and  C_6 
REMARK    4  A    between atoms: C_14  and  C_15 
ROOT
HETATM    1  C   UNL     1      41.545 -15.722   0.160  1.00  0.00     0.006 A 
HETATM    2  C   UNL     1      40.832 -14.919   1.046  1.00  0.00     0.048 A 
HETATM    3  C   UNL     1      40.880 -15.163   2.427  1.00  0.00     0.101 A 
HETATM    4  N   UNL     1      41.588 -16.224   2.847  1.00  0.00    -0.342 N 
HETATM    5  H   UNL     1      41.602 -16.441   3.836  1.00  0.00     0.167 HD
HETATM    6  C   UNL     1      42.283 -17.035   2.027  1.00  0.00     0.044 A 
HETATM    7  C   UNL     1      42.284 -16.787   0.655  1.00  0.00     0.030 A 
ENDROOT
BRANCH   6   8
HETATM    8  C   UNL     1      43.013 -18.116   2.686  1.00  0.00    -0.007 A 
HETATM    9  C   UNL     1      43.079 -19.392   2.100  1.00  0.00     0.053 A 
HETATM   10  C   UNL     1      43.776 -20.433   2.718  1.00  0.00     0.103 A 
HETATM   11  C   UNL     1      44.398 -20.225   3.947  1.00  0.00     0.102 A 
HETATM   12  O   UNL     1      43.792 -21.633   2.058  1.00  0.00    -0.346 OA
HETATM   13  O   UNL     1      45.064 -21.209   4.626  1.00  0.00    -0.346 OA
HETATM   14  C   UNL     1      44.358 -18.966   4.539  1.00  0.00     0.040 A 
HETATM   15  C   UNL     1      44.723 -22.511   4.130  1.00  0.00     0.202 C 
HETATM   16  C   UNL     1      44.765 -22.531   2.610  1.00  0.00     0.202 C 
HETATM   17  C   UNL     1      43.667 -17.920   3.919  1.00  0.00     0.016 A 
ENDBRANCH   6   8
BRANCH   3  18
HETATM   18  N   UNL     1      40.105 -14.388   3.281  1.00  0.00    -0.372 N 
HETATM   19  H   UNL     1      40.214 -13.392   3.075  1.00  0.00     0.161 HD
BRANCH  18  20
HETATM   20  C   UNL     1      39.987 -14.608   4.722  1.00  0.00     0.162 C 
BRANCH  20  21
HETATM   21  C   UNL     1      40.174 -13.352   5.509  1.00  0.00    -0.005 A 
HETATM   22  C   UNL     1      41.429 -12.833   5.762  1.00  0.00     0.128 A 
HETATM   23  N   UNL     1      41.643 -11.734   6.506  1.00  0.00    -0.254 NA
HETATM   24  C   UNL     1      40.552 -11.096   6.952  1.00  0.00     0.232 A 
HETATM   25  N   UNL     1      39.290 -11.495   6.751  1.00  0.00    -0.254 NA
HETATM   26  C   UNL     1      39.125 -12.602   6.005  1.00  0.00     0.128 A 
ENDBRANCH  20  21
ENDBRANCH  18  20
ENDBRANCH   3  18
TORSDOF 4
ENDMDL
