MODEL 1
REMARK VINA RESULT:      -8.1      0.000      0.000
REMARK  4 active torsions:
REMARK  status: ('A' for Active; 'I' for Inactive)
REMARK    1  A    between atoms: C_9  and  C_10 
REMARK       I    between atoms: C_10  and  N_11 
REMARK    2  A    between atoms: N_11  and  C_12 
REMARK    3  A    between atoms: C_13  and  N_14 
REMARK    4  A    between atoms: C_17  and  O_18 
ROOT
HETATM    1  C   UNL     1      43.285 -13.751   3.486  1.00  0.00     0.257 C 
HETATM    2  N   UNL     1      42.461 -12.708   3.160  1.00  0.00    -0.321 N 
HETATM    3  O   UNL     1      44.492 -13.549   3.633  1.00  0.00    -0.267 OA
HETATM    4  H   UNL     1      42.881 -11.804   3.330  1.00  0.00     0.169 HD
ENDROOT
BRANCH   2   5
HETATM    5  C   UNL     1      41.144 -12.723   2.651  1.00  0.00     0.061 C 
HETATM    6  C   UNL     1      40.797 -13.198   1.358  1.00  0.00     0.057 C 
HETATM    7  C   UNL     1      39.422 -13.276   1.067  1.00  0.00     0.031 C 
HETATM    8  C   UNL     1      38.445 -12.819   1.959  1.00  0.00     0.002 C 
HETATM    9  C   UNL     1      38.818 -12.260   3.173  1.00  0.00     0.002 C 
HETATM   10  C   UNL     1      40.165 -12.203   3.514  1.00  0.00     0.032 C 
BRANCH   6  11
HETATM   11  N   UNL     1      41.758 -13.482   0.382  1.00  0.00    -0.379 N 
HETATM   12  C   UNL     1      41.753 -14.749  -0.364  1.00  0.00     0.125 C 
HETATM   13  C   UNL     1      41.061 -14.615  -1.720  1.00  0.00     0.051 C 
HETATM   14  C   UNL     1      41.608 -13.438  -2.523  1.00  0.00     0.121 C 
HETATM   15  C   UNL     1      41.583 -12.155  -1.699  1.00  0.00     0.051 C 
HETATM   16  C   UNL     1      42.312 -12.336  -0.369  1.00  0.00     0.125 C 
BRANCH  14  17
HETATM   17  O   UNL     1      42.946 -13.697  -2.943  1.00  0.00    -0.395 OA
HETATM   18  H   UNL     1      43.205 -14.572  -2.605  1.00  0.00     0.210 HD
ENDBRANCH  14  17
ENDBRANCH   6  11
ENDBRANCH   2   5
BRANCH   1  19
HETATM   19  C   UNL     1      42.706 -15.076   3.833  1.00  0.00     0.050 A 
HETATM   20  C   UNL     1      42.982 -16.324   3.095  1.00  0.00     0.006 A 
HETATM   21  C   UNL     1      43.807 -16.387   1.964  1.00  0.00     0.015 A 
HETATM   22  C   UNL     1      42.340 -17.500   3.515  1.00  0.00     0.046 A 
HETATM   23  C   UNL     1      44.005 -17.597   1.292  1.00  0.00     0.001 A 
HETATM   24  C   UNL     1      43.375 -18.758   1.735  1.00  0.00     0.002 A 
HETATM   25  C   UNL     1      42.538 -18.711   2.848  1.00  0.00     0.030 A 
HETATM   26  N   UNL     1      41.460 -17.457   4.602  1.00  0.00    -0.323 N 
HETATM   27  C   UNL     1      41.144 -16.310   5.273  1.00  0.00     0.246 A 
HETATM   28  H   UNL     1      40.992 -18.295   4.916  1.00  0.00     0.169 HD
HETATM   29  O   UNL     1      40.370 -16.307   6.224  1.00  0.00    -0.268 OA
HETATM   30  C   UNL     1      41.788 -15.065   4.814  1.00  0.00     0.092 A 
ENDBRANCH   1  19
TORSDOF 4
ENDMDL
MODEL 2
REMARK VINA RESULT:      -8.1      2.248      6.794
REMARK  4 active torsions:
REMARK  status: ('A' for Active; 'I' for Inactive)
REMARK    1  A    between atoms: C_9  and  C_10 
REMARK       I    between atoms: C_10  and  N_11 
REMARK    2  A    between atoms: N_11  and  C_12 
REMARK    3  A    between atoms: C_13  and  N_14 
REMARK    4  A    between atoms: C_17  and  O_18 
ROOT
HETATM    1  C   UNL     1      39.762 -15.470   2.174  1.00  0.00     0.257 C 
HETATM    2  N   UNL     1      40.365 -16.694   2.275  1.00  0.00    -0.321 N 
HETATM    3  O   UNL     1      38.541 -15.404   2.016  1.00  0.00    -0.267 OA
HETATM    4  H   UNL     1      39.712 -17.439   2.480  1.00  0.00     0.169 HD
ENDROOT
BRANCH   2   5
HETATM    5  C   UNL     1      41.726 -17.044   2.153  1.00  0.00     0.061 C 
HETATM    6  C   UNL     1      42.583 -17.304   3.256  1.00  0.00     0.057 C 
HETATM    7  C   UNL     1      43.871 -17.781   2.951  1.00  0.00     0.031 C 
HETATM    8  C   UNL     1      44.328 -17.900   1.633  1.00  0.00     0.002 C 
HETATM    9  C   UNL     1      43.506 -17.537   0.576  1.00  0.00     0.002 C 
HETATM   10  C   UNL     1      42.212 -17.100   0.837  1.00  0.00     0.032 C 
BRANCH   6  11
HETATM   11  N   UNL     1      42.215 -17.013   4.574  1.00  0.00    -0.379 N 
HETATM   12  C   UNL     1      41.841 -18.070   5.525  1.00  0.00     0.125 C 
HETATM   13  C   UNL     1      43.012 -18.485   6.414  1.00  0.00     0.051 C 
HETATM   14  C   UNL     1      43.678 -17.280   7.074  1.00  0.00     0.121 C 
HETATM   15  C   UNL     1      44.046 -16.223   6.039  1.00  0.00     0.051 C 
HETATM   16  C   UNL     1      42.835 -15.825   5.198  1.00  0.00     0.125 C 
BRANCH  14  17
HETATM   17  O   UNL     1      42.813 -16.699   8.047  1.00  0.00    -0.395 OA
HETATM   18  H   UNL     1      42.687 -15.761   7.817  1.00  0.00     0.210 HD
ENDBRANCH  14  17
ENDBRANCH   6  11
ENDBRANCH   2   5
BRANCH   1  19
HETATM   19  C   UNL     1      40.547 -14.231   2.427  1.00  0.00     0.050 A 
HETATM   20  C   UNL     1      40.595 -13.528   3.724  1.00  0.00     0.006 A 
HETATM   21  C   UNL     1      39.880 -13.943   4.856  1.00  0.00     0.015 A 
HETATM   22  C   UNL     1      41.353 -12.350   3.812  1.00  0.00     0.046 A 
HETATM   23  C   UNL     1      39.946 -13.215   6.048  1.00  0.00     0.001 A 
HETATM   24  C   UNL     1      40.719 -12.058   6.122  1.00  0.00     0.002 A 
HETATM   25  C   UNL     1      41.424 -11.622   5.002  1.00  0.00     0.030 A 
HETATM   26  N   UNL     1      42.027 -11.875   2.682  1.00  0.00    -0.323 N 
HETATM   27  C   UNL     1      41.961 -12.474   1.456  1.00  0.00     0.246 A 
HETATM   28  H   UNL     1      42.577 -11.029   2.731  1.00  0.00     0.169 HD
HETATM   29  O   UNL     1      42.566 -12.032   0.485  1.00  0.00    -0.268 OA
HETATM   30  C   UNL     1      41.137 -13.692   1.348  1.00  0.00     0.092 A 
ENDBRANCH   1  19
TORSDOF 4
ENDMDL
MODEL 3
REMARK VINA RESULT:      -8.0      2.089      6.546
REMARK  4 active torsions:
REMARK  status: ('A' for Active; 'I' for Inactive)
REMARK    1  A    between atoms: C_9  and  C_10 
REMARK       I    between atoms: C_10  and  N_11 
REMARK    2  A    between atoms: N_11  and  C_12 
REMARK    3  A    between atoms: C_13  and  N_14 
REMARK    4  A    between atoms: C_17  and  O_18 
ROOT
HETATM    1  C   UNL     1      39.761 -15.523   2.060  1.00  0.00     0.257 C 
HETATM    2  N   UNL     1      40.378 -16.699   2.393  1.00  0.00    -0.321 N 
HETATM    3  O   UNL     1      38.532 -15.483   1.980  1.00  0.00    -0.267 OA
HETATM    4  H   UNL     1      39.748 -17.372   2.808  1.00  0.00     0.169 HD
ENDROOT
BRANCH   2   5
HETATM    5  C   UNL     1      41.730 -17.080   2.255  1.00  0.00     0.061 C 
HETATM    6  C   UNL     1      42.593 -17.358   3.348  1.00  0.00     0.057 C 
HETATM    7  C   UNL     1      43.866 -17.866   3.029  1.00  0.00     0.031 C 
HETATM    8  C   UNL     1      44.305 -17.998   1.706  1.00  0.00     0.002 C 
HETATM    9  C   UNL     1      43.478 -17.619   0.658  1.00  0.00     0.002 C 
HETATM   10  C   UNL     1      42.198 -17.151   0.933  1.00  0.00     0.032 C 
BRANCH   6  11
HETATM   11  N   UNL     1      42.248 -17.056   4.670  1.00  0.00    -0.379 N 
HETATM   12  C   UNL     1      42.014 -18.108   5.669  1.00  0.00     0.125 C 
HETATM   13  C   UNL     1      43.252 -18.377   6.524  1.00  0.00     0.051 C 
HETATM   14  C   UNL     1      43.823 -17.091   7.116  1.00  0.00     0.121 C 
HETATM   15  C   UNL     1      44.048 -16.043   6.033  1.00  0.00     0.051 C 
HETATM   16  C   UNL     1      42.773 -15.792   5.229  1.00  0.00     0.125 C 
BRANCH  14  17
HETATM   17  O   UNL     1      42.942 -16.560   8.104  1.00  0.00    -0.395 OA
HETATM   18  H   UNL     1      42.029 -16.663   7.780  1.00  0.00     0.210 HD
ENDBRANCH  14  17
ENDBRANCH   6  11
ENDBRANCH   2   5
BRANCH   1  19
HETATM   19  C   UNL     1      40.554 -14.267   1.968  1.00  0.00     0.050 A 
HETATM   20  C   UNL     1      41.070 -13.700   0.708  1.00  0.00     0.006 A 
HETATM   21  C   UNL     1      40.888 -14.302  -0.544  1.00  0.00     0.015 A 
HETATM   22  C   UNL     1      41.831 -12.522   0.773  1.00  0.00     0.046 A 
HETATM   23  C   UNL     1      41.428 -13.728  -1.699  1.00  0.00     0.001 A 
HETATM   24  C   UNL     1      42.165 -12.548  -1.616  1.00  0.00     0.002 A 
HETATM   25  C   UNL     1      42.370 -11.943  -0.378  1.00  0.00     0.030 A 
HETATM   26  N   UNL     1      42.086 -11.931   2.016  1.00  0.00    -0.323 N 
HETATM   27  C   UNL     1      41.666 -12.459   3.204  1.00  0.00     0.246 A 
HETATM   28  H   UNL     1      42.632 -11.083   2.078  1.00  0.00     0.169 HD
HETATM   29  O   UNL     1      41.904 -11.914   4.276  1.00  0.00    -0.268 OA
HETATM   30  C   UNL     1      40.896 -13.715   3.144  1.00  0.00     0.092 A 
ENDBRANCH   1  19
TORSDOF 4
ENDMDL
MODEL 4
REMARK VINA RESULT:      -7.6      2.147      6.289
REMARK  4 active torsions:
REMARK  status: ('A' for Active; 'I' for Inactive)
REMARK    1  A    between atoms: C_9  and  C_10 
REMARK       I    between atoms: C_10  and  N_11 
REMARK    2  A    between atoms: N_11  and  C_12 
REMARK    3  A    between atoms: C_13  and  N_14 
REMARK    4  A    between atoms: C_17  and  O_18 
ROOT
HETATM    1  C   UNL     1      39.316 -14.946   1.478  1.00  0.00     0.257 C 
HETATM    2  N   UNL     1      39.980 -15.923   2.169  1.00  0.00    -0.321 N 
HETATM    3  O   UNL     1      38.083 -14.946   1.458  1.00  0.00    -0.267 OA
HETATM    4  H   UNL     1      39.390 -16.411   2.829  1.00  0.00     0.169 HD
ENDROOT
BRANCH   2   5
HETATM    5  C   UNL     1      41.334 -16.317   2.099  1.00  0.00     0.061 C 
HETATM    6  C   UNL     1      42.311 -15.980   3.072  1.00  0.00     0.057 C 
HETATM    7  C   UNL     1      43.577 -16.578   2.923  1.00  0.00     0.031 C 
HETATM    8  C   UNL     1      43.896 -17.382   1.822  1.00  0.00     0.002 C 
HETATM    9  C   UNL     1      42.952 -17.607   0.829  1.00  0.00     0.002 C 
HETATM   10  C   UNL     1      41.678 -17.068   0.963  1.00  0.00     0.032 C 
BRANCH   6  11
HETATM   11  N   UNL     1      42.075 -15.033   4.074  1.00  0.00    -0.379 N 
HETATM   12  C   UNL     1      41.670 -15.425   5.432  1.00  0.00     0.125 C 
HETATM   13  C   UNL     1      42.857 -15.489   6.391  1.00  0.00     0.051 C 
HETATM   14  C   UNL     1      43.689 -14.210   6.350  1.00  0.00     0.121 C 
HETATM   15  C   UNL     1      44.082 -13.858   4.919  1.00  0.00     0.051 C 
HETATM   16  C   UNL     1      42.857 -13.780   4.011  1.00  0.00     0.125 C 
BRANCH  14  17
HETATM   17  O   UNL     1      42.962 -13.120   6.915  1.00  0.00    -0.395 OA
HETATM   18  H   UNL     1      43.261 -13.003   7.834  1.00  0.00     0.210 HD
ENDBRANCH  14  17
ENDBRANCH   6  11
ENDBRANCH   2   5
BRANCH   1  19
HETATM   19  C   UNL     1      40.068 -13.797   0.906  1.00  0.00     0.050 A 
HETATM   20  C   UNL     1      40.655 -13.777  -0.447  1.00  0.00     0.006 A 
HETATM   21  C   UNL     1      40.586 -14.859  -1.336  1.00  0.00     0.015 A 
HETATM   22  C   UNL     1      41.368 -12.636  -0.846  1.00  0.00     0.046 A 
HETATM   23  C   UNL     1      41.189 -14.788  -2.595  1.00  0.00     0.001 A 
HETATM   24  C   UNL     1      41.876 -13.639  -2.981  1.00  0.00     0.002 A 
HETATM   25  C   UNL     1      41.968 -12.559  -2.105  1.00  0.00     0.030 A 
HETATM   26  N   UNL     1      41.509 -11.564   0.042  1.00  0.00    -0.323 N 
HETATM   27  C   UNL     1      41.023 -11.571   1.319  1.00  0.00     0.246 A 
HETATM   28  H   UNL     1      42.019 -10.735  -0.231  1.00  0.00     0.169 HD
HETATM   29  O   UNL     1      41.162 -10.614   2.072  1.00  0.00    -0.268 OA
HETATM   30  C   UNL     1      40.304 -12.783   1.755  1.00  0.00     0.092 A 
ENDBRANCH   1  19
TORSDOF 4
ENDMDL
MODEL 5
REMARK VINA RESULT:      -7.6      2.245      6.465
REMARK  4 active torsions:
REMARK  status: ('A' for Active; 'I' for Inactive)
REMARK    1  A    between atoms: C_9  and  C_10 
REMARK       I    between atoms: C_10  and  N_11 
REMARK    2  A    between atoms: N_11  and  C_12 
REMARK    3  A    between atoms: C_13  and  N_14 
REMARK    4  A    between atoms: C_17  and  O_18 
ROOT
HETATM    1  C   UNL     1      43.487 -14.339   3.245  1.00  0.00     0.257 C 
HETATM    2  N   UNL     1      44.228 -15.429   2.878  1.00  0.00    -0.321 N 
HETATM    3  O   UNL     1      44.056 -13.278   3.510  1.00  0.00    -0.267 OA
HETATM    4  H   UNL     1      45.169 -15.190   2.596  1.00  0.00     0.169 HD
ENDROOT
BRANCH   2   5
HETATM    5  C   UNL     1      43.865 -16.792   2.825  1.00  0.00     0.061 C 
HETATM    6  C   UNL     1      43.635 -17.598   3.972  1.00  0.00     0.057 C 
HETATM    7  C   UNL     1      43.138 -18.894   3.738  1.00  0.00     0.031 C 
HETATM    8  C   UNL     1      42.973 -19.406   2.446  1.00  0.00     0.002 C 
HETATM    9  C   UNL     1      43.308 -18.633   1.343  1.00  0.00     0.002 C 
HETATM   10  C   UNL     1      43.762 -17.333   1.533  1.00  0.00     0.032 C 
BRANCH   6  11
HETATM   11  N   UNL     1      43.970 -17.177   5.263  1.00  0.00    -0.379 N 
HETATM   12  C   UNL     1      43.018 -16.445   6.111  1.00  0.00     0.125 C 
HETATM   13  C   UNL     1      42.286 -17.369   7.084  1.00  0.00     0.051 C 
HETATM   14  C   UNL     1      43.256 -18.246   7.872  1.00  0.00     0.121 C 
HETATM   15  C   UNL     1      44.213 -18.980   6.940  1.00  0.00     0.051 C 
HETATM   16  C   UNL     1      44.937 -18.008   6.011  1.00  0.00     0.125 C 
BRANCH  14  17
HETATM   17  O   UNL     1      44.012 -17.457   8.789  1.00  0.00    -0.395 OA
HETATM   18  H   UNL     1      44.200 -16.600   8.367  1.00  0.00     0.210 HD
ENDBRANCH  14  17
ENDBRANCH   6  11
ENDBRANCH   2   5
BRANCH   1  19
HETATM   19  C   UNL     1      42.002 -14.384   3.156  1.00  0.00     0.050 A 
HETATM   20  C   UNL     1      41.244 -14.356   1.890  1.00  0.00     0.006 A 
HETATM   21  C   UNL     1      41.847 -14.257   0.629  1.00  0.00     0.015 A 
HETATM   22  C   UNL     1      39.842 -14.373   1.956  1.00  0.00     0.046 A 
HETATM   23  C   UNL     1      41.070 -14.205  -0.532  1.00  0.00     0.001 A 
HETATM   24  C   UNL     1      39.680 -14.243  -0.448  1.00  0.00     0.002 A 
HETATM   25  C   UNL     1      39.062 -14.325   0.798  1.00  0.00     0.030 A 
HETATM   26  N   UNL     1      39.208 -14.406   3.203  1.00  0.00    -0.323 N 
HETATM   27  C   UNL     1      39.880 -14.382   4.392  1.00  0.00     0.246 A 
HETATM   28  H   UNL     1      38.200 -14.420   3.265  1.00  0.00     0.169 HD
HETATM   29  O   UNL     1      39.294 -14.415   5.469  1.00  0.00    -0.268 OA
HETATM   30  C   UNL     1      41.352 -14.328   4.330  1.00  0.00     0.092 A 
ENDBRANCH   1  19
TORSDOF 4
ENDMDL
MODEL 6
REMARK VINA RESULT:      -7.6      2.715      5.813
REMARK  4 active torsions:
REMARK  status: ('A' for Active; 'I' for Inactive)
REMARK    1  A    between atoms: C_9  and  C_10 
REMARK       I    between atoms: C_10  and  N_11 
REMARK    2  A    between atoms: N_11  and  C_12 
REMARK    3  A    between atoms: C_13  and  N_14 
REMARK    4  A    between atoms: C_17  and  O_18 
ROOT
HETATM    1  C   UNL     1      43.533 -14.235   4.153  1.00  0.00     0.257 C 
HETATM    2  N   UNL     1      43.607 -14.643   2.849  1.00  0.00    -0.321 N 
HETATM    3  O   UNL     1      44.509 -13.695   4.678  1.00  0.00    -0.267 OA
HETATM    4  H   UNL     1      44.376 -14.222   2.346  1.00  0.00     0.169 HD
ENDROOT
BRANCH   2   5
HETATM    5  C   UNL     1      42.776 -15.530   2.132  1.00  0.00     0.061 C 
HETATM    6  C   UNL     1      42.862 -16.945   2.216  1.00  0.00     0.057 C 
HETATM    7  C   UNL     1      41.862 -17.676   1.548  1.00  0.00     0.031 C 
HETATM    8  C   UNL     1      40.889 -17.054   0.756  1.00  0.00     0.002 C 
HETATM    9  C   UNL     1      40.893 -15.675   0.605  1.00  0.00     0.002 C 
HETATM   10  C   UNL     1      41.840 -14.916   1.283  1.00  0.00     0.032 C 
BRANCH   6  11
HETATM   11  N   UNL     1      43.932 -17.594   2.843  1.00  0.00    -0.379 N 
HETATM   12  C   UNL     1      43.994 -17.753   4.303  1.00  0.00     0.125 C 
HETATM   13  C   UNL     1      43.481 -19.119   4.756  1.00  0.00     0.051 C 
HETATM   14  C   UNL     1      44.149 -20.258   3.990  1.00  0.00     0.121 C 
HETATM   15  C   UNL     1      44.049 -20.039   2.485  1.00  0.00     0.051 C 
HETATM   16  C   UNL     1      44.600 -18.672   2.085  1.00  0.00     0.125 C 
BRANCH  14  17
HETATM   17  O   UNL     1      45.524 -20.368   4.355  1.00  0.00    -0.395 OA
HETATM   18  H   UNL     1      45.965 -19.531   4.123  1.00  0.00     0.210 HD
ENDBRANCH  14  17
ENDBRANCH   6  11
ENDBRANCH   2   5
BRANCH   1  19
HETATM   19  C   UNL     1      42.232 -14.281   4.874  1.00  0.00     0.050 A 
HETATM   20  C   UNL     1      41.356 -13.113   5.085  1.00  0.00     0.006 A 
HETATM   21  C   UNL     1      41.672 -11.820   4.647  1.00  0.00     0.015 A 
HETATM   22  C   UNL     1      40.169 -13.295   5.812  1.00  0.00     0.046 A 
HETATM   23  C   UNL     1      40.811 -10.748   4.905  1.00  0.00     0.001 A 
HETATM   24  C   UNL     1      39.628 -10.953   5.612  1.00  0.00     0.002 A 
HETATM   25  C   UNL     1      39.305 -12.228   6.069  1.00  0.00     0.030 A 
HETATM   26  N   UNL     1      39.857 -14.562   6.320  1.00  0.00    -0.323 N 
HETATM   27  C   UNL     1      40.671 -15.651   6.186  1.00  0.00     0.246 A 
HETATM   28  H   UNL     1      39.006 -14.708   6.844  1.00  0.00     0.169 HD
HETATM   29  O   UNL     1      40.366 -16.748   6.640  1.00  0.00    -0.268 OA
HETATM   30  C   UNL     1      41.936 -15.456   5.453  1.00  0.00     0.092 A 
ENDBRANCH   1  19
TORSDOF 4
ENDMDL
MODEL 7
REMARK VINA RESULT:      -7.5      2.130      4.679
REMARK  4 active torsions:
REMARK  status: ('A' for Active; 'I' for Inactive)
REMARK    1  A    between atoms: C_9  and  C_10 
REMARK       I    between atoms: C_10  and  N_11 
REMARK    2  A    between atoms: N_11  and  C_12 
REMARK    3  A    between atoms: C_13  and  N_14 
REMARK    4  A    between atoms: C_17  and  O_18 
ROOT
HETATM    1  C   UNL     1      43.569 -14.267   4.131  1.00  0.00     0.257 C 
HETATM    2  N   UNL     1      43.678 -14.853   2.899  1.00  0.00    -0.321 N 
HETATM    3  O   UNL     1      44.477 -13.543   4.543  1.00  0.00    -0.267 OA
HETATM    4  H   UNL     1      44.384 -14.421   2.318  1.00  0.00     0.169 HD
ENDROOT
BRANCH   2   5
HETATM    5  C   UNL     1      42.954 -15.929   2.343  1.00  0.00     0.061 C 
HETATM    6  C   UNL     1      41.781 -15.776   1.557  1.00  0.00     0.057 C 
HETATM    7  C   UNL     1      41.269 -16.944   0.960  1.00  0.00     0.031 C 
HETATM    8  C   UNL     1      41.820 -18.207   1.203  1.00  0.00     0.002 C 
HETATM    9  C   UNL     1      42.903 -18.340   2.061  1.00  0.00     0.002 C 
HETATM   10  C   UNL     1      43.461 -17.205   2.637  1.00  0.00     0.032 C 
BRANCH   6  11
HETATM   11  N   UNL     1      41.103 -14.557   1.452  1.00  0.00    -0.379 N 
HETATM   12  C   UNL     1      41.119 -13.765   0.214  1.00  0.00     0.125 C 
HETATM   13  C   UNL     1      39.882 -14.017  -0.647  1.00  0.00     0.051 C 
HETATM   14  C   UNL     1      38.593 -13.866   0.155  1.00  0.00     0.121 C 
HETATM   15  C   UNL     1      38.634 -14.712   1.422  1.00  0.00     0.051 C 
HETATM   16  C   UNL     1      39.874 -14.400   2.258  1.00  0.00     0.125 C 
BRANCH  14  17
HETATM   17  O   UNL     1      38.381 -12.501   0.513  1.00  0.00    -0.395 OA
HETATM   18  H   UNL     1      39.140 -12.209   1.050  1.00  0.00     0.210 HD
ENDBRANCH  14  17
ENDBRANCH   6  11
ENDBRANCH   2   5
BRANCH   1  19
HETATM   19  C   UNL     1      42.292 -14.362   4.888  1.00  0.00     0.050 A 
HETATM   20  C   UNL     1      41.398 -13.219   5.158  1.00  0.00     0.006 A 
HETATM   21  C   UNL     1      41.674 -11.907   4.747  1.00  0.00     0.015 A 
HETATM   22  C   UNL     1      40.238 -13.447   5.914  1.00  0.00     0.046 A 
HETATM   23  C   UNL     1      40.799 -10.862   5.060  1.00  0.00     0.001 A 
HETATM   24  C   UNL     1      39.643 -11.112   5.796  1.00  0.00     0.002 A 
HETATM   25  C   UNL     1      39.360 -12.406   6.226  1.00  0.00     0.030 A 
HETATM   26  N   UNL     1      39.968 -14.733   6.395  1.00  0.00    -0.323 N 
HETATM   27  C   UNL     1      40.799 -15.800   6.206  1.00  0.00     0.246 A 
HETATM   28  H   UNL     1      39.136 -14.912   6.940  1.00  0.00     0.169 HD
HETATM   29  O   UNL     1      40.532 -16.916   6.638  1.00  0.00    -0.268 OA
HETATM   30  C   UNL     1      42.037 -15.558   5.442  1.00  0.00     0.092 A 
ENDBRANCH   1  19
TORSDOF 4
ENDMDL
MODEL 8
REMARK VINA RESULT:      -7.5      2.352      6.490
REMARK  4 active torsions:
REMARK  status: ('A' for Active; 'I' for Inactive)
REMARK    1  A    between atoms: C_9  and  C_10 
REMARK       I    between atoms: C_10  and  N_11 
REMARK    2  A    between atoms: N_11  and  C_12 
REMARK    3  A    between atoms: C_13  and  N_14 
REMARK    4  A    between atoms: C_17  and  O_18 
ROOT
HETATM    1  C   UNL     1      39.596 -14.492   2.426  1.00  0.00     0.257 C 
HETATM    2  N   UNL     1      39.971 -15.171   3.554  1.00  0.00    -0.321 N 
HETATM    3  O   UNL     1      38.640 -14.897   1.763  1.00  0.00    -0.267 OA
HETATM    4  H   UNL     1      39.256 -15.801   3.892  1.00  0.00     0.169 HD
ENDROOT
BRANCH   2   5
HETATM    5  C   UNL     1      41.172 -15.103   4.293  1.00  0.00     0.061 C 
HETATM    6  C   UNL     1      42.265 -15.992   4.117  1.00  0.00     0.057 C 
HETATM    7  C   UNL     1      43.440 -15.691   4.832  1.00  0.00     0.031 C 
HETATM    8  C   UNL     1      43.505 -14.633   5.746  1.00  0.00     0.002 C 
HETATM    9  C   UNL     1      42.387 -13.844   5.977  1.00  0.00     0.002 C 
HETATM   10  C   UNL     1      41.221 -14.085   5.259  1.00  0.00     0.032 C 
BRANCH   6  11
HETATM   11  N   UNL     1      42.164 -17.162   3.357  1.00  0.00    -0.379 N 
HETATM   12  C   UNL     1      42.456 -17.177   1.916  1.00  0.00     0.125 C 
HETATM   13  C   UNL     1      43.882 -17.641   1.622  1.00  0.00     0.051 C 
HETATM   14  C   UNL     1      44.206 -18.957   2.323  1.00  0.00     0.121 C 
HETATM   15  C   UNL     1      43.887 -18.878   3.812  1.00  0.00     0.051 C 
HETATM   16  C   UNL     1      42.444 -18.439   4.047  1.00  0.00     0.125 C 
BRANCH  14  17
HETATM   17  O   UNL     1      43.465 -20.029   1.744  1.00  0.00    -0.395 OA
HETATM   18  H   UNL     1      43.189 -19.757   0.850  1.00  0.00     0.210 HD
ENDBRANCH  14  17
ENDBRANCH   6  11
ENDBRANCH   2   5
BRANCH   1  19
HETATM   19  C   UNL     1      40.224 -13.182   2.104  1.00  0.00     0.050 A 
HETATM   20  C   UNL     1      39.819 -11.896   2.704  1.00  0.00     0.006 A 
HETATM   21  C   UNL     1      38.775 -11.769   3.630  1.00  0.00     0.015 A 
HETATM   22  C   UNL     1      40.478 -10.731   2.283  1.00  0.00     0.046 A 
HETATM   23  C   UNL     1      38.421 -10.516   4.140  1.00  0.00     0.001 A 
HETATM   24  C   UNL     1      39.100  -9.372   3.724  1.00  0.00     0.002 A 
HETATM   25  C   UNL     1      40.130  -9.477   2.792  1.00  0.00     0.030 A 
HETATM   26  N   UNL     1      41.482 -10.816   1.311  1.00  0.00    -0.323 N 
HETATM   27  C   UNL     1      41.844 -11.983   0.700  1.00  0.00     0.246 A 
HETATM   28  H   UNL     1      41.965  -9.986   0.999  1.00  0.00     0.169 HD
HETATM   29  O   UNL     1      42.730 -12.024  -0.146  1.00  0.00    -0.268 OA
HETATM   30  C   UNL     1      41.130 -13.206   1.113  1.00  0.00     0.092 A 
ENDBRANCH   1  19
TORSDOF 4
ENDMDL
MODEL 9
REMARK VINA RESULT:      -7.4      2.170      6.493
REMARK  4 active torsions:
REMARK  status: ('A' for Active; 'I' for Inactive)
REMARK    1  A    between atoms: C_9  and  C_10 
REMARK       I    between atoms: C_10  and  N_11 
REMARK    2  A    between atoms: N_11  and  C_12 
REMARK    3  A    between atoms: C_13  and  N_14 
REMARK    4  A    between atoms: C_17  and  O_18 
ROOT
HETATM    1  C   UNL     1      41.988 -13.329   2.301  1.00  0.00     0.257 C 
HETATM    2  N   UNL     1      42.917 -14.254   2.697  1.00  0.00    -0.321 N 
HETATM    3  O   UNL     1      42.091 -12.162   2.683  1.00  0.00    -0.267 OA
HETATM    4  H   UNL     1      43.763 -13.834   3.057  1.00  0.00     0.169 HD
ENDROOT
BRANCH   2   5
HETATM    5  C   UNL     1      42.861 -15.663   2.658  1.00  0.00     0.061 C 
HETATM    6  C   UNL     1      42.674 -16.483   3.802  1.00  0.00     0.057 C 
HETATM    7  C   UNL     1      42.497 -17.860   3.565  1.00  0.00     0.031 C 
HETATM    8  C   UNL     1      42.599 -18.414   2.284  1.00  0.00     0.002 C 
HETATM    9  C   UNL     1      42.889 -17.602   1.196  1.00  0.00     0.002 C 
HETATM   10  C   UNL     1      43.030 -16.232   1.385  1.00  0.00     0.032 C 
BRANCH   6  11
HETATM   11  N   UNL     1      42.756 -15.981   5.105  1.00  0.00    -0.379 N 
HETATM   12  C   UNL     1      41.699 -16.223   6.098  1.00  0.00     0.125 C 
HETATM   13  C   UNL     1      42.025 -17.406   7.009  1.00  0.00     0.051 C 
HETATM   14  C   UNL     1      43.418 -17.283   7.621  1.00  0.00     0.121 C 
HETATM   15  C   UNL     1      44.469 -17.037   6.545  1.00  0.00     0.051 C 
HETATM   16  C   UNL     1      44.109 -15.830   5.682  1.00  0.00     0.125 C 
BRANCH  14  17
HETATM   17  O   UNL     1      43.458 -16.214   8.565  1.00  0.00    -0.395 OA
HETATM   18  H   UNL     1      44.226 -15.653   8.352  1.00  0.00     0.210 HD
ENDBRANCH  14  17
ENDBRANCH   6  11
ENDBRANCH   2   5
BRANCH   1  19
HETATM   19  C   UNL     1      40.967 -13.691   1.281  1.00  0.00     0.050 A 
HETATM   20  C   UNL     1      41.178 -13.594  -0.177  1.00  0.00     0.006 A 
HETATM   21  C   UNL     1      42.364 -13.123  -0.757  1.00  0.00     0.015 A 
HETATM   22  C   UNL     1      40.115 -13.939  -1.026  1.00  0.00     0.046 A 
HETATM   23  C   UNL     1      42.490 -13.028  -2.147  1.00  0.00     0.001 A 
HETATM   24  C   UNL     1      41.430 -13.394  -2.974  1.00  0.00     0.002 A 
HETATM   25  C   UNL     1      40.238 -13.849  -2.414  1.00  0.00     0.030 A 
HETATM   26  N   UNL     1      38.896 -14.351  -0.475  1.00  0.00    -0.323 N 
HETATM   27  C   UNL     1      38.653 -14.402   0.868  1.00  0.00     0.246 A 
HETATM   28  H   UNL     1      38.122 -14.603  -1.074  1.00  0.00     0.169 HD
HETATM   29  O   UNL     1      37.574 -14.771   1.318  1.00  0.00    -0.268 OA
HETATM   30  C   UNL     1      39.755 -14.007   1.764  1.00  0.00     0.092 A 
ENDBRANCH   1  19
TORSDOF 4
ENDMDL
MODEL 10
REMARK VINA RESULT:      -7.3      2.523      5.744
REMARK  4 active torsions:
REMARK  status: ('A' for Active; 'I' for Inactive)
REMARK    1  A    between atoms: C_9  and  C_10 
REMARK       I    between atoms: C_10  and  N_11 
REMARK    2  A    between atoms: N_11  and  C_12 
REMARK    3  A    between atoms: C_13  and  N_14 
REMARK    4  A    between atoms: C_17  and  O_18 
ROOT
HETATM    1  C   UNL     1      41.277 -17.267   4.694  1.00  0.00     0.257 C 
HETATM    2  N   UNL     1      41.491 -16.481   5.794  1.00  0.00    -0.321 N 
HETATM    3  O   UNL     1      40.563 -18.266   4.790  1.00  0.00    -0.267 OA
HETATM    4  H   UNL     1      40.821 -16.646   6.533  1.00  0.00     0.169 HD
ENDROOT
BRANCH   2   5
HETATM    5  C   UNL     1      42.476 -15.496   6.023  1.00  0.00     0.061 C 
HETATM    6  C   UNL     1      42.267 -14.104   5.832  1.00  0.00     0.057 C 
HETATM    7  C   UNL     1      43.307 -13.251   6.247  1.00  0.00     0.031 C 
HETATM    8  C   UNL     1      44.526 -13.743   6.729  1.00  0.00     0.002 C 
HETATM    9  C   UNL     1      44.742 -15.112   6.805  1.00  0.00     0.002 C 
HETATM   10  C   UNL     1      43.723 -15.985   6.443  1.00  0.00     0.032 C 
BRANCH   6  11
HETATM   11  N   UNL     1      41.138 -13.599   5.179  1.00  0.00    -0.379 N 
HETATM   12  C   UNL     1      39.833 -13.503   5.850  1.00  0.00     0.125 C 
HETATM   13  C   UNL     1      39.579 -12.108   6.419  1.00  0.00     0.051 C 
HETATM   14  C   UNL     1      39.807 -11.019   5.374  1.00  0.00     0.121 C 
HETATM   15  C   UNL     1      41.176 -11.168   4.718  1.00  0.00     0.051 C 
HETATM   16  C   UNL     1      41.365 -12.570   4.143  1.00  0.00     0.125 C 
BRANCH  14  17
HETATM   17  O   UNL     1      38.799 -11.072   4.366  1.00  0.00    -0.395 OA
HETATM   18  H   UNL     1      37.966 -11.347   4.788  1.00  0.00     0.210 HD
ENDBRANCH  14  17
ENDBRANCH   6  11
ENDBRANCH   2   5
BRANCH   1  19
HETATM   19  C   UNL     1      41.758 -16.822   3.358  1.00  0.00     0.050 A 
HETATM   20  C   UNL     1      40.980 -15.973   2.435  1.00  0.00     0.006 A 
HETATM   21  C   UNL     1      39.686 -15.513   2.711  1.00  0.00     0.015 A 
HETATM   22  C   UNL     1      41.545 -15.655   1.190  1.00  0.00     0.046 A 
HETATM   23  C   UNL     1      38.990 -14.736   1.780  1.00  0.00     0.001 A 
HETATM   24  C   UNL     1      39.575 -14.414   0.557  1.00  0.00     0.002 A 
HETATM   25  C   UNL     1      40.855 -14.876   0.258  1.00  0.00     0.030 A 
HETATM   26  N   UNL     1      42.811 -16.153   0.857  1.00  0.00    -0.323 N 
HETATM   27  C   UNL     1      43.533 -16.982   1.668  1.00  0.00     0.246 A 
HETATM   28  H   UNL     1      43.230 -15.932  -0.035  1.00  0.00     0.169 HD
HETATM   29  O   UNL     1      44.641 -17.399   1.347  1.00  0.00    -0.268 OA
HETATM   30  C   UNL     1      42.928 -17.348   2.962  1.00  0.00     0.092 A 
ENDBRANCH   1  19
TORSDOF 4
ENDMDL
