MODEL 1
REMARK VINA RESULT:      -8.5      0.000      0.000
REMARK  5 active torsions:
REMARK  status: ('A' for Active; 'I' for Inactive)
REMARK    1  A    between atoms: C_3  and  N_4 
REMARK       I    between atoms: N_4  and  C_5 
REMARK       I    between atoms: C_5  and  N_6 
REMARK    2  A    between atoms: N_6  and  N_7 
REMARK    3  A    between atoms: N_7  and  C_8 
REMARK    4  A    between atoms: N_7  and  C_14 
REMARK    5  A    between atoms: C_14  and  C_15 
ROOT
HETATM    1  N   UNL     1      42.927 -17.315   2.393  1.00  0.00    -0.284 N 
ENDROOT
BRANCH   1   2
HETATM    2  N   UNL     1      41.913 -17.235   1.412  1.00  0.00    -0.249 N 
HETATM    3  C   UNL     1      41.839 -16.096   0.611  1.00  0.00     0.339 C 
HETATM    4  N   UNL     1      40.960 -16.294  -0.442  1.00  0.00    -0.306 N 
HETATM    5  O   UNL     1      42.491 -15.079   0.813  1.00  0.00    -0.245 OA
HETATM    6  H   UNL     1      40.905 -17.257  -0.739  1.00  0.00     0.171 HD
HETATM    7  H   UNL     1      41.589 -18.132   1.078  1.00  0.00     0.192 HD
BRANCH   4   8
HETATM    8  C   UNL     1      40.616 -15.333  -1.423  1.00  0.00     0.059 A 
HETATM    9  C   UNL     1      39.768 -14.231  -1.237  1.00  0.00    -0.032 A 
HETATM   10  C   UNL     1      39.007 -13.939   0.025  1.00  0.00     0.050 C 
HETATM   11  C   UNL     1      39.584 -13.346  -2.315  1.00  0.00     0.028 A 
HETATM   12  C   UNL     1      40.181 -13.616  -3.535  1.00  0.00     0.117 A 
HETATM   13  N   UNL     1      40.940 -14.703  -3.766  1.00  0.00    -0.271 NA
HETATM   14  C   UNL     1      41.132 -15.528  -2.709  1.00  0.00     0.146 A 
ENDBRANCH   4   8
ENDBRANCH   1   2
BRANCH   1  15
HETATM   15  C   UNL     1      42.530 -17.078   3.717  1.00  0.00     0.051 A 
HETATM   16  C   UNL     1      43.271 -16.233   4.566  1.00  0.00     0.031 A 
HETATM   17  C   UNL     1      42.880 -15.979   5.886  1.00  0.00     0.002 A 
HETATM   18  C   UNL     1      41.734 -16.571   6.401  1.00  0.00     0.000 A 
HETATM   19  C   UNL     1      40.987 -17.423   5.597  1.00  0.00     0.002 A 
HETATM   20  C   UNL     1      41.385 -17.673   4.278  1.00  0.00     0.031 A 
ENDBRANCH   1  15
BRANCH   1  21
HETATM   21  C   UNL     1      44.144 -18.053   2.017  1.00  0.00     0.187 C 
BRANCH  21  22
HETATM   22  C   UNL     1      44.210 -19.482   2.535  1.00  0.00    -0.038 A 
HETATM   23  C   UNL     1      44.724 -19.830   3.794  1.00  0.00     0.009 A 
HETATM   24  C   UNL     1      44.797 -21.166   4.195  1.00  0.00     0.001 A 
HETATM   25  C   UNL     1      44.371 -22.178   3.340  1.00  0.00     0.000 A 
HETATM   26  C   UNL     1      43.871 -21.855   2.081  1.00  0.00     0.001 A 
HETATM   27  C   UNL     1      43.793 -20.519   1.681  1.00  0.00     0.009 A 
ENDBRANCH  21  22
ENDBRANCH   1  21
TORSDOF 5
ENDMDL
MODEL 2
REMARK VINA RESULT:      -8.1      1.640      2.198
REMARK  5 active torsions:
REMARK  status: ('A' for Active; 'I' for Inactive)
REMARK    1  A    between atoms: C_3  and  N_4 
REMARK       I    between atoms: N_4  and  C_5 
REMARK       I    between atoms: C_5  and  N_6 
REMARK    2  A    between atoms: N_6  and  N_7 
REMARK    3  A    between atoms: N_7  and  C_8 
REMARK    4  A    between atoms: N_7  and  C_14 
REMARK    5  A    between atoms: C_14  and  C_15 
ROOT
HETATM    1  N   UNL     1      42.908 -17.254   3.391  1.00  0.00    -0.284 N 
ENDROOT
BRANCH   1   2
HETATM    2  N   UNL     1      41.656 -17.117   2.749  1.00  0.00    -0.249 N 
HETATM    3  C   UNL     1      41.297 -15.872   2.234  1.00  0.00     0.339 C 
HETATM    4  N   UNL     1      40.170 -15.980   1.434  1.00  0.00    -0.306 N 
HETATM    5  O   UNL     1      41.920 -14.841   2.451  1.00  0.00    -0.245 OA
HETATM    6  H   UNL     1      40.088 -16.878   0.980  1.00  0.00     0.171 HD
HETATM    7  H   UNL     1      41.302 -17.973   2.344  1.00  0.00     0.192 HD
BRANCH   4   8
HETATM    8  C   UNL     1      39.510 -14.908   0.786  1.00  0.00     0.059 A 
HETATM    9  C   UNL     1      39.914 -14.290  -0.406  1.00  0.00    -0.032 A 
HETATM   10  C   UNL     1      41.179 -14.610  -1.151  1.00  0.00     0.050 C 
HETATM   11  C   UNL     1      39.101 -13.271  -0.935  1.00  0.00     0.028 A 
HETATM   12  C   UNL     1      37.973 -12.863  -0.241  1.00  0.00     0.117 A 
HETATM   13  N   UNL     1      37.599 -13.385   0.941  1.00  0.00    -0.271 NA
HETATM   14  C   UNL     1      38.376 -14.386   1.420  1.00  0.00     0.146 A 
ENDBRANCH   4   8
ENDBRANCH   1   2
BRANCH   1  15
HETATM   15  C   UNL     1      42.898 -17.177   4.792  1.00  0.00     0.051 A 
HETATM   16  C   UNL     1      44.063 -16.861   5.517  1.00  0.00     0.031 A 
HETATM   17  C   UNL     1      44.066 -16.770   6.914  1.00  0.00     0.002 A 
HETATM   18  C   UNL     1      42.898 -17.001   7.631  1.00  0.00     0.000 A 
HETATM   19  C   UNL     1      41.734 -17.330   6.949  1.00  0.00     0.002 A 
HETATM   20  C   UNL     1      41.739 -17.420   5.551  1.00  0.00     0.031 A 
ENDBRANCH   1  15
BRANCH   1  21
HETATM   21  C   UNL     1      43.978 -17.892   2.608  1.00  0.00     0.187 C 
BRANCH  21  22
HETATM   22  C   UNL     1      44.087 -19.399   2.783  1.00  0.00    -0.038 A 
HETATM   23  C   UNL     1      44.701 -20.011   3.888  1.00  0.00     0.009 A 
HETATM   24  C   UNL     1      44.807 -21.401   3.971  1.00  0.00     0.001 A 
HETATM   25  C   UNL     1      44.315 -22.203   2.945  1.00  0.00     0.000 A 
HETATM   26  C   UNL     1      43.715 -21.616   1.835  1.00  0.00     0.001 A 
HETATM   27  C   UNL     1      43.604 -20.226   1.753  1.00  0.00     0.009 A 
ENDBRANCH  21  22
ENDBRANCH   1  21
TORSDOF 5
ENDMDL
MODEL 3
REMARK VINA RESULT:      -8.0      1.000      1.519
REMARK  5 active torsions:
REMARK  status: ('A' for Active; 'I' for Inactive)
REMARK    1  A    between atoms: C_3  and  N_4 
REMARK       I    between atoms: N_4  and  C_5 
REMARK       I    between atoms: C_5  and  N_6 
REMARK    2  A    between atoms: N_6  and  N_7 
REMARK    3  A    between atoms: N_7  and  C_8 
REMARK    4  A    between atoms: N_7  and  C_14 
REMARK    5  A    between atoms: C_14  and  C_15 
ROOT
HETATM    1  N   UNL     1      42.764 -17.066   2.586  1.00  0.00    -0.284 N 
ENDROOT
BRANCH   1   2
HETATM    2  N   UNL     1      41.673 -16.869   1.711  1.00  0.00    -0.249 N 
HETATM    3  C   UNL     1      41.543 -15.642   1.061  1.00  0.00     0.339 C 
HETATM    4  N   UNL     1      40.577 -15.713   0.069  1.00  0.00    -0.306 N 
HETATM    5  O   UNL     1      42.219 -14.657   1.328  1.00  0.00    -0.245 OA
HETATM    6  H   UNL     1      40.489 -16.634  -0.336  1.00  0.00     0.171 HD
HETATM    7  H   UNL     1      41.313 -17.720   1.299  1.00  0.00     0.192 HD
BRANCH   4   8
HETATM    8  C   UNL     1      40.162 -14.642  -0.758  1.00  0.00     0.059 A 
HETATM    9  C   UNL     1      40.358 -14.543  -2.143  1.00  0.00    -0.032 A 
HETATM   10  C   UNL     1      41.131 -15.530  -2.971  1.00  0.00     0.050 C 
HETATM   11  C   UNL     1      39.825 -13.426  -2.811  1.00  0.00     0.028 A 
HETATM   12  C   UNL     1      39.187 -12.432  -2.087  1.00  0.00     0.117 A 
HETATM   13  N   UNL     1      39.047 -12.462  -0.750  1.00  0.00    -0.271 NA
HETATM   14  C   UNL     1      39.538 -13.559  -0.126  1.00  0.00     0.146 A 
ENDBRANCH   4   8
ENDBRANCH   1   2
BRANCH   1  15
HETATM   15  C   UNL     1      42.484 -16.968   3.958  1.00  0.00     0.051 A 
HETATM   16  C   UNL     1      43.387 -16.358   4.850  1.00  0.00     0.031 A 
HETATM   17  C   UNL     1      43.116 -16.244   6.218  1.00  0.00     0.002 A 
HETATM   18  C   UNL     1      41.931 -16.747   6.740  1.00  0.00     0.000 A 
HETATM   19  C   UNL     1      41.024 -17.371   5.891  1.00  0.00     0.002 A 
HETATM   20  C   UNL     1      41.303 -17.481   4.523  1.00  0.00     0.031 A 
ENDBRANCH   1  15
BRANCH   1  21
HETATM   21  C   UNL     1      43.930 -17.772   2.031  1.00  0.00     0.187 C 
BRANCH  21  22
HETATM   22  C   UNL     1      44.064 -19.223   2.467  1.00  0.00    -0.038 A 
HETATM   23  C   UNL     1      44.681 -19.621   3.664  1.00  0.00     0.009 A 
HETATM   24  C   UNL     1      44.812 -20.973   3.989  1.00  0.00     0.001 A 
HETATM   25  C   UNL     1      44.343 -21.951   3.117  1.00  0.00     0.000 A 
HETATM   26  C   UNL     1      43.742 -21.578   1.918  1.00  0.00     0.001 A 
HETATM   27  C   UNL     1      43.605 -20.226   1.595  1.00  0.00     0.009 A 
ENDBRANCH  21  22
ENDBRANCH   1  21
TORSDOF 5
ENDMDL
MODEL 4
REMARK VINA RESULT:      -7.9      1.233      4.110
REMARK  5 active torsions:
REMARK  status: ('A' for Active; 'I' for Inactive)
REMARK    1  A    between atoms: C_3  and  N_4 
REMARK       I    between atoms: N_4  and  C_5 
REMARK       I    between atoms: C_5  and  N_6 
REMARK    2  A    between atoms: N_6  and  N_7 
REMARK    3  A    between atoms: N_7  and  C_8 
REMARK    4  A    between atoms: N_7  and  C_14 
REMARK    5  A    between atoms: C_14  and  C_15 
ROOT
HETATM    1  N   UNL     1      42.455 -17.750   2.868  1.00  0.00    -0.284 N 
ENDROOT
BRANCH   1   2
HETATM    2  N   UNL     1      42.656 -16.877   1.776  1.00  0.00    -0.249 N 
HETATM    3  C   UNL     1      41.613 -16.677   0.873  1.00  0.00     0.339 C 
HETATM    4  N   UNL     1      41.897 -15.618   0.025  1.00  0.00    -0.306 N 
HETATM    5  O   UNL     1      40.584 -17.340   0.865  1.00  0.00    -0.245 OA
HETATM    6  H   UNL     1      42.485 -14.915   0.447  1.00  0.00     0.171 HD
HETATM    7  H   UNL     1      43.351 -16.161   1.940  1.00  0.00     0.192 HD
BRANCH   4   8
HETATM    8  C   UNL     1      41.076 -15.167  -1.037  1.00  0.00     0.059 A 
HETATM    9  C   UNL     1      40.022 -14.247  -0.932  1.00  0.00    -0.032 A 
HETATM   10  C   UNL     1      39.529 -13.652   0.356  1.00  0.00     0.050 C 
HETATM   11  C   UNL     1      39.348 -13.872  -2.109  1.00  0.00     0.028 A 
HETATM   12  C   UNL     1      39.692 -14.461  -3.314  1.00  0.00     0.117 A 
HETATM   13  N   UNL     1      40.648 -15.400  -3.436  1.00  0.00    -0.271 NA
HETATM   14  C   UNL     1      41.308 -15.726  -2.299  1.00  0.00     0.146 A 
ENDBRANCH   4   8
ENDBRANCH   1   2
BRANCH   1  15
HETATM   15  C   UNL     1      43.195 -18.942   2.855  1.00  0.00     0.051 A 
HETATM   16  C   UNL     1      44.177 -19.207   3.828  1.00  0.00     0.031 A 
HETATM   17  C   UNL     1      44.916 -20.396   3.834  1.00  0.00     0.002 A 
HETATM   18  C   UNL     1      44.698 -21.357   2.854  1.00  0.00     0.000 A 
HETATM   19  C   UNL     1      43.749 -21.122   1.868  1.00  0.00     0.002 A 
HETATM   20  C   UNL     1      43.014 -19.929   1.870  1.00  0.00     0.031 A 
ENDBRANCH   1  15
BRANCH   1  21
HETATM   21  C   UNL     1      41.871 -17.156   4.082  1.00  0.00     0.187 C 
BRANCH  21  22
HETATM   22  C   UNL     1      42.749 -16.124   4.773  1.00  0.00    -0.038 A 
HETATM   23  C   UNL     1      43.463 -16.378   5.955  1.00  0.00     0.009 A 
HETATM   24  C   UNL     1      44.219 -15.375   6.567  1.00  0.00     0.001 A 
HETATM   25  C   UNL     1      44.262 -14.097   6.016  1.00  0.00     0.000 A 
HETATM   26  C   UNL     1      43.550 -13.821   4.852  1.00  0.00     0.001 A 
HETATM   27  C   UNL     1      42.798 -14.824   4.238  1.00  0.00     0.009 A 
ENDBRANCH  21  22
ENDBRANCH   1  21
TORSDOF 5
ENDMDL
MODEL 5
REMARK VINA RESULT:      -7.9      1.295      4.319
REMARK  5 active torsions:
REMARK  status: ('A' for Active; 'I' for Inactive)
REMARK    1  A    between atoms: C_3  and  N_4 
REMARK       I    between atoms: N_4  and  C_5 
REMARK       I    between atoms: C_5  and  N_6 
REMARK    2  A    between atoms: N_6  and  N_7 
REMARK    3  A    between atoms: N_7  and  C_8 
REMARK    4  A    between atoms: N_7  and  C_14 
REMARK    5  A    between atoms: C_14  and  C_15 
ROOT
HETATM    1  N   UNL     1      43.568 -17.965   3.044  1.00  0.00    -0.284 N 
ENDROOT
BRANCH   1   2
HETATM    2  N   UNL     1      43.494 -17.219   1.847  1.00  0.00    -0.249 N 
HETATM    3  C   UNL     1      42.246 -16.794   1.393  1.00  0.00     0.339 C 
HETATM    4  N   UNL     1      42.386 -15.880   0.361  1.00  0.00    -0.306 N 
HETATM    5  O   UNL     1      41.184 -17.170   1.873  1.00  0.00    -0.245 OA
HETATM    6  H   UNL     1      43.233 -15.335   0.422  1.00  0.00     0.171 HD
HETATM    7  H   UNL     1      44.334 -16.700   1.630  1.00  0.00     0.192 HD
BRANCH   4   8
HETATM    8  C   UNL     1      41.325 -15.277  -0.358  1.00  0.00     0.059 A 
HETATM    9  C   UNL     1      40.448 -14.299   0.131  1.00  0.00    -0.032 A 
HETATM   10  C   UNL     1      40.434 -13.789   1.544  1.00  0.00     0.050 C 
HETATM   11  C   UNL     1      39.484 -13.772  -0.748  1.00  0.00     0.028 A 
HETATM   12  C   UNL     1      39.382 -14.272  -2.036  1.00  0.00     0.117 A 
HETATM   13  N   UNL     1      40.160 -15.261  -2.512  1.00  0.00    -0.271 NA
HETATM   14  C   UNL     1      41.103 -15.735  -1.663  1.00  0.00     0.146 A 
ENDBRANCH   4   8
ENDBRANCH   1   2
BRANCH   1  15
HETATM   15  C   UNL     1      43.823 -19.337   2.906  1.00  0.00     0.051 A 
HETATM   16  C   UNL     1      44.544 -20.052   3.881  1.00  0.00     0.031 A 
HETATM   17  C   UNL     1      44.797 -21.424   3.761  1.00  0.00     0.002 A 
HETATM   18  C   UNL     1      44.339 -22.123   2.651  1.00  0.00     0.000 A 
HETATM   19  C   UNL     1      43.637 -21.447   1.661  1.00  0.00     0.002 A 
HETATM   20  C   UNL     1      43.389 -20.074   1.788  1.00  0.00     0.031 A 
ENDBRANCH   1  15
BRANCH   1  21
HETATM   21  C   UNL     1      43.817 -17.200   4.277  1.00  0.00     0.187 C 
BRANCH  21  22
HETATM   22  C   UNL     1      42.592 -16.513   4.861  1.00  0.00    -0.038 A 
HETATM   23  C   UNL     1      42.335 -15.139   4.729  1.00  0.00     0.009 A 
HETATM   24  C   UNL     1      41.213 -14.558   5.325  1.00  0.00     0.001 A 
HETATM   25  C   UNL     1      40.337 -15.338   6.076  1.00  0.00     0.000 A 
HETATM   26  C   UNL     1      40.582 -16.699   6.231  1.00  0.00     0.001 A 
HETATM   27  C   UNL     1      41.701 -17.281   5.631  1.00  0.00     0.009 A 
ENDBRANCH  21  22
ENDBRANCH   1  21
TORSDOF 5
ENDMDL
MODEL 6
REMARK VINA RESULT:      -7.8      1.247      1.873
REMARK  5 active torsions:
REMARK  status: ('A' for Active; 'I' for Inactive)
REMARK    1  A    between atoms: C_3  and  N_4 
REMARK       I    between atoms: N_4  and  C_5 
REMARK       I    between atoms: C_5  and  N_6 
REMARK    2  A    between atoms: N_6  and  N_7 
REMARK    3  A    between atoms: N_7  and  C_8 
REMARK    4  A    between atoms: N_7  and  C_14 
REMARK    5  A    between atoms: C_14  and  C_15 
ROOT
HETATM    1  N   UNL     1      42.958 -16.937   2.564  1.00  0.00    -0.284 N 
ENDROOT
BRANCH   1   2
HETATM    2  N   UNL     1      42.974 -16.471   1.230  1.00  0.00    -0.249 N 
HETATM    3  C   UNL     1      41.762 -16.217   0.591  1.00  0.00     0.339 C 
HETATM    4  N   UNL     1      41.969 -15.541  -0.601  1.00  0.00    -0.306 N 
HETATM    5  O   UNL     1      40.671 -16.534   1.049  1.00  0.00    -0.245 OA
HETATM    6  H   UNL     1      42.790 -14.953  -0.589  1.00  0.00     0.171 HD
HETATM    7  H   UNL     1      43.815 -15.969   0.977  1.00  0.00     0.192 HD
BRANCH   4   8
HETATM    8  C   UNL     1      40.963 -15.161  -1.522  1.00  0.00     0.059 A 
HETATM    9  C   UNL     1      40.032 -14.127  -1.347  1.00  0.00    -0.032 A 
HETATM   10  C   UNL     1      39.891 -13.302  -0.098  1.00  0.00     0.050 C 
HETATM   11  C   UNL     1      39.136 -13.854  -2.397  1.00  0.00     0.028 A 
HETATM   12  C   UNL     1      39.151 -14.645  -3.534  1.00  0.00     0.117 A 
HETATM   13  N   UNL     1      39.982 -15.689  -3.702  1.00  0.00    -0.271 NA
HETATM   14  C   UNL     1      40.858 -15.918  -2.695  1.00  0.00     0.146 A 
ENDBRANCH   4   8
ENDBRANCH   1   2
BRANCH   1  15
HETATM   15  C   UNL     1      43.194 -15.977   3.560  1.00  0.00     0.051 A 
HETATM   16  C   UNL     1      43.410 -14.624   3.238  1.00  0.00     0.031 A 
HETATM   17  C   UNL     1      43.636 -13.653   4.221  1.00  0.00     0.002 A 
HETATM   18  C   UNL     1      43.660 -14.012   5.564  1.00  0.00     0.000 A 
HETATM   19  C   UNL     1      43.467 -15.342   5.916  1.00  0.00     0.002 A 
HETATM   20  C   UNL     1      43.243 -16.307   4.927  1.00  0.00     0.031 A 
ENDBRANCH   1  15
BRANCH   1  21
HETATM   21  C   UNL     1      42.276 -18.220   2.801  1.00  0.00     0.187 C 
BRANCH  21  22
HETATM   22  C   UNL     1      43.183 -19.440   2.771  1.00  0.00    -0.038 A 
HETATM   23  C   UNL     1      43.144 -20.413   1.759  1.00  0.00     0.009 A 
HETATM   24  C   UNL     1      43.974 -21.536   1.811  1.00  0.00     0.001 A 
HETATM   25  C   UNL     1      44.847 -21.712   2.881  1.00  0.00     0.000 A 
HETATM   26  C   UNL     1      44.891 -20.766   3.901  1.00  0.00     0.001 A 
HETATM   27  C   UNL     1      44.065 -19.641   3.848  1.00  0.00     0.009 A 
ENDBRANCH  21  22
ENDBRANCH   1  21
TORSDOF 5
ENDMDL
MODEL 7
REMARK VINA RESULT:      -7.8      1.634      2.429
REMARK  5 active torsions:
REMARK  status: ('A' for Active; 'I' for Inactive)
REMARK    1  A    between atoms: C_3  and  N_4 
REMARK       I    between atoms: N_4  and  C_5 
REMARK       I    between atoms: C_5  and  N_6 
REMARK    2  A    between atoms: N_6  and  N_7 
REMARK    3  A    between atoms: N_7  and  C_8 
REMARK    4  A    between atoms: N_7  and  C_14 
REMARK    5  A    between atoms: C_14  and  C_15 
ROOT
HETATM    1  N   UNL     1      42.582 -16.634   2.043  1.00  0.00    -0.284 N 
ENDROOT
BRANCH   1   2
HETATM    2  N   UNL     1      42.661 -16.115   0.732  1.00  0.00    -0.249 N 
HETATM    3  C   UNL     1      41.555 -15.451   0.203  1.00  0.00     0.339 C 
HETATM    4  N   UNL     1      41.892 -14.801  -0.975  1.00  0.00    -0.306 N 
HETATM    5  O   UNL     1      40.453 -15.434   0.735  1.00  0.00    -0.245 OA
HETATM    6  H   UNL     1      42.857 -14.506  -1.006  1.00  0.00     0.171 HD
HETATM    7  H   UNL     1      43.600 -15.891   0.431  1.00  0.00     0.192 HD
BRANCH   4   8
HETATM    8  C   UNL     1      41.003 -14.065  -1.796  1.00  0.00     0.059 A 
HETATM    9  C   UNL     1      40.187 -14.591  -2.807  1.00  0.00    -0.032 A 
HETATM   10  C   UNL     1      40.189 -16.026  -3.251  1.00  0.00     0.050 C 
HETATM   11  C   UNL     1      39.322 -13.713  -3.486  1.00  0.00     0.028 A 
HETATM   12  C   UNL     1      39.345 -12.361  -3.190  1.00  0.00     0.117 A 
HETATM   13  N   UNL     1      40.169 -11.814  -2.277  1.00  0.00    -0.271 NA
HETATM   14  C   UNL     1      40.972 -12.678  -1.611  1.00  0.00     0.146 A 
ENDBRANCH   4   8
ENDBRANCH   1   2
BRANCH   1  15
HETATM   15  C   UNL     1      42.596 -15.694   3.085  1.00  0.00     0.051 A 
HETATM   16  C   UNL     1      41.627 -15.715   4.106  1.00  0.00     0.031 A 
HETATM   17  C   UNL     1      41.635 -14.790   5.157  1.00  0.00     0.002 A 
HETATM   18  C   UNL     1      42.615 -13.806   5.213  1.00  0.00     0.000 A 
HETATM   19  C   UNL     1      43.578 -13.746   4.213  1.00  0.00     0.002 A 
HETATM   20  C   UNL     1      43.562 -14.675   3.165  1.00  0.00     0.031 A 
ENDBRANCH   1  15
BRANCH   1  21
HETATM   21  C   UNL     1      42.054 -18.002   2.175  1.00  0.00     0.187 C 
BRANCH  21  22
HETATM   22  C   UNL     1      43.063 -19.031   2.664  1.00  0.00    -0.038 A 
HETATM   23  C   UNL     1      43.468 -20.142   1.908  1.00  0.00     0.009 A 
HETATM   24  C   UNL     1      44.366 -21.076   2.430  1.00  0.00     0.001 A 
HETATM   25  C   UNL     1      44.863 -20.923   3.721  1.00  0.00     0.000 A 
HETATM   26  C   UNL     1      44.463 -19.836   4.492  1.00  0.00     0.001 A 
HETATM   27  C   UNL     1      43.569 -18.899   3.969  1.00  0.00     0.009 A 
ENDBRANCH  21  22
ENDBRANCH   1  21
TORSDOF 5
ENDMDL
MODEL 8
REMARK VINA RESULT:      -7.7      1.733      4.684
REMARK  5 active torsions:
REMARK  status: ('A' for Active; 'I' for Inactive)
REMARK    1  A    between atoms: C_3  and  N_4 
REMARK       I    between atoms: N_4  and  C_5 
REMARK       I    between atoms: C_5  and  N_6 
REMARK    2  A    between atoms: N_6  and  N_7 
REMARK    3  A    between atoms: N_7  and  C_8 
REMARK    4  A    between atoms: N_7  and  C_14 
REMARK    5  A    between atoms: C_14  and  C_15 
ROOT
HETATM    1  N   UNL     1      42.281 -17.591   3.630  1.00  0.00    -0.284 N 
ENDROOT
BRANCH   1   2
HETATM    2  N   UNL     1      42.248 -16.576   2.647  1.00  0.00    -0.249 N 
HETATM    3  C   UNL     1      41.041 -16.298   2.007  1.00  0.00     0.339 C 
HETATM    4  N   UNL     1      41.137 -15.127   1.270  1.00  0.00    -0.306 N 
HETATM    5  O   UNL     1      40.038 -16.991   2.115  1.00  0.00    -0.245 OA
HETATM    6  H   UNL     1      41.792 -14.465   1.658  1.00  0.00     0.171 HD
HETATM    7  H   UNL     1      42.955 -15.863   2.764  1.00  0.00     0.192 HD
BRANCH   4   8
HETATM    8  C   UNL     1      40.113 -14.572   0.465  1.00  0.00     0.059 A 
HETATM    9  C   UNL     1      40.082 -14.555  -0.937  1.00  0.00    -0.032 A 
HETATM   10  C   UNL     1      41.189 -15.051  -1.824  1.00  0.00     0.050 C 
HETATM   11  C   UNL     1      38.952 -14.006  -1.570  1.00  0.00     0.028 A 
HETATM   12  C   UNL     1      37.943 -13.444  -0.807  1.00  0.00     0.117 A 
HETATM   13  N   UNL     1      37.976 -13.378   0.536  1.00  0.00    -0.271 NA
HETATM   14  C   UNL     1      39.056 -13.939   1.131  1.00  0.00     0.146 A 
ENDBRANCH   4   8
ENDBRANCH   1   2
BRANCH   1  15
HETATM   15  C   UNL     1      43.052 -18.723   3.326  1.00  0.00     0.051 A 
HETATM   16  C   UNL     1      42.900 -19.410   2.107  1.00  0.00     0.031 A 
HETATM   17  C   UNL     1      43.670 -20.534   1.787  1.00  0.00     0.002 A 
HETATM   18  C   UNL     1      44.616 -21.012   2.686  1.00  0.00     0.000 A 
HETATM   19  C   UNL     1      44.782 -20.368   3.906  1.00  0.00     0.002 A 
HETATM   20  C   UNL     1      44.007 -19.245   4.219  1.00  0.00     0.031 A 
ENDBRANCH   1  15
BRANCH   1  21
HETATM   21  C   UNL     1      41.903 -17.193   4.995  1.00  0.00     0.187 C 
BRANCH  21  22
HETATM   22  C   UNL     1      42.737 -16.067   5.586  1.00  0.00    -0.038 A 
HETATM   23  C   UNL     1      43.885 -16.277   6.366  1.00  0.00     0.009 A 
HETATM   24  C   UNL     1      44.585 -15.201   6.917  1.00  0.00     0.001 A 
HETATM   25  C   UNL     1      44.142 -13.898   6.710  1.00  0.00     0.000 A 
HETATM   26  C   UNL     1      42.998 -13.669   5.951  1.00  0.00     0.001 A 
HETATM   27  C   UNL     1      42.300 -14.743   5.396  1.00  0.00     0.009 A 
ENDBRANCH  21  22
ENDBRANCH   1  21
TORSDOF 5
ENDMDL
MODEL 9
REMARK VINA RESULT:      -7.4      1.669      2.454
REMARK  5 active torsions:
REMARK  status: ('A' for Active; 'I' for Inactive)
REMARK    1  A    between atoms: C_3  and  N_4 
REMARK       I    between atoms: N_4  and  C_5 
REMARK       I    between atoms: C_5  and  N_6 
REMARK    2  A    between atoms: N_6  and  N_7 
REMARK    3  A    between atoms: N_7  and  C_8 
REMARK    4  A    between atoms: N_7  and  C_14 
REMARK    5  A    between atoms: C_14  and  C_15 
ROOT
HETATM    1  N   UNL     1      41.396 -16.155   3.555  1.00  0.00    -0.284 N 
ENDROOT
BRANCH   1   2
HETATM    2  N   UNL     1      40.574 -15.774   2.470  1.00  0.00    -0.249 N 
HETATM    3  C   UNL     1      41.173 -15.270   1.317  1.00  0.00     0.339 C 
HETATM    4  N   UNL     1      40.253 -15.186   0.284  1.00  0.00    -0.306 N 
HETATM    5  O   UNL     1      42.359 -14.973   1.240  1.00  0.00    -0.245 OA
HETATM    6  H   UNL     1      39.524 -15.882   0.342  1.00  0.00     0.171 HD
HETATM    7  H   UNL     1      39.688 -16.259   2.431  1.00  0.00     0.192 HD
BRANCH   4   8
HETATM    8  C   UNL     1      40.510 -14.681  -1.014  1.00  0.00     0.059 A 
HETATM    9  C   UNL     1      40.340 -13.354  -1.432  1.00  0.00    -0.032 A 
HETATM   10  C   UNL     1      39.763 -12.256  -0.583  1.00  0.00     0.050 C 
HETATM   11  C   UNL     1      40.701 -13.020  -2.750  1.00  0.00     0.028 A 
HETATM   12  C   UNL     1      41.147 -14.010  -3.610  1.00  0.00     0.117 A 
HETATM   13  N   UNL     1      41.251 -15.305  -3.262  1.00  0.00    -0.271 NA
HETATM   14  C   UNL     1      40.929 -15.603  -1.981  1.00  0.00     0.146 A 
ENDBRANCH   4   8
ENDBRANCH   1   2
BRANCH   1  15
HETATM   15  C   UNL     1      41.847 -15.118   4.386  1.00  0.00     0.051 A 
HETATM   16  C   UNL     1      40.965 -14.141   4.886  1.00  0.00     0.031 A 
HETATM   17  C   UNL     1      41.399 -13.108   5.724  1.00  0.00     0.002 A 
HETATM   18  C   UNL     1      42.738 -13.015   6.082  1.00  0.00     0.000 A 
HETATM   19  C   UNL     1      43.640 -13.952   5.594  1.00  0.00     0.002 A 
HETATM   20  C   UNL     1      43.198 -14.983   4.756  1.00  0.00     0.031 A 
ENDBRANCH   1  15
BRANCH   1  21
HETATM   21  C   UNL     1      41.328 -17.567   3.963  1.00  0.00     0.187 C 
BRANCH  21  22
HETATM   22  C   UNL     1      42.505 -18.419   3.513  1.00  0.00    -0.038 A 
HETATM   23  C   UNL     1      42.687 -18.856   2.191  1.00  0.00     0.009 A 
HETATM   24  C   UNL     1      43.767 -19.673   1.848  1.00  0.00     0.001 A 
HETATM   25  C   UNL     1      44.675 -20.079   2.822  1.00  0.00     0.000 A 
HETATM   26  C   UNL     1      44.504 -19.668   4.142  1.00  0.00     0.001 A 
HETATM   27  C   UNL     1      43.427 -18.848   4.484  1.00  0.00     0.009 A 
ENDBRANCH  21  22
ENDBRANCH   1  21
TORSDOF 5
ENDMDL
MODEL 10
REMARK VINA RESULT:      -7.3      2.245      4.526
REMARK  5 active torsions:
REMARK  status: ('A' for Active; 'I' for Inactive)
REMARK    1  A    between atoms: C_3  and  N_4 
REMARK       I    between atoms: N_4  and  C_5 
REMARK       I    between atoms: C_5  and  N_6 
REMARK    2  A    between atoms: N_6  and  N_7 
REMARK    3  A    between atoms: N_7  and  C_8 
REMARK    4  A    between atoms: N_7  and  C_14 
REMARK    5  A    between atoms: C_14  and  C_15 
ROOT
HETATM    1  N   UNL     1      40.991 -16.064   3.500  1.00  0.00    -0.284 N 
ENDROOT
BRANCH   1   2
HETATM    2  N   UNL     1      39.826 -15.880   2.720  1.00  0.00    -0.249 N 
HETATM    3  C   UNL     1      39.699 -14.716   1.965  1.00  0.00     0.339 C 
HETATM    4  N   UNL     1      38.632 -14.817   1.085  1.00  0.00    -0.306 N 
HETATM    5  O   UNL     1      40.453 -13.755   2.062  1.00  0.00    -0.245 OA
HETATM    6  H   UNL     1      38.450 -15.764   0.787  1.00  0.00     0.171 HD
HETATM    7  H   UNL     1      39.379 -16.741   2.436  1.00  0.00     0.192 HD
BRANCH   4   8
HETATM    8  C   UNL     1      38.192 -13.805   0.199  1.00  0.00     0.059 A 
HETATM    9  C   UNL     1      38.657 -13.593  -1.108  1.00  0.00    -0.032 A 
HETATM   10  C   UNL     1      39.775 -14.360  -1.754  1.00  0.00     0.050 C 
HETATM   11  C   UNL     1      38.062 -12.567  -1.866  1.00  0.00     0.028 A 
HETATM   12  C   UNL     1      37.094 -11.761  -1.290  1.00  0.00     0.117 A 
HETATM   13  N   UNL     1      36.680 -11.892  -0.017  1.00  0.00    -0.271 NA
HETATM   14  C   UNL     1      37.240 -12.903   0.688  1.00  0.00     0.146 A 
ENDBRANCH   4   8
ENDBRANCH   1   2
BRANCH   1  15
HETATM   15  C   UNL     1      42.017 -16.820   2.913  1.00  0.00     0.051 A 
HETATM   16  C   UNL     1      42.105 -18.212   3.105  1.00  0.00     0.031 A 
HETATM   17  C   UNL     1      43.117 -18.980   2.518  1.00  0.00     0.002 A 
HETATM   18  C   UNL     1      44.081 -18.374   1.722  1.00  0.00     0.000 A 
HETATM   19  C   UNL     1      44.035 -17.000   1.524  1.00  0.00     0.002 A 
HETATM   20  C   UNL     1      43.019 -16.238   2.116  1.00  0.00     0.031 A 
ENDBRANCH   1  15
BRANCH   1  21
HETATM   21  C   UNL     1      41.195 -15.113   4.604  1.00  0.00     0.187 C 
BRANCH  21  22
HETATM   22  C   UNL     1      42.105 -15.613   5.716  1.00  0.00    -0.038 A 
HETATM   23  C   UNL     1      43.369 -15.067   5.991  1.00  0.00     0.009 A 
HETATM   24  C   UNL     1      44.177 -15.598   6.999  1.00  0.00     0.001 A 
HETATM   25  C   UNL     1      43.741 -16.693   7.741  1.00  0.00     0.000 A 
HETATM   26  C   UNL     1      42.497 -17.258   7.475  1.00  0.00     0.001 A 
HETATM   27  C   UNL     1      41.687 -16.724   6.470  1.00  0.00     0.009 A 
ENDBRANCH  21  22
ENDBRANCH   1  21
TORSDOF 5
ENDMDL
