MODEL 1
REMARK VINA RESULT:      -8.5      0.000      0.000
REMARK  8 active torsions:
REMARK  status: ('A' for Active; 'I' for Inactive)
REMARK    1  A    between atoms: C_3  and  S_4 
REMARK    2  A    between atoms: S_4  and  C_5 
REMARK    3  A    between atoms: C_5  and  C_6 
REMARK       I    between atoms: C_6  and  N_7 
REMARK    4  A    between atoms: N_7  and  C_8 
REMARK    5  A    between atoms: C_8  and  C_9 
REMARK    6  A    between atoms: C_17  and  C_18 
REMARK    7  A    between atoms: C_18  and  O_19 
REMARK    8  A    between atoms: O_19  and  C_20 
ROOT
HETATM    1  C   UNL     1      40.689 -16.172   5.641  1.00  0.00     0.160 C 
HETATM    2  N   UNL     1      41.765 -15.242   5.866  1.00  0.00    -0.314 N 
HETATM    3  C   UNL     1      41.824 -13.911   5.561  1.00  0.00     0.191 A 
HETATM    4  N   UNL     1      42.985 -13.424   5.930  1.00  0.00    -0.123 NA
HETATM    5  N   UNL     1      43.701 -14.435   6.514  1.00  0.00    -0.132 NA
HETATM    6  C   UNL     1      42.970 -15.533   6.472  1.00  0.00     0.154 A 
ENDROOT
BRANCH   3   7
HETATM    7  S   UNL     1      40.542 -13.014   4.830  1.00  0.00    -0.081 SA
BRANCH   7   8
HETATM    8  C   UNL     1      41.456 -11.971   3.657  1.00  0.00     0.185 C 
BRANCH   8   9
HETATM    9  C   UNL     1      41.980 -12.798   2.495  1.00  0.00     0.227 C 
HETATM   10  N   UNL     1      41.043 -13.085   1.528  1.00  0.00    -0.354 N 
HETATM   11  H   UNL     1      40.062 -13.019   1.802  1.00  0.00     0.162 HD
HETATM   12  O   UNL     1      43.147 -13.176   2.429  1.00  0.00    -0.273 OA
BRANCH  10  13
HETATM   13  C   UNL     1      41.374 -13.964   0.432  1.00  0.00     0.187 C 
BRANCH  13  14
HETATM   14  C   UNL     1      41.111 -15.370   0.824  1.00  0.00     0.070 A 
HETATM   15  O   UNL     1      40.178 -15.576   1.799  1.00  0.00    -0.325 OA
HETATM   16  C   UNL     1      40.094 -16.917   1.991  1.00  0.00     0.142 A 
HETATM   17  C   UNL     1      40.956 -17.581   1.150  1.00  0.00     0.027 A 
HETATM   18  C   UNL     1      41.611 -16.583   0.392  1.00  0.00     0.036 A 
ENDBRANCH  13  14
ENDBRANCH  10  13
ENDBRANCH   8   9
ENDBRANCH   7   8
ENDBRANCH   3   7
BRANCH   6  19
HETATM   19  C   UNL     1      43.358 -16.865   7.009  1.00  0.00     0.256 C 
BRANCH  19  20
HETATM   20  O   UNL     1      44.547 -17.254   6.323  1.00  0.00    -0.344 OA
BRANCH  20  21
HETATM   21  C   UNL     1      44.389 -18.142   5.295  1.00  0.00     0.070 A 
HETATM   22  C   UNL     1      44.700 -19.503   5.342  1.00  0.00     0.049 A 
HETATM   23  C   UNL     1      44.498 -20.326   4.218  1.00  0.00    -0.023 A 
HETATM   24  C   UNL     1      43.966 -19.767   3.033  1.00  0.00    -0.026 A 
HETATM   25  C   UNL     1      44.813 -21.694   4.246  1.00  0.00     0.012 A 
HETATM   26  C   UNL     1      43.642 -18.403   3.005  1.00  0.00     0.015 A 
HETATM   27  C   UNL     1      43.772 -20.587   1.911  1.00  0.00     0.012 A 
HETATM   28  C   UNL     1      43.847 -17.602   4.130  1.00  0.00     0.037 A 
HETATM   29  C   UNL     1      44.094 -21.944   1.955  1.00  0.00     0.001 A 
HETATM   30  C   UNL     1      44.614 -22.498   3.121  1.00  0.00     0.001 A 
ENDBRANCH  20  21
ENDBRANCH  19  20
ENDBRANCH   6  19
TORSDOF 8
ENDMDL
MODEL 2
REMARK VINA RESULT:      -8.4      3.585      5.819
REMARK  8 active torsions:
REMARK  status: ('A' for Active; 'I' for Inactive)
REMARK    1  A    between atoms: C_3  and  S_4 
REMARK    2  A    between atoms: S_4  and  C_5 
REMARK    3  A    between atoms: C_5  and  C_6 
REMARK       I    between atoms: C_6  and  N_7 
REMARK    4  A    between atoms: N_7  and  C_8 
REMARK    5  A    between atoms: C_8  and  C_9 
REMARK    6  A    between atoms: C_17  and  C_18 
REMARK    7  A    between atoms: C_18  and  O_19 
REMARK    8  A    between atoms: O_19  and  C_20 
ROOT
HETATM    1  C   UNL     1      40.258 -13.897   3.661  1.00  0.00     0.160 C 
HETATM    2  N   UNL     1      41.282 -13.619   4.634  1.00  0.00    -0.314 N 
HETATM    3  C   UNL     1      41.352 -12.593   5.535  1.00  0.00     0.191 A 
HETATM    4  N   UNL     1      42.452 -12.700   6.242  1.00  0.00    -0.123 NA
HETATM    5  N   UNL     1      43.112 -13.825   5.828  1.00  0.00    -0.132 NA
HETATM    6  C   UNL     1      42.412 -14.378   4.856  1.00  0.00     0.154 A 
ENDROOT
BRANCH   3   7
HETATM    7  S   UNL     1      40.148 -11.369   5.723  1.00  0.00    -0.081 SA
BRANCH   7   8
HETATM    8  C   UNL     1      39.495 -11.759   7.374  1.00  0.00     0.185 C 
BRANCH   8   9
HETATM    9  C   UNL     1      40.040 -10.792   8.411  1.00  0.00     0.227 C 
HETATM   10  N   UNL     1      41.364 -10.986   8.737  1.00  0.00    -0.354 N 
HETATM   11  H   UNL     1      41.760 -11.903   8.530  1.00  0.00     0.162 HD
HETATM   12  O   UNL     1      39.349  -9.909   8.915  1.00  0.00    -0.273 OA
BRANCH  10  13
HETATM   13  C   UNL     1      41.973 -10.217   9.796  1.00  0.00     0.187 C 
BRANCH  13  14
HETATM   14  C   UNL     1      43.375 -10.660   9.990  1.00  0.00     0.070 A 
HETATM   15  O   UNL     1      44.046 -11.090   8.882  1.00  0.00    -0.325 OA
HETATM   16  C   UNL     1      45.296 -11.436   9.286  1.00  0.00     0.142 A 
HETATM   17  C   UNL     1      45.443 -11.230  10.637  1.00  0.00     0.027 A 
HETATM   18  C   UNL     1      44.204 -10.724  11.094  1.00  0.00     0.036 A 
ENDBRANCH  13  14
ENDBRANCH  10  13
ENDBRANCH   8   9
ENDBRANCH   7   8
ENDBRANCH   3   7
BRANCH   6  19
HETATM   19  C   UNL     1      42.760 -15.628   4.128  1.00  0.00     0.256 C 
BRANCH  19  20
HETATM   20  O   UNL     1      43.641 -16.365   4.974  1.00  0.00    -0.344 OA
BRANCH  20  21
HETATM   21  C   UNL     1      43.882 -17.662   4.612  1.00  0.00     0.070 A 
HETATM   22  C   UNL     1      43.538 -18.243   3.389  1.00  0.00     0.049 A 
HETATM   23  C   UNL     1      43.833 -19.594   3.126  1.00  0.00    -0.023 A 
HETATM   24  C   UNL     1      44.492 -20.366   4.110  1.00  0.00    -0.026 A 
HETATM   25  C   UNL     1      43.487 -20.194   1.905  1.00  0.00     0.012 A 
HETATM   26  C   UNL     1      44.847 -19.766   5.326  1.00  0.00     0.015 A 
HETATM   27  C   UNL     1      44.780 -21.715   3.849  1.00  0.00     0.012 A 
HETATM   28  C   UNL     1      44.549 -18.424   5.570  1.00  0.00     0.037 A 
HETATM   29  C   UNL     1      44.425 -22.297   2.631  1.00  0.00     0.001 A 
HETATM   30  C   UNL     1      43.779 -21.537   1.660  1.00  0.00     0.001 A 
ENDBRANCH  20  21
ENDBRANCH  19  20
ENDBRANCH   6  19
TORSDOF 8
ENDMDL
MODEL 3
REMARK VINA RESULT:      -8.4      4.686      7.142
REMARK  8 active torsions:
REMARK  status: ('A' for Active; 'I' for Inactive)
REMARK    1  A    between atoms: C_3  and  S_4 
REMARK    2  A    between atoms: S_4  and  C_5 
REMARK    3  A    between atoms: C_5  and  C_6 
REMARK       I    between atoms: C_6  and  N_7 
REMARK    4  A    between atoms: N_7  and  C_8 
REMARK    5  A    between atoms: C_8  and  C_9 
REMARK    6  A    between atoms: C_17  and  C_18 
REMARK    7  A    between atoms: C_18  and  O_19 
REMARK    8  A    between atoms: O_19  and  C_20 
ROOT
HETATM    1  C   UNL     1      44.266 -16.265   6.839  1.00  0.00     0.160 C 
HETATM    2  N   UNL     1      43.819 -15.076   6.161  1.00  0.00    -0.314 N 
HETATM    3  C   UNL     1      44.123 -13.772   6.431  1.00  0.00     0.191 A 
HETATM    4  N   UNL     1      43.508 -12.988   5.577  1.00  0.00    -0.123 NA
HETATM    5  N   UNL     1      42.806 -13.780   4.708  1.00  0.00    -0.132 NA
HETATM    6  C   UNL     1      42.988 -15.038   5.061  1.00  0.00     0.154 A 
ENDROOT
BRANCH   3   7
HETATM    7  S   UNL     1      45.186 -13.252   7.690  1.00  0.00    -0.081 SA
BRANCH   7   8
HETATM    8  C   UNL     1      44.119 -12.102   8.608  1.00  0.00     0.185 C 
BRANCH   8   9
HETATM    9  C   UNL     1      44.265 -12.309  10.106  1.00  0.00     0.227 C 
HETATM   10  N   UNL     1      43.211 -11.836  10.855  1.00  0.00    -0.354 N 
HETATM   11  H   UNL     1      42.614 -11.134  10.419  1.00  0.00     0.162 HD
HETATM   12  O   UNL     1      45.247 -12.855  10.602  1.00  0.00    -0.273 OA
BRANCH  10  13
HETATM   13  C   UNL     1      43.276 -11.859  12.297  1.00  0.00     0.187 C 
BRANCH  13  14
HETATM   14  C   UNL     1      42.649 -10.630  12.843  1.00  0.00     0.070 A 
HETATM   15  O   UNL     1      41.447 -10.261  12.312  1.00  0.00    -0.325 OA
HETATM   16  C   UNL     1      41.059  -9.130  12.956  1.00  0.00     0.142 A 
HETATM   17  C   UNL     1      41.992  -8.766  13.898  1.00  0.00     0.027 A 
HETATM   18  C   UNL     1      43.018  -9.736  13.830  1.00  0.00     0.036 A 
ENDBRANCH  13  14
ENDBRANCH  10  13
ENDBRANCH   8   9
ENDBRANCH   7   8
ENDBRANCH   3   7
BRANCH   6  19
HETATM   19  C   UNL     1      42.416 -16.230   4.378  1.00  0.00     0.256 C 
BRANCH  19  20
HETATM   20  O   UNL     1      43.339 -16.600   3.355  1.00  0.00    -0.344 OA
BRANCH  20  21
HETATM   21  C   UNL     1      43.607 -17.936   3.236  1.00  0.00     0.070 A 
HETATM   22  C   UNL     1      44.046 -18.772   4.266  1.00  0.00     0.049 A 
HETATM   23  C   UNL     1      44.294 -20.137   4.027  1.00  0.00    -0.023 A 
HETATM   24  C   UNL     1      44.087 -20.666   2.733  1.00  0.00    -0.026 A 
HETATM   25  C   UNL     1      44.743 -20.989   5.049  1.00  0.00     0.012 A 
HETATM   26  C   UNL     1      43.629 -19.820   1.713  1.00  0.00     0.015 A 
HETATM   27  C   UNL     1      44.340 -22.026   2.495  1.00  0.00     0.012 A 
HETATM   28  C   UNL     1      43.386 -18.468   1.967  1.00  0.00     0.037 A 
HETATM   29  C   UNL     1      44.791 -22.857   3.521  1.00  0.00     0.001 A 
HETATM   30  C   UNL     1      44.992 -22.340   4.797  1.00  0.00     0.001 A 
ENDBRANCH  20  21
ENDBRANCH  19  20
ENDBRANCH   6  19
TORSDOF 8
ENDMDL
MODEL 4
REMARK VINA RESULT:      -8.4      1.868      4.283
REMARK  8 active torsions:
REMARK  status: ('A' for Active; 'I' for Inactive)
REMARK    1  A    between atoms: C_3  and  S_4 
REMARK    2  A    between atoms: S_4  and  C_5 
REMARK    3  A    between atoms: C_5  and  C_6 
REMARK       I    between atoms: C_6  and  N_7 
REMARK    4  A    between atoms: N_7  and  C_8 
REMARK    5  A    between atoms: C_8  and  C_9 
REMARK    6  A    between atoms: C_17  and  C_18 
REMARK    7  A    between atoms: C_18  and  O_19 
REMARK    8  A    between atoms: O_19  and  C_20 
ROOT
HETATM    1  C   UNL     1      40.703 -14.805  -0.470  1.00  0.00     0.160 C 
HETATM    2  N   UNL     1      40.440 -15.151   0.903  1.00  0.00    -0.314 N 
HETATM    3  C   UNL     1      39.848 -14.397   1.877  1.00  0.00     0.191 A 
HETATM    4  N   UNL     1      39.797 -15.081   2.995  1.00  0.00    -0.123 NA
HETATM    5  N   UNL     1      40.337 -16.317   2.759  1.00  0.00    -0.132 NA
HETATM    6  C   UNL     1      40.730 -16.360   1.501  1.00  0.00     0.154 A 
ENDROOT
BRANCH   3   7
HETATM    7  S   UNL     1      39.233 -12.800   1.644  1.00  0.00    -0.081 SA
BRANCH   7   8
HETATM    8  C   UNL     1      40.495 -11.803   2.491  1.00  0.00     0.185 C 
BRANCH   8   9
HETATM    9  C   UNL     1      41.858 -12.469   2.401  1.00  0.00     0.227 C 
HETATM   10  N   UNL     1      42.241 -13.145   3.537  1.00  0.00    -0.354 N 
HETATM   11  H   UNL     1      41.774 -12.888   4.407  1.00  0.00     0.162 HD
HETATM   12  O   UNL     1      42.557 -12.405   1.393  1.00  0.00    -0.273 OA
BRANCH  10  13
HETATM   13  C   UNL     1      43.562 -13.719   3.631  1.00  0.00     0.187 C 
BRANCH  13  14
HETATM   14  C   UNL     1      43.782 -14.241   5.002  1.00  0.00     0.070 A 
HETATM   15  O   UNL     1      44.797 -13.680   5.723  1.00  0.00    -0.325 OA
HETATM   16  C   UNL     1      44.812 -14.296   6.933  1.00  0.00     0.142 A 
HETATM   17  C   UNL     1      43.819 -15.245   7.005  1.00  0.00     0.027 A 
HETATM   18  C   UNL     1      43.149 -15.208   5.760  1.00  0.00     0.036 A 
ENDBRANCH  13  14
ENDBRANCH  10  13
ENDBRANCH   8   9
ENDBRANCH   7   8
ENDBRANCH   3   7
BRANCH   6  19
HETATM   19  C   UNL     1      41.360 -17.522   0.819  1.00  0.00     0.256 C 
BRANCH  19  20
HETATM   20  O   UNL     1      42.761 -17.439   1.073  1.00  0.00    -0.344 OA
BRANCH  20  21
HETATM   21  C   UNL     1      43.263 -18.325   1.987  1.00  0.00     0.070 A 
HETATM   22  C   UNL     1      43.466 -19.690   1.769  1.00  0.00     0.049 A 
HETATM   23  C   UNL     1      43.989 -20.510   2.786  1.00  0.00    -0.023 A 
HETATM   24  C   UNL     1      44.318 -19.942   4.038  1.00  0.00    -0.026 A 
HETATM   25  C   UNL     1      44.192 -21.885   2.586  1.00  0.00     0.012 A 
HETATM   26  C   UNL     1      44.126 -18.568   4.237  1.00  0.00     0.015 A 
HETATM   27  C   UNL     1      44.833 -20.762   5.054  1.00  0.00     0.012 A 
HETATM   28  C   UNL     1      43.608 -17.768   3.217  1.00  0.00     0.037 A 
HETATM   29  C   UNL     1      45.024 -22.128   4.839  1.00  0.00     0.001 A 
HETATM   30  C   UNL     1      44.705 -22.689   3.606  1.00  0.00     0.001 A 
ENDBRANCH  20  21
ENDBRANCH  19  20
ENDBRANCH   6  19
TORSDOF 8
ENDMDL
MODEL 5
REMARK VINA RESULT:      -8.3      3.566      5.690
REMARK  8 active torsions:
REMARK  status: ('A' for Active; 'I' for Inactive)
REMARK    1  A    between atoms: C_3  and  S_4 
REMARK    2  A    between atoms: S_4  and  C_5 
REMARK    3  A    between atoms: C_5  and  C_6 
REMARK       I    between atoms: C_6  and  N_7 
REMARK    4  A    between atoms: N_7  and  C_8 
REMARK    5  A    between atoms: C_8  and  C_9 
REMARK    6  A    between atoms: C_17  and  C_18 
REMARK    7  A    between atoms: C_18  and  O_19 
REMARK    8  A    between atoms: O_19  and  C_20 
ROOT
HETATM    1  C   UNL     1      40.496 -15.696   6.008  1.00  0.00     0.160 C 
HETATM    2  N   UNL     1      41.362 -14.584   5.715  1.00  0.00    -0.314 N 
HETATM    3  C   UNL     1      41.078 -13.247   5.747  1.00  0.00     0.191 A 
HETATM    4  N   UNL     1      42.145 -12.561   5.411  1.00  0.00    -0.123 NA
HETATM    5  N   UNL     1      43.162 -13.448   5.179  1.00  0.00    -0.132 NA
HETATM    6  C   UNL     1      42.691 -14.667   5.357  1.00  0.00     0.154 A 
ENDROOT
BRANCH   3   7
HETATM    7  S   UNL     1      39.550 -12.578   6.196  1.00  0.00    -0.081 SA
BRANCH   7   8
HETATM    8  C   UNL     1      40.035 -10.917   6.750  1.00  0.00     0.185 C 
BRANCH   8   9
HETATM    9  C   UNL     1      40.258 -10.893   8.252  1.00  0.00     0.227 C 
HETATM   10  N   UNL     1      41.429 -10.285   8.648  1.00  0.00    -0.354 N 
HETATM   11  H   UNL     1      42.166 -10.203   7.947  1.00  0.00     0.162 HD
HETATM   12  O   UNL     1      39.456 -11.379   9.046  1.00  0.00    -0.273 OA
BRANCH  10  13
HETATM   13  C   UNL     1      41.824 -10.302  10.036  1.00  0.00     0.187 C 
BRANCH  13  14
HETATM   14  C   UNL     1      43.246 -10.708  10.145  1.00  0.00     0.070 A 
HETATM   15  O   UNL     1      43.934 -10.870   8.977  1.00  0.00    -0.325 OA
HETATM   16  C   UNL     1      45.201 -11.231   9.308  1.00  0.00     0.142 A 
HETATM   17  C   UNL     1      45.342 -11.301  10.674  1.00  0.00     0.027 A 
HETATM   18  C   UNL     1      44.081 -10.959  11.217  1.00  0.00     0.036 A 
ENDBRANCH  13  14
ENDBRANCH  10  13
ENDBRANCH   8   9
ENDBRANCH   7   8
ENDBRANCH   3   7
BRANCH   6  19
HETATM   19  C   UNL     1      43.463 -15.932   5.221  1.00  0.00     0.256 C 
BRANCH  19  20
HETATM   20  O   UNL     1      43.412 -16.300   3.844  1.00  0.00    -0.344 OA
BRANCH  20  21
HETATM   21  C   UNL     1      43.627 -17.621   3.562  1.00  0.00     0.070 A 
HETATM   22  C   UNL     1      44.068 -18.584   4.471  1.00  0.00     0.049 A 
HETATM   23  C   UNL     1      44.258 -19.920   4.068  1.00  0.00    -0.023 A 
HETATM   24  C   UNL     1      43.991 -20.287   2.730  1.00  0.00    -0.026 A 
HETATM   25  C   UNL     1      44.710 -20.899   4.968  1.00  0.00     0.012 A 
HETATM   26  C   UNL     1      43.532 -19.314   1.831  1.00  0.00     0.015 A 
HETATM   27  C   UNL     1      44.188 -21.617   2.327  1.00  0.00     0.012 A 
HETATM   28  C   UNL     1      43.346 -17.994   2.248  1.00  0.00     0.037 A 
HETATM   29  C   UNL     1      44.641 -22.577   3.234  1.00  0.00     0.001 A 
HETATM   30  C   UNL     1      44.901 -22.218   4.553  1.00  0.00     0.001 A 
ENDBRANCH  20  21
ENDBRANCH  19  20
ENDBRANCH   6  19
TORSDOF 8
ENDMDL
MODEL 6
REMARK VINA RESULT:      -8.2      2.141      2.967
REMARK  8 active torsions:
REMARK  status: ('A' for Active; 'I' for Inactive)
REMARK    1  A    between atoms: C_3  and  S_4 
REMARK    2  A    between atoms: S_4  and  C_5 
REMARK    3  A    between atoms: C_5  and  C_6 
REMARK       I    between atoms: C_6  and  N_7 
REMARK    4  A    between atoms: N_7  and  C_8 
REMARK    5  A    between atoms: C_8  and  C_9 
REMARK    6  A    between atoms: C_17  and  C_18 
REMARK    7  A    between atoms: C_18  and  O_19 
REMARK    8  A    between atoms: O_19  and  C_20 
ROOT
HETATM    1  C   UNL     1      41.031 -13.389   5.546  1.00  0.00     0.160 C 
HETATM    2  N   UNL     1      41.986 -13.447   4.470  1.00  0.00    -0.314 N 
HETATM    3  C   UNL     1      41.896 -12.914   3.215  1.00  0.00     0.191 A 
HETATM    4  N   UNL     1      42.983 -13.193   2.537  1.00  0.00    -0.123 NA
HETATM    5  N   UNL     1      43.823 -13.897   3.357  1.00  0.00    -0.132 NA
HETATM    6  C   UNL     1      43.223 -14.056   4.521  1.00  0.00     0.154 A 
ENDROOT
BRANCH   3   7
HETATM    7  S   UNL     1      40.558 -11.986   2.637  1.00  0.00    -0.081 SA
BRANCH   7   8
HETATM    8  C   UNL     1      39.374 -13.295   2.204  1.00  0.00     0.185 C 
BRANCH   8   9
HETATM    9  C   UNL     1      40.063 -14.415   1.443  1.00  0.00     0.227 C 
HETATM   10  N   UNL     1      40.725 -14.011   0.304  1.00  0.00    -0.354 N 
HETATM   11  H   UNL     1      40.444 -13.118  -0.100  1.00  0.00     0.162 HD
HETATM   12  O   UNL     1      40.030 -15.584   1.818  1.00  0.00    -0.273 OA
BRANCH  10  13
HETATM   13  C   UNL     1      41.318 -14.988  -0.577  1.00  0.00     0.187 C 
BRANCH  13  14
HETATM   14  C   UNL     1      40.520 -15.085  -1.824  1.00  0.00     0.070 A 
HETATM   15  O   UNL     1      39.449 -14.246  -1.938  1.00  0.00    -0.325 OA
HETATM   16  C   UNL     1      38.875 -14.497  -3.144  1.00  0.00     0.142 A 
HETATM   17  C   UNL     1      39.564 -15.484  -3.811  1.00  0.00     0.027 A 
HETATM   18  C   UNL     1      40.629 -15.862  -2.961  1.00  0.00     0.036 A 
ENDBRANCH  13  14
ENDBRANCH  10  13
ENDBRANCH   8   9
ENDBRANCH   7   8
ENDBRANCH   3   7
BRANCH   6  19
HETATM   19  C   UNL     1      43.786 -14.753   5.708  1.00  0.00     0.256 C 
BRANCH  19  20
HETATM   20  O   UNL     1      42.978 -15.909   5.928  1.00  0.00    -0.344 OA
BRANCH  20  21
HETATM   21  C   UNL     1      43.406 -17.066   5.338  1.00  0.00     0.070 A 
HETATM   22  C   UNL     1      42.960 -17.567   4.113  1.00  0.00     0.049 A 
HETATM   23  C   UNL     1      43.471 -18.775   3.601  1.00  0.00    -0.023 A 
HETATM   24  C   UNL     1      44.450 -19.482   4.334  1.00  0.00    -0.026 A 
HETATM   25  C   UNL     1      43.028 -19.295   2.374  1.00  0.00     0.012 A 
HETATM   26  C   UNL     1      44.901 -18.960   5.555  1.00  0.00     0.015 A 
HETATM   27  C   UNL     1      44.953 -20.690   3.827  1.00  0.00     0.012 A 
HETATM   28  C   UNL     1      44.386 -17.759   6.047  1.00  0.00     0.037 A 
HETATM   29  C   UNL     1      44.498 -21.195   2.607  1.00  0.00     0.001 A 
HETATM   30  C   UNL     1      43.537 -20.499   1.882  1.00  0.00     0.001 A 
ENDBRANCH  20  21
ENDBRANCH  19  20
ENDBRANCH   6  19
TORSDOF 8
ENDMDL
MODEL 7
REMARK VINA RESULT:      -8.2      3.326      5.515
REMARK  8 active torsions:
REMARK  status: ('A' for Active; 'I' for Inactive)
REMARK    1  A    between atoms: C_3  and  S_4 
REMARK    2  A    between atoms: S_4  and  C_5 
REMARK    3  A    between atoms: C_5  and  C_6 
REMARK       I    between atoms: C_6  and  N_7 
REMARK    4  A    between atoms: N_7  and  C_8 
REMARK    5  A    between atoms: C_8  and  C_9 
REMARK    6  A    between atoms: C_17  and  C_18 
REMARK    7  A    between atoms: C_18  and  O_19 
REMARK    8  A    between atoms: O_19  and  C_20 
ROOT
HETATM    1  C   UNL     1      43.699 -14.119   6.604  1.00  0.00     0.160 C 
HETATM    2  N   UNL     1      42.493 -14.868   6.358  1.00  0.00    -0.314 N 
HETATM    3  C   UNL     1      41.286 -14.421   5.901  1.00  0.00     0.191 A 
HETATM    4  N   UNL     1      40.446 -15.425   5.814  1.00  0.00    -0.123 NA
HETATM    5  N   UNL     1      41.108 -16.563   6.191  1.00  0.00    -0.132 NA
HETATM    6  C   UNL     1      42.340 -16.229   6.524  1.00  0.00     0.154 A 
ENDROOT
BRANCH   3   7
HETATM    7  S   UNL     1      40.944 -12.782   5.474  1.00  0.00    -0.081 SA
BRANCH   7   8
HETATM    8  C   UNL     1      39.527 -12.419   6.552  1.00  0.00     0.185 C 
BRANCH   8   9
HETATM    9  C   UNL     1      39.820 -11.226   7.445  1.00  0.00     0.227 C 
HETATM   10  N   UNL     1      40.966 -11.344   8.200  1.00  0.00    -0.354 N 
HETATM   11  H   UNL     1      41.325 -12.287   8.350  1.00  0.00     0.162 HD
HETATM   12  O   UNL     1      39.090 -10.239   7.487  1.00  0.00    -0.273 OA
BRANCH  10  13
HETATM   13  C   UNL     1      41.297 -10.338   9.181  1.00  0.00     0.187 C 
BRANCH  13  14
HETATM   14  C   UNL     1      42.606 -10.660   9.802  1.00  0.00     0.070 A 
HETATM   15  O   UNL     1      43.704 -10.606   8.993  1.00  0.00    -0.325 OA
HETATM   16  C   UNL     1      44.778 -10.925   9.760  1.00  0.00     0.142 A 
HETATM   17  C   UNL     1      44.390 -11.180  11.054  1.00  0.00     0.027 A 
HETATM   18  C   UNL     1      42.986 -11.005  11.084  1.00  0.00     0.036 A 
ENDBRANCH  13  14
ENDBRANCH  10  13
ENDBRANCH   8   9
ENDBRANCH   7   8
ENDBRANCH   3   7
BRANCH   6  19
HETATM   19  C   UNL     1      43.407 -17.161   6.981  1.00  0.00     0.256 C 
BRANCH  19  20
HETATM   20  O   UNL     1      44.419 -17.152   5.976  1.00  0.00    -0.344 OA
BRANCH  20  21
HETATM   21  C   UNL     1      44.305 -18.097   4.994  1.00  0.00     0.070 A 
HETATM   22  C   UNL     1      44.607 -19.454   5.133  1.00  0.00     0.049 A 
HETATM   23  C   UNL     1      44.453 -20.339   4.050  1.00  0.00    -0.023 A 
HETATM   24  C   UNL     1      43.981 -19.848   2.812  1.00  0.00    -0.026 A 
HETATM   25  C   UNL     1      44.759 -21.705   4.171  1.00  0.00     0.012 A 
HETATM   26  C   UNL     1      43.666 -18.487   2.691  1.00  0.00     0.015 A 
HETATM   27  C   UNL     1      43.835 -20.730   1.729  1.00  0.00     0.012 A 
HETATM   28  C   UNL     1      43.822 -17.623   3.776  1.00  0.00     0.037 A 
HETATM   29  C   UNL     1      44.148 -22.083   1.866  1.00  0.00     0.001 A 
HETATM   30  C   UNL     1      44.609 -22.570   3.086  1.00  0.00     0.001 A 
ENDBRANCH  20  21
ENDBRANCH  19  20
ENDBRANCH   6  19
TORSDOF 8
ENDMDL
MODEL 8
REMARK VINA RESULT:      -8.1      2.519      3.839
REMARK  8 active torsions:
REMARK  status: ('A' for Active; 'I' for Inactive)
REMARK    1  A    between atoms: C_3  and  S_4 
REMARK    2  A    between atoms: S_4  and  C_5 
REMARK    3  A    between atoms: C_5  and  C_6 
REMARK       I    between atoms: C_6  and  N_7 
REMARK    4  A    between atoms: N_7  and  C_8 
REMARK    5  A    between atoms: C_8  and  C_9 
REMARK    6  A    between atoms: C_17  and  C_18 
REMARK    7  A    between atoms: C_18  and  O_19 
REMARK    8  A    between atoms: O_19  and  C_20 
ROOT
HETATM    1  C   UNL     1      41.554 -13.032   4.118  1.00  0.00     0.160 C 
HETATM    2  N   UNL     1      40.968 -14.194   3.501  1.00  0.00    -0.314 N 
HETATM    3  C   UNL     1      40.018 -14.254   2.520  1.00  0.00     0.191 A 
HETATM    4  N   UNL     1      39.754 -15.508   2.236  1.00  0.00    -0.123 NA
HETATM    5  N   UNL     1      40.557 -16.295   3.016  1.00  0.00    -0.132 NA
HETATM    6  C   UNL     1      41.285 -15.506   3.783  1.00  0.00     0.154 A 
ENDROOT
BRANCH   3   7
HETATM    7  S   UNL     1      39.307 -12.877   1.756  1.00  0.00    -0.081 SA
BRANCH   7   8
HETATM    8  C   UNL     1      37.980 -13.650   0.785  1.00  0.00     0.185 C 
BRANCH   8   9
HETATM    9  C   UNL     1      38.429 -13.889  -0.647  1.00  0.00     0.227 C 
HETATM   10  N   UNL     1      39.600 -14.602  -0.769  1.00  0.00    -0.354 N 
HETATM   11  H   UNL     1      40.214 -14.624   0.046  1.00  0.00     0.162 HD
HETATM   12  O   UNL     1      37.793 -13.477  -1.614  1.00  0.00    -0.273 OA
BRANCH  10  13
HETATM   13  C   UNL     1      40.203 -14.795  -2.066  1.00  0.00     0.187 C 
BRANCH  13  14
HETATM   14  C   UNL     1      41.167 -13.700  -2.335  1.00  0.00     0.070 A 
HETATM   15  O   UNL     1      42.043 -13.388  -1.335  1.00  0.00    -0.325 OA
HETATM   16  C   UNL     1      42.826 -12.378  -1.795  1.00  0.00     0.142 A 
HETATM   17  C   UNL     1      42.471 -12.036  -3.078  1.00  0.00     0.027 A 
HETATM   18  C   UNL     1      41.402 -12.892  -3.431  1.00  0.00     0.036 A 
ENDBRANCH  13  14
ENDBRANCH  10  13
ENDBRANCH   8   9
ENDBRANCH   7   8
ENDBRANCH   3   7
BRANCH   6  19
HETATM   19  C   UNL     1      42.304 -15.945   4.775  1.00  0.00     0.256 C 
BRANCH  19  20
HETATM   20  O   UNL     1      43.470 -16.303   4.036  1.00  0.00    -0.344 OA
BRANCH  20  21
HETATM   21  C   UNL     1      43.775 -17.636   3.995  1.00  0.00     0.070 A 
HETATM   22  C   UNL     1      43.581 -18.481   2.900  1.00  0.00     0.049 A 
HETATM   23  C   UNL     1      43.931 -19.843   2.972  1.00  0.00    -0.023 A 
HETATM   24  C   UNL     1      44.490 -20.355   4.164  1.00  0.00    -0.026 A 
HETATM   25  C   UNL     1      43.736 -20.707   1.882  1.00  0.00     0.012 A 
HETATM   26  C   UNL     1      44.694 -19.493   5.251  1.00  0.00     0.015 A 
HETATM   27  C   UNL     1      44.831 -21.715   4.237  1.00  0.00     0.012 A 
HETATM   28  C   UNL     1      44.344 -18.144   5.162  1.00  0.00     0.037 A 
HETATM   29  C   UNL     1      44.627 -22.561   3.146  1.00  0.00     0.001 A 
HETATM   30  C   UNL     1      44.080 -22.057   1.969  1.00  0.00     0.001 A 
ENDBRANCH  20  21
ENDBRANCH  19  20
ENDBRANCH   6  19
TORSDOF 8
ENDMDL
MODEL 9
REMARK VINA RESULT:      -8.1      1.737      4.468
REMARK  8 active torsions:
REMARK  status: ('A' for Active; 'I' for Inactive)
REMARK    1  A    between atoms: C_3  and  S_4 
REMARK    2  A    between atoms: S_4  and  C_5 
REMARK    3  A    between atoms: C_5  and  C_6 
REMARK       I    between atoms: C_6  and  N_7 
REMARK    4  A    between atoms: N_7  and  C_8 
REMARK    5  A    between atoms: C_8  and  C_9 
REMARK    6  A    between atoms: C_17  and  C_18 
REMARK    7  A    between atoms: C_18  and  O_19 
REMARK    8  A    between atoms: O_19  and  C_20 
ROOT
HETATM    1  C   UNL     1      39.545 -15.952   2.277  1.00  0.00     0.160 C 
HETATM    2  N   UNL     1      40.353 -15.070   1.474  1.00  0.00    -0.314 N 
HETATM    3  C   UNL     1      40.277 -13.711   1.356  1.00  0.00     0.191 A 
HETATM    4  N   UNL     1      41.196 -13.287   0.521  1.00  0.00    -0.123 NA
HETATM    5  N   UNL     1      41.913 -14.374   0.096  1.00  0.00    -0.132 NA
HETATM    6  C   UNL     1      41.403 -15.450   0.665  1.00  0.00     0.154 A 
ENDROOT
BRANCH   3   7
HETATM    7  S   UNL     1      39.157 -12.712   2.212  1.00  0.00    -0.081 SA
BRANCH   7   8
HETATM    8  C   UNL     1      40.163 -12.174   3.626  1.00  0.00     0.185 C 
BRANCH   8   9
HETATM    9  C   UNL     1      39.975 -13.109   4.808  1.00  0.00     0.227 C 
HETATM   10  N   UNL     1      40.890 -14.136   4.878  1.00  0.00    -0.354 N 
HETATM   11  H   UNL     1      41.378 -14.377   4.015  1.00  0.00     0.162 HD
HETATM   12  O   UNL     1      39.078 -12.956   5.633  1.00  0.00    -0.273 OA
BRANCH  10  13
HETATM   13  C   UNL     1      40.752 -15.166   5.880  1.00  0.00     0.187 C 
BRANCH  13  14
HETATM   14  C   UNL     1      42.095 -15.597   6.339  1.00  0.00     0.070 A 
HETATM   15  O   UNL     1      42.152 -16.708   7.129  1.00  0.00    -0.325 OA
HETATM   16  C   UNL     1      43.461 -16.921   7.422  1.00  0.00     0.142 A 
HETATM   17  C   UNL     1      44.251 -15.966   6.827  1.00  0.00     0.027 A 
HETATM   18  C   UNL     1      43.371 -15.111   6.123  1.00  0.00     0.036 A 
ENDBRANCH  13  14
ENDBRANCH  10  13
ENDBRANCH   8   9
ENDBRANCH   7   8
ENDBRANCH   3   7
BRANCH   6  19
HETATM   19  C   UNL     1      41.889 -16.845   0.492  1.00  0.00     0.256 C 
BRANCH  19  20
HETATM   20  O   UNL     1      43.244 -16.868   0.935  1.00  0.00    -0.344 OA
BRANCH  20  21
HETATM   21  C   UNL     1      43.578 -17.863   1.812  1.00  0.00     0.070 A 
HETATM   22  C   UNL     1      43.723 -19.214   1.491  1.00  0.00     0.049 A 
HETATM   23  C   UNL     1      44.068 -20.155   2.480  1.00  0.00    -0.023 A 
HETATM   24  C   UNL     1      44.276 -19.723   3.809  1.00  0.00    -0.026 A 
HETATM   25  C   UNL     1      44.211 -21.519   2.174  1.00  0.00     0.012 A 
HETATM   26  C   UNL     1      44.143 -18.361   4.114  1.00  0.00     0.015 A 
HETATM   27  C   UNL     1      44.612 -20.663   4.796  1.00  0.00     0.012 A 
HETATM   28  C   UNL     1      43.803 -17.440   3.121  1.00  0.00     0.037 A 
HETATM   29  C   UNL     1      44.746 -22.015   4.476  1.00  0.00     0.001 A 
HETATM   30  C   UNL     1      44.546 -22.443   3.166  1.00  0.00     0.001 A 
ENDBRANCH  20  21
ENDBRANCH  19  20
ENDBRANCH   6  19
TORSDOF 8
ENDMDL
MODEL 10
REMARK VINA RESULT:      -7.9      3.752      4.698
REMARK  8 active torsions:
REMARK  status: ('A' for Active; 'I' for Inactive)
REMARK    1  A    between atoms: C_3  and  S_4 
REMARK    2  A    between atoms: S_4  and  C_5 
REMARK    3  A    between atoms: C_5  and  C_6 
REMARK       I    between atoms: C_6  and  N_7 
REMARK    4  A    between atoms: N_7  and  C_8 
REMARK    5  A    between atoms: C_8  and  C_9 
REMARK    6  A    between atoms: C_17  and  C_18 
REMARK    7  A    between atoms: C_18  and  O_19 
REMARK    8  A    between atoms: O_19  and  C_20 
ROOT
HETATM    1  C   UNL     1      41.299 -15.590   0.361  1.00  0.00     0.160 C 
HETATM    2  N   UNL     1      40.973 -15.168   1.699  1.00  0.00    -0.314 N 
HETATM    3  C   UNL     1      39.789 -14.684   2.179  1.00  0.00     0.191 A 
HETATM    4  N   UNL     1      39.907 -14.415   3.458  1.00  0.00    -0.123 NA
HETATM    5  N   UNL     1      41.178 -14.748   3.844  1.00  0.00    -0.132 NA
HETATM    6  C   UNL     1      41.824 -15.197   2.785  1.00  0.00     0.154 A 
ENDROOT
BRANCH   3   7
HETATM    7  S   UNL     1      38.352 -14.495   1.239  1.00  0.00    -0.081 SA
BRANCH   7   8
HETATM    8  C   UNL     1      38.717 -12.963   0.332  1.00  0.00     0.185 C 
BRANCH   8   9
HETATM    9  C   UNL     1      38.885 -13.242  -1.152  1.00  0.00     0.227 C 
HETATM   10  N   UNL     1      38.037 -14.203  -1.654  1.00  0.00    -0.354 N 
HETATM   11  H   UNL     1      37.623 -14.850  -0.982  1.00  0.00     0.162 HD
HETATM   12  O   UNL     1      39.714 -12.654  -1.843  1.00  0.00    -0.273 OA
BRANCH  10  13
HETATM   13  C   UNL     1      38.173 -14.652  -3.020  1.00  0.00     0.187 C 
BRANCH  13  14
HETATM   14  C   UNL     1      37.112 -14.037  -3.854  1.00  0.00     0.070 A 
HETATM   15  O   UNL     1      36.426 -14.868  -4.693  1.00  0.00    -0.325 OA
HETATM   16  C   UNL     1      35.511 -14.105  -5.346  1.00  0.00     0.142 A 
HETATM   17  C   UNL     1      35.593 -12.795  -4.936  1.00  0.00     0.027 A 
HETATM   18  C   UNL     1      36.624 -12.750  -3.969  1.00  0.00     0.036 A 
ENDBRANCH  13  14
ENDBRANCH  10  13
ENDBRANCH   8   9
ENDBRANCH   7   8
ENDBRANCH   3   7
BRANCH   6  19
HETATM   19  C   UNL     1      43.230 -15.683   2.757  1.00  0.00     0.256 C 
BRANCH  19  20
HETATM   20  O   UNL     1      43.474 -16.306   4.017  1.00  0.00    -0.344 OA
BRANCH  20  21
HETATM   21  C   UNL     1      43.774 -17.640   3.983  1.00  0.00     0.070 A 
HETATM   22  C   UNL     1      43.619 -18.480   2.878  1.00  0.00     0.049 A 
HETATM   23  C   UNL     1      43.959 -19.844   2.959  1.00  0.00    -0.023 A 
HETATM   24  C   UNL     1      44.469 -20.364   4.170  1.00  0.00    -0.026 A 
HETATM   25  C   UNL     1      43.801 -20.704   1.859  1.00  0.00     0.012 A 
HETATM   26  C   UNL     1      44.636 -19.506   5.266  1.00  0.00     0.015 A 
HETATM   27  C   UNL     1      44.801 -21.725   4.252  1.00  0.00     0.012 A 
HETATM   28  C   UNL     1      44.296 -18.155   5.169  1.00  0.00     0.037 A 
HETATM   29  C   UNL     1      44.634 -22.566   3.150  1.00  0.00     0.001 A 
HETATM   30  C   UNL     1      44.135 -22.056   1.955  1.00  0.00     0.001 A 
ENDBRANCH  20  21
ENDBRANCH  19  20
ENDBRANCH   6  19
TORSDOF 8
ENDMDL
