MODEL 1
REMARK VINA RESULT:      -9.4      0.000      0.000
REMARK  3 active torsions:
REMARK  status: ('A' for Active; 'I' for Inactive)
REMARK    1  A    between atoms: O_2  and  C_3 
REMARK    2  A    between atoms: C_5  and  N_6 
REMARK       I    between atoms: N_6  and  C_7 
REMARK       I    between atoms: C_7  and  N_8 
REMARK    3  A    between atoms: C_11  and  C_12 
ROOT
HETATM    1  N   UNL     1      41.612 -14.672  -0.937  1.00  0.00    -0.306 N 
HETATM    2  C   UNL     1      41.834 -14.414   0.398  1.00  0.00     0.323 C 
HETATM    3  N   UNL     1      42.312 -15.503   1.141  1.00  0.00    -0.330 N 
HETATM    4  C   UNL     1      42.456 -16.848   0.588  1.00  0.00     0.155 C 
HETATM    5  C   UNL     1      43.040 -17.840   1.539  1.00  0.00     0.001 C 
HETATM    6  C   UNL     1      43.417 -17.578   2.801  1.00  0.00    -0.046 C 
HETATM    7  C   UNL     1      43.282 -16.182   3.345  1.00  0.00     0.059 C 
HETATM    8  C   UNL     1      42.210 -15.391   2.597  1.00  0.00     0.132 C 
HETATM    9  O   UNL     1      41.605 -13.331   0.932  1.00  0.00    -0.247 OA
HETATM   10  H   UNL     1      41.744 -15.613  -1.270  1.00  0.00     0.171 HD
ENDROOT
BRANCH   1  11
HETATM   11  C   UNL     1      41.058 -13.809  -1.913  1.00  0.00     0.077 A 
HETATM   12  C   UNL     1      39.692 -13.675  -2.178  1.00  0.00     0.069 A 
HETATM   13  C   UNL     1      39.252 -12.806  -3.186  1.00  0.00     0.070 A 
HETATM   14  C   UNL     1      40.183 -12.079  -3.935  1.00  0.00     0.040 A 
HETATM   15  C   UNL     1      41.544 -12.196  -3.673  1.00  0.00     0.047 A 
HETATM   16  C   UNL     1      41.967 -13.052  -2.664  1.00  0.00     0.143 A 
HETATM   17  F   UNL     1      43.282 -13.169  -2.420  1.00  0.00    -0.204 F 
BRANCH  13  18
HETATM   18  O   UNL     1      37.948 -12.585  -3.540  1.00  0.00    -0.356 OA
HETATM   19  C   UNL     1      37.148 -13.734  -3.795  1.00  0.00     0.210 C 
ENDBRANCH  13  18
ENDBRANCH   1  11
BRANCH   6  20
HETATM   20  C   UNL     1      43.929 -18.561   3.711  1.00  0.00    -0.002 A 
HETATM   21  C   UNL     1      44.151 -19.959   3.474  1.00  0.00     0.003 A 
HETATM   22  C   UNL     1      44.670 -20.497   4.654  1.00  0.00     0.043 A 
HETATM   23  C   UNL     1      43.954 -20.829   2.379  1.00  0.00     0.014 A 
HETATM   24  C   UNL     1      45.016 -21.848   4.786  1.00  0.00     0.030 A 
HETATM   25  N   UNL     1      44.744 -19.474   5.571  1.00  0.00    -0.364 N 
HETATM   26  C   UNL     1      44.825 -22.681   3.680  1.00  0.00     0.002 A 
HETATM   27  C   UNL     1      44.299 -22.181   2.492  1.00  0.00     0.001 A 
HETATM   28  H   UNL     1      45.079 -19.578   6.517  1.00  0.00     0.165 HD
HETATM   29  C   UNL     1      44.299 -18.304   5.014  1.00  0.00     0.101 A 
ENDBRANCH   6  20
TORSDOF 3
ENDMDL
MODEL 2
REMARK VINA RESULT:      -9.3      1.313      1.975
REMARK  3 active torsions:
REMARK  status: ('A' for Active; 'I' for Inactive)
REMARK    1  A    between atoms: O_2  and  C_3 
REMARK    2  A    between atoms: C_5  and  N_6 
REMARK       I    between atoms: N_6  and  C_7 
REMARK       I    between atoms: C_7  and  N_8 
REMARK    3  A    between atoms: C_11  and  C_12 
ROOT
HETATM    1  N   UNL     1      41.683 -14.618  -0.993  1.00  0.00    -0.306 N 
HETATM    2  C   UNL     1      41.990 -14.338   0.320  1.00  0.00     0.323 C 
HETATM    3  N   UNL     1      42.401 -15.440   1.082  1.00  0.00    -0.330 N 
HETATM    4  C   UNL     1      42.396 -16.810   0.574  1.00  0.00     0.155 C 
HETATM    5  C   UNL     1      42.930 -17.820   1.536  1.00  0.00     0.001 C 
HETATM    6  C   UNL     1      43.389 -17.552   2.770  1.00  0.00    -0.046 C 
HETATM    7  C   UNL     1      43.407 -16.132   3.266  1.00  0.00     0.059 C 
HETATM    8  C   UNL     1      42.378 -15.270   2.536  1.00  0.00     0.132 C 
HETATM    9  O   UNL     1      41.885 -13.220   0.823  1.00  0.00    -0.247 OA
HETATM   10  H   UNL     1      41.713 -15.578  -1.295  1.00  0.00     0.171 HD
ENDROOT
BRANCH   1  11
HETATM   11  C   UNL     1      41.165 -13.740  -1.975  1.00  0.00     0.077 A 
HETATM   12  C   UNL     1      41.940 -12.992  -2.866  1.00  0.00     0.069 A 
HETATM   13  C   UNL     1      41.324 -12.132  -3.786  1.00  0.00     0.070 A 
HETATM   14  C   UNL     1      39.930 -12.016  -3.805  1.00  0.00     0.040 A 
HETATM   15  C   UNL     1      39.148 -12.763  -2.930  1.00  0.00     0.047 A 
HETATM   16  C   UNL     1      39.770 -13.619  -2.031  1.00  0.00     0.143 A 
HETATM   17  F   UNL     1      39.013 -14.333  -1.182  1.00  0.00    -0.204 F 
BRANCH  13  18
HETATM   18  O   UNL     1      41.967 -11.351  -4.708  1.00  0.00    -0.356 OA
HETATM   19  C   UNL     1      42.428 -10.081  -4.264  1.00  0.00     0.210 C 
ENDBRANCH  13  18
ENDBRANCH   1  11
BRANCH   6  20
HETATM   20  C   UNL     1      43.851 -18.547   3.692  1.00  0.00    -0.002 A 
HETATM   21  C   UNL     1      44.104 -19.938   3.445  1.00  0.00     0.003 A 
HETATM   22  C   UNL     1      44.550 -20.494   4.647  1.00  0.00     0.043 A 
HETATM   23  C   UNL     1      43.989 -20.789   2.323  1.00  0.00     0.014 A 
HETATM   24  C   UNL     1      44.902 -21.844   4.775  1.00  0.00     0.030 A 
HETATM   25  N   UNL     1      44.553 -19.487   5.585  1.00  0.00    -0.364 N 
HETATM   26  C   UNL     1      44.794 -22.656   3.644  1.00  0.00     0.002 A 
HETATM   27  C   UNL     1      44.341 -22.139   2.433  1.00  0.00     0.001 A 
HETATM   28  H   UNL     1      44.827 -19.606   6.549  1.00  0.00     0.165 HD
HETATM   29  C   UNL     1      44.132 -18.311   5.022  1.00  0.00     0.101 A 
ENDBRANCH   6  20
TORSDOF 3
ENDMDL
MODEL 3
REMARK VINA RESULT:      -9.1      1.624      1.807
REMARK  3 active torsions:
REMARK  status: ('A' for Active; 'I' for Inactive)
REMARK    1  A    between atoms: O_2  and  C_3 
REMARK    2  A    between atoms: C_5  and  N_6 
REMARK       I    between atoms: N_6  and  C_7 
REMARK       I    between atoms: C_7  and  N_8 
REMARK    3  A    between atoms: C_11  and  C_12 
ROOT
HETATM    1  N   UNL     1      39.967 -14.510  -0.948  1.00  0.00    -0.306 N 
HETATM    2  C   UNL     1      39.733 -14.770   0.385  1.00  0.00     0.323 C 
HETATM    3  N   UNL     1      40.624 -15.674   0.979  1.00  0.00    -0.330 N 
HETATM    4  C   UNL     1      41.656 -16.389   0.232  1.00  0.00     0.155 C 
HETATM    5  C   UNL     1      42.532 -17.256   1.075  1.00  0.00     0.001 C 
HETATM    6  C   UNL     1      42.428 -17.405   2.406  1.00  0.00    -0.046 C 
HETATM    7  C   UNL     1      41.373 -16.643   3.161  1.00  0.00     0.059 C 
HETATM    8  C   UNL     1      40.205 -16.257   2.256  1.00  0.00     0.132 C 
HETATM    9  O   UNL     1      38.797 -14.288   1.020  1.00  0.00    -0.247 OA
HETATM   10  H   UNL     1      40.704 -15.019  -1.410  1.00  0.00     0.171 HD
ENDROOT
BRANCH   1  11
HETATM   11  C   UNL     1      39.198 -13.716  -1.831  1.00  0.00     0.077 A 
HETATM   12  C   UNL     1      38.164 -14.196  -2.642  1.00  0.00     0.069 A 
HETATM   13  C   UNL     1      37.481 -13.325  -3.501  1.00  0.00     0.070 A 
HETATM   14  C   UNL     1      37.841 -11.974  -3.555  1.00  0.00     0.040 A 
HETATM   15  C   UNL     1      38.861 -11.483  -2.746  1.00  0.00     0.047 A 
HETATM   16  C   UNL     1      39.523 -12.355  -1.891  1.00  0.00     0.143 A 
HETATM   17  F   UNL     1      40.513 -11.880  -1.117  1.00  0.00    -0.204 F 
BRANCH  13  18
HETATM   18  O   UNL     1      36.454 -13.668  -4.339  1.00  0.00    -0.356 OA
HETATM   19  C   UNL     1      35.509 -12.651  -4.646  1.00  0.00     0.210 C 
ENDBRANCH  13  18
ENDBRANCH   1  11
BRANCH   6  20
HETATM   20  C   UNL     1      43.250 -18.282   3.186  1.00  0.00    -0.002 A 
HETATM   21  C   UNL     1      43.615 -19.641   2.905  1.00  0.00     0.003 A 
HETATM   22  C   UNL     1      44.436 -20.071   3.950  1.00  0.00     0.043 A 
HETATM   23  C   UNL     1      43.323 -20.559   1.871  1.00  0.00     0.014 A 
HETATM   24  C   UNL     1      44.990 -21.357   4.002  1.00  0.00     0.030 A 
HETATM   25  N   UNL     1      44.551 -19.023   4.834  1.00  0.00    -0.364 N 
HETATM   26  C   UNL     1      44.696 -22.236   2.957  1.00  0.00     0.002 A 
HETATM   27  C   UNL     1      43.872 -21.847   1.905  1.00  0.00     0.001 A 
HETATM   28  H   UNL     1      45.085 -19.055   5.691  1.00  0.00     0.165 HD
HETATM   29  C   UNL     1      43.840 -17.942   4.386  1.00  0.00     0.101 A 
ENDBRANCH   6  20
TORSDOF 3
ENDMDL
MODEL 4
REMARK VINA RESULT:      -8.8      2.618      2.921
REMARK  3 active torsions:
REMARK  status: ('A' for Active; 'I' for Inactive)
REMARK    1  A    between atoms: O_2  and  C_3 
REMARK    2  A    between atoms: C_5  and  N_6 
REMARK       I    between atoms: N_6  and  C_7 
REMARK       I    between atoms: C_7  and  N_8 
REMARK    3  A    between atoms: C_11  and  C_12 
ROOT
HETATM    1  N   UNL     1      39.227 -14.163   0.910  1.00  0.00    -0.306 N 
HETATM    2  C   UNL     1      40.535 -13.964   1.292  1.00  0.00     0.323 C 
HETATM    3  N   UNL     1      41.157 -15.074   1.880  1.00  0.00    -0.330 N 
HETATM    4  C   UNL     1      40.453 -16.318   2.184  1.00  0.00     0.155 C 
HETATM    5  C   UNL     1      41.324 -17.389   2.755  1.00  0.00     0.001 C 
HETATM    6  C   UNL     1      42.642 -17.277   2.989  1.00  0.00    -0.046 C 
HETATM    7  C   UNL     1      43.353 -15.996   2.648  1.00  0.00     0.059 C 
HETATM    8  C   UNL     1      42.390 -14.809   2.625  1.00  0.00     0.132 C 
HETATM    9  O   UNL     1      41.127 -12.893   1.171  1.00  0.00    -0.247 OA
HETATM   10  H   UNL     1      38.795 -15.046   1.128  1.00  0.00     0.171 HD
ENDROOT
BRANCH   1  11
HETATM   11  C   UNL     1      38.321 -13.218   0.372  1.00  0.00     0.077 A 
HETATM   12  C   UNL     1      37.440 -12.436   1.126  1.00  0.00     0.069 A 
HETATM   13  C   UNL     1      36.565 -11.546   0.489  1.00  0.00     0.070 A 
HETATM   14  C   UNL     1      36.566 -11.447  -0.906  1.00  0.00     0.040 A 
HETATM   15  C   UNL     1      37.444 -12.212  -1.667  1.00  0.00     0.047 A 
HETATM   16  C   UNL     1      38.314 -13.082  -1.022  1.00  0.00     0.143 A 
HETATM   17  F   UNL     1      39.155 -13.826  -1.760  1.00  0.00    -0.204 F 
BRANCH  13  18
HETATM   18  O   UNL     1      35.661 -10.727   1.111  1.00  0.00    -0.356 OA
HETATM   19  C   UNL     1      34.322 -10.770   0.634  1.00  0.00     0.210 C 
ENDBRANCH  13  18
ENDBRANCH   1  11
BRANCH   6  20
HETATM   20  C   UNL     1      43.445 -18.304   3.584  1.00  0.00    -0.002 A 
HETATM   21  C   UNL     1      43.703 -19.626   3.090  1.00  0.00     0.003 A 
HETATM   22  C   UNL     1      44.550 -20.250   4.010  1.00  0.00     0.043 A 
HETATM   23  C   UNL     1      43.293 -20.367   1.959  1.00  0.00     0.014 A 
HETATM   24  C   UNL     1      45.020 -21.559   3.845  1.00  0.00     0.030 A 
HETATM   25  N   UNL     1      44.785 -19.349   5.023  1.00  0.00    -0.364 N 
HETATM   26  C   UNL     1      44.610 -22.260   2.707  1.00  0.00     0.002 A 
HETATM   27  C   UNL     1      43.756 -21.676   1.776  1.00  0.00     0.001 A 
HETATM   28  H   UNL     1      45.362 -19.535   5.830  1.00  0.00     0.165 HD
HETATM   29  C   UNL     1      44.123 -18.175   4.778  1.00  0.00     0.101 A 
ENDBRANCH   6  20
TORSDOF 3
ENDMDL
MODEL 5
REMARK VINA RESULT:      -8.7      5.397      6.708
REMARK  3 active torsions:
REMARK  status: ('A' for Active; 'I' for Inactive)
REMARK    1  A    between atoms: O_2  and  C_3 
REMARK    2  A    between atoms: C_5  and  N_6 
REMARK       I    between atoms: N_6  and  C_7 
REMARK       I    between atoms: C_7  and  N_8 
REMARK    3  A    between atoms: C_11  and  C_12 
ROOT
HETATM    1  N   UNL     1      41.265 -12.878   6.247  1.00  0.00    -0.306 N 
HETATM    2  C   UNL     1      40.657 -13.963   5.655  1.00  0.00     0.323 C 
HETATM    3  N   UNL     1      41.458 -15.109   5.550  1.00  0.00    -0.330 N 
HETATM    4  C   UNL     1      42.871 -15.134   5.924  1.00  0.00     0.155 C 
HETATM    5  C   UNL     1      43.515 -16.475   5.786  1.00  0.00     0.001 C 
HETATM    6  C   UNL     1      42.902 -17.592   5.363  1.00  0.00    -0.046 C 
HETATM    7  C   UNL     1      41.441 -17.551   5.005  1.00  0.00     0.059 C 
HETATM    8  C   UNL     1      40.999 -16.140   4.617  1.00  0.00     0.132 C 
HETATM    9  O   UNL     1      39.511 -13.946   5.210  1.00  0.00    -0.247 OA
HETATM   10  H   UNL     1      42.237 -12.956   6.502  1.00  0.00     0.171 HD
ENDROOT
BRANCH   1  11
HETATM   11  C   UNL     1      40.748 -11.572   6.416  1.00  0.00     0.077 A 
HETATM   12  C   UNL     1      40.002 -11.144   7.518  1.00  0.00     0.069 A 
HETATM   13  C   UNL     1      39.516  -9.831   7.574  1.00  0.00     0.070 A 
HETATM   14  C   UNL     1      39.768  -8.949   6.518  1.00  0.00     0.040 A 
HETATM   15  C   UNL     1      40.517  -9.360   5.420  1.00  0.00     0.047 A 
HETATM   16  C   UNL     1      41.003 -10.661   5.383  1.00  0.00     0.143 A 
HETATM   17  F   UNL     1      41.719 -11.057   4.317  1.00  0.00    -0.204 F 
BRANCH  13  18
HETATM   18  O   UNL     1      38.779  -9.292   8.594  1.00  0.00    -0.356 OA
HETATM   19  C   UNL     1      38.721 -10.035   9.807  1.00  0.00     0.210 C 
ENDBRANCH  13  18
ENDBRANCH   1  11
BRANCH   6  20
HETATM   20  C   UNL     1      43.556 -18.856   5.193  1.00  0.00    -0.002 A 
HETATM   21  C   UNL     1      43.704 -19.624   3.989  1.00  0.00     0.003 A 
HETATM   22  C   UNL     1      44.423 -20.774   4.323  1.00  0.00     0.043 A 
HETATM   23  C   UNL     1      43.291 -19.466   2.647  1.00  0.00     0.014 A 
HETATM   24  C   UNL     1      44.763 -21.757   3.384  1.00  0.00     0.030 A 
HETATM   25  N   UNL     1      44.686 -20.714   5.672  1.00  0.00    -0.364 N 
HETATM   26  C   UNL     1      44.355 -21.565   2.062  1.00  0.00     0.002 A 
HETATM   27  C   UNL     1      43.626 -20.436   1.695  1.00  0.00     0.001 A 
HETATM   28  H   UNL     1      45.189 -21.421   6.188  1.00  0.00     0.165 HD
HETATM   29  C   UNL     1      44.166 -19.565   6.206  1.00  0.00     0.101 A 
ENDBRANCH   6  20
TORSDOF 3
ENDMDL
MODEL 6
REMARK VINA RESULT:      -8.5      5.804      8.607
REMARK  3 active torsions:
REMARK  status: ('A' for Active; 'I' for Inactive)
REMARK    1  A    between atoms: O_2  and  C_3 
REMARK    2  A    between atoms: C_5  and  N_6 
REMARK       I    between atoms: N_6  and  C_7 
REMARK       I    between atoms: C_7  and  N_8 
REMARK    3  A    between atoms: C_11  and  C_12 
ROOT
HETATM    1  N   UNL     1      44.150 -13.383   7.507  1.00  0.00    -0.306 N 
HETATM    2  C   UNL     1      44.010 -14.734   7.734  1.00  0.00     0.323 C 
HETATM    3  N   UNL     1      43.793 -15.510   6.586  1.00  0.00    -0.330 N 
HETATM    4  C   UNL     1      43.605 -14.936   5.256  1.00  0.00     0.155 C 
HETATM    5  C   UNL     1      43.448 -15.949   4.170  1.00  0.00     0.001 C 
HETATM    6  C   UNL     1      43.469 -17.281   4.340  1.00  0.00    -0.046 C 
HETATM    7  C   UNL     1      43.686 -17.853   5.714  1.00  0.00     0.059 C 
HETATM    8  C   UNL     1      43.277 -16.863   6.805  1.00  0.00     0.132 C 
HETATM    9  O   UNL     1      44.034 -15.245   8.852  1.00  0.00    -0.247 OA
HETATM   10  H   UNL     1      44.028 -13.042   6.566  1.00  0.00     0.171 HD
ENDROOT
BRANCH   1  11
HETATM   11  C   UNL     1      44.293 -12.347   8.461  1.00  0.00     0.077 A 
HETATM   12  C   UNL     1      43.234 -11.643   9.041  1.00  0.00     0.069 A 
HETATM   13  C   UNL     1      43.490 -10.617   9.960  1.00  0.00     0.070 A 
HETATM   14  C   UNL     1      44.809 -10.288  10.289  1.00  0.00     0.040 A 
HETATM   15  C   UNL     1      45.871 -10.988   9.725  1.00  0.00     0.047 A 
HETATM   16  C   UNL     1      45.604 -12.011   8.825  1.00  0.00     0.143 A 
HETATM   17  F   UNL     1      46.632 -12.680   8.276  1.00  0.00    -0.204 F 
BRANCH  13  18
HETATM   18  O   UNL     1      42.545  -9.858  10.597  1.00  0.00    -0.356 OA
HETATM   19  C   UNL     1      41.254 -10.436  10.751  1.00  0.00     0.210 C 
ENDBRANCH  13  18
ENDBRANCH   1  11
BRANCH   6  20
HETATM   20  C   UNL     1      43.266 -18.232   3.288  1.00  0.00    -0.002 A 
HETATM   21  C   UNL     1      43.771 -19.572   3.193  1.00  0.00     0.003 A 
HETATM   22  C   UNL     1      43.296 -20.106   1.992  1.00  0.00     0.043 A 
HETATM   23  C   UNL     1      44.595 -20.388   4.001  1.00  0.00     0.014 A 
HETATM   24  C   UNL     1      43.587 -21.411   1.573  1.00  0.00     0.030 A 
HETATM   25  N   UNL     1      42.549 -19.127   1.379  1.00  0.00    -0.364 N 
HETATM   26  C   UNL     1      44.390 -22.198   2.401  1.00  0.00     0.002 A 
HETATM   27  C   UNL     1      44.891 -21.696   3.599  1.00  0.00     0.001 A 
HETATM   28  H   UNL     1      42.088 -19.235   0.487  1.00  0.00     0.165 HD
HETATM   29  C   UNL     1      42.526 -17.994   2.148  1.00  0.00     0.101 A 
ENDBRANCH   6  20
TORSDOF 3
ENDMDL
MODEL 7
REMARK VINA RESULT:      -8.4      5.355      9.847
REMARK  3 active torsions:
REMARK  status: ('A' for Active; 'I' for Inactive)
REMARK    1  A    between atoms: O_2  and  C_3 
REMARK    2  A    between atoms: C_5  and  N_6 
REMARK       I    between atoms: N_6  and  C_7 
REMARK       I    between atoms: C_7  and  N_8 
REMARK    3  A    between atoms: C_11  and  C_12 
ROOT
HETATM    1  N   UNL     1      42.798 -17.198   3.818  1.00  0.00    -0.306 N 
HETATM    2  C   UNL     1      41.668 -16.906   4.549  1.00  0.00     0.323 C 
HETATM    3  N   UNL     1      41.424 -15.539   4.745  1.00  0.00    -0.330 N 
HETATM    4  C   UNL     1      42.349 -14.492   4.317  1.00  0.00     0.155 C 
HETATM    5  C   UNL     1      41.861 -13.104   4.573  1.00  0.00     0.001 C 
HETATM    6  C   UNL     1      40.686 -12.786   5.141  1.00  0.00    -0.046 C 
HETATM    7  C   UNL     1      39.737 -13.878   5.553  1.00  0.00     0.059 C 
HETATM    8  C   UNL     1      40.472 -15.194   5.802  1.00  0.00     0.132 C 
HETATM    9  O   UNL     1      40.930 -17.761   5.037  1.00  0.00    -0.247 OA
HETATM   10  H   UNL     1      43.392 -16.436   3.532  1.00  0.00     0.171 HD
ENDROOT
BRANCH   1  11
HETATM   11  C   UNL     1      43.347 -18.471   3.529  1.00  0.00     0.077 A 
HETATM   12  C   UNL     1      44.209 -19.179   4.372  1.00  0.00     0.069 A 
HETATM   13  C   UNL     1      44.715 -20.424   3.976  1.00  0.00     0.070 A 
HETATM   14  C   UNL     1      44.365 -20.956   2.730  1.00  0.00     0.040 A 
HETATM   15  C   UNL     1      43.500 -20.265   1.887  1.00  0.00     0.047 A 
HETATM   16  C   UNL     1      42.996 -19.036   2.296  1.00  0.00     0.143 A 
HETATM   17  F   UNL     1      42.168 -18.368   1.476  1.00  0.00    -0.204 F 
BRANCH  13  18
HETATM   18  O   UNL     1      45.561 -21.214   4.708  1.00  0.00    -0.356 OA
HETATM   19  C   UNL     1      45.048 -22.465   5.152  1.00  0.00     0.210 C 
ENDBRANCH  13  18
ENDBRANCH   1  11
BRANCH   6  20
HETATM   20  C   UNL     1      40.263 -11.445   5.420  1.00  0.00    -0.002 A 
HETATM   21  C   UNL     1      39.784 -10.906   6.661  1.00  0.00     0.003 A 
HETATM   22  C   UNL     1      39.506  -9.555   6.441  1.00  0.00     0.043 A 
HETATM   23  C   UNL     1      39.545 -11.430   7.951  1.00  0.00     0.014 A 
HETATM   24  C   UNL     1      39.024  -8.704   7.445  1.00  0.00     0.030 A 
HETATM   25  N   UNL     1      39.790  -9.290   5.121  1.00  0.00    -0.364 N 
HETATM   26  C   UNL     1      38.814  -9.249   8.714  1.00  0.00     0.002 A 
HETATM   27  C   UNL     1      39.068 -10.594   8.967  1.00  0.00     0.001 A 
HETATM   28  H   UNL     1      39.676  -8.388   4.682  1.00  0.00     0.165 HD
HETATM   29  C   UNL     1      40.244 -10.421   4.496  1.00  0.00     0.101 A 
ENDBRANCH   6  20
TORSDOF 3
ENDMDL
MODEL 8
REMARK VINA RESULT:      -8.4      6.045      8.097
REMARK  3 active torsions:
REMARK  status: ('A' for Active; 'I' for Inactive)
REMARK    1  A    between atoms: O_2  and  C_3 
REMARK    2  A    between atoms: C_5  and  N_6 
REMARK       I    between atoms: N_6  and  C_7 
REMARK       I    between atoms: C_7  and  N_8 
REMARK    3  A    between atoms: C_11  and  C_12 
ROOT
HETATM    1  N   UNL     1      40.557 -11.963   7.045  1.00  0.00    -0.306 N 
HETATM    2  C   UNL     1      39.901 -12.803   6.173  1.00  0.00     0.323 C 
HETATM    3  N   UNL     1      40.724 -13.705   5.484  1.00  0.00    -0.330 N 
HETATM    4  C   UNL     1      42.182 -13.690   5.578  1.00  0.00     0.155 C 
HETATM    5  C   UNL     1      42.856 -14.777   4.807  1.00  0.00     0.001 C 
HETATM    6  C   UNL     1      42.230 -15.713   4.074  1.00  0.00    -0.046 C 
HETATM    7  C   UNL     1      40.727 -15.726   4.008  1.00  0.00     0.059 C 
HETATM    8  C   UNL     1      40.141 -14.345   4.303  1.00  0.00     0.132 C 
HETATM    9  O   UNL     1      38.689 -12.764   5.968  1.00  0.00    -0.247 OA
HETATM   10  H   UNL     1      41.563 -12.007   7.083  1.00  0.00     0.171 HD
ENDROOT
BRANCH   1  11
HETATM   11  C   UNL     1      40.016 -10.902   7.810  1.00  0.00     0.077 A 
HETATM   12  C   UNL     1      39.678 -10.986   9.164  1.00  0.00     0.069 A 
HETATM   13  C   UNL     1      39.125  -9.879   9.822  1.00  0.00     0.070 A 
HETATM   14  C   UNL     1      38.900  -8.691   9.118  1.00  0.00     0.040 A 
HETATM   15  C   UNL     1      39.241  -8.593   7.773  1.00  0.00     0.047 A 
HETATM   16  C   UNL     1      39.800  -9.693   7.136  1.00  0.00     0.143 A 
HETATM   17  F   UNL     1      40.120  -9.598   5.835  1.00  0.00    -0.204 F 
BRANCH  13  18
HETATM   18  O   UNL     1      38.755  -9.832  11.139  1.00  0.00    -0.356 OA
HETATM   19  C   UNL     1      37.677  -8.966  11.473  1.00  0.00     0.210 C 
ENDBRANCH  13  18
ENDBRANCH   1  11
BRANCH   6  20
HETATM   20  C   UNL     1      42.902 -16.716   3.303  1.00  0.00    -0.002 A 
HETATM   21  C   UNL     1      43.492 -17.941   3.762  1.00  0.00     0.003 A 
HETATM   22  C   UNL     1      44.016 -18.590   2.641  1.00  0.00     0.043 A 
HETATM   23  C   UNL     1      43.647 -18.564   5.021  1.00  0.00     0.014 A 
HETATM   24  C   UNL     1      44.664 -19.830   2.713  1.00  0.00     0.030 A 
HETATM   25  N   UNL     1      43.766 -17.787   1.552  1.00  0.00    -0.364 N 
HETATM   26  C   UNL     1      44.787 -20.428   3.970  1.00  0.00     0.002 A 
HETATM   27  C   UNL     1      44.289 -19.805   5.111  1.00  0.00     0.001 A 
HETATM   28  H   UNL     1      44.041 -18.006   0.606  1.00  0.00     0.165 HD
HETATM   29  C   UNL     1      43.098 -16.655   1.939  1.00  0.00     0.101 A 
ENDBRANCH   6  20
TORSDOF 3
ENDMDL
MODEL 9
REMARK VINA RESULT:      -8.3      3.197      9.687
REMARK  3 active torsions:
REMARK  status: ('A' for Active; 'I' for Inactive)
REMARK    1  A    between atoms: O_2  and  C_3 
REMARK    2  A    between atoms: C_5  and  N_6 
REMARK       I    between atoms: N_6  and  C_7 
REMARK       I    between atoms: C_7  and  N_8 
REMARK    3  A    between atoms: C_11  and  C_12 
ROOT
HETATM    1  N   UNL     1      42.436 -17.575   2.496  1.00  0.00    -0.306 N 
HETATM    2  C   UNL     1      41.288 -16.914   2.872  1.00  0.00     0.323 C 
HETATM    3  N   UNL     1      40.762 -16.041   1.909  1.00  0.00    -0.330 N 
HETATM    4  C   UNL     1      41.431 -15.750   0.643  1.00  0.00     0.155 C 
HETATM    5  C   UNL     1      40.664 -14.838  -0.257  1.00  0.00     0.001 C 
HETATM    6  C   UNL     1      39.463 -14.304   0.017  1.00  0.00    -0.046 C 
HETATM    7  C   UNL     1      38.779 -14.635   1.316  1.00  0.00     0.059 C 
HETATM    8  C   UNL     1      39.785 -15.060   2.386  1.00  0.00     0.132 C 
HETATM    9  O   UNL     1      40.761 -17.034   3.977  1.00  0.00    -0.247 OA
HETATM   10  H   UNL     1      42.845 -17.349   1.604  1.00  0.00     0.171 HD
ENDROOT
BRANCH   1  11
HETATM   11  C   UNL     1      43.236 -18.446   3.272  1.00  0.00     0.077 A 
HETATM   12  C   UNL     1      43.485 -18.297   4.640  1.00  0.00     0.069 A 
HETATM   13  C   UNL     1      44.315 -19.206   5.309  1.00  0.00     0.070 A 
HETATM   14  C   UNL     1      44.905 -20.261   4.604  1.00  0.00     0.040 A 
HETATM   15  C   UNL     1      44.657 -20.426   3.245  1.00  0.00     0.047 A 
HETATM   16  C   UNL     1      43.823 -19.524   2.596  1.00  0.00     0.143 A 
HETATM   17  F   UNL     1      43.593 -19.681   1.282  1.00  0.00    -0.204 F 
BRANCH  13  18
HETATM   18  O   UNL     1      44.634 -19.171   6.640  1.00  0.00    -0.356 OA
HETATM   19  C   UNL     1      43.706 -18.528   7.506  1.00  0.00     0.210 C 
ENDBRANCH  13  18
ENDBRANCH   1  11
BRANCH   6  20
HETATM   20  C   UNL     1      38.769 -13.393  -0.844  1.00  0.00    -0.002 A 
HETATM   21  C   UNL     1      38.055 -13.684  -2.054  1.00  0.00     0.003 A 
HETATM   22  C   UNL     1      37.542 -12.474  -2.529  1.00  0.00     0.043 A 
HETATM   23  C   UNL     1      37.798 -14.853  -2.805  1.00  0.00     0.014 A 
HETATM   24  C   UNL     1      36.775 -12.380  -3.698  1.00  0.00     0.030 A 
HETATM   25  N   UNL     1      37.940 -11.491  -1.654  1.00  0.00    -0.364 N 
HETATM   26  C   UNL     1      36.525 -13.556  -4.410  1.00  0.00     0.002 A 
HETATM   27  C   UNL     1      37.031 -14.778  -3.973  1.00  0.00     0.001 A 
HETATM   28  H   UNL     1      37.716 -10.512  -1.754  1.00  0.00     0.165 HD
HETATM   29  C   UNL     1      38.682 -12.032  -0.636  1.00  0.00     0.101 A 
ENDBRANCH   6  20
TORSDOF 3
ENDMDL
MODEL 10
REMARK VINA RESULT:      -8.2      2.884      9.703
REMARK  3 active torsions:
REMARK  status: ('A' for Active; 'I' for Inactive)
REMARK    1  A    between atoms: O_2  and  C_3 
REMARK    2  A    between atoms: C_5  and  N_6 
REMARK       I    between atoms: N_6  and  C_7 
REMARK       I    between atoms: C_7  and  N_8 
REMARK    3  A    between atoms: C_11  and  C_12 
ROOT
HETATM    1  N   UNL     1      42.657 -17.689   2.693  1.00  0.00    -0.306 N 
HETATM    2  C   UNL     1      42.418 -16.333   2.722  1.00  0.00     0.323 C 
HETATM    3  N   UNL     1      41.955 -15.785   1.517  1.00  0.00    -0.330 N 
HETATM    4  C   UNL     1      41.842 -16.554   0.280  1.00  0.00     0.155 C 
HETATM    5  C   UNL     1      41.270 -15.786  -0.866  1.00  0.00     0.001 C 
HETATM    6  C   UNL     1      40.877 -14.503  -0.823  1.00  0.00    -0.046 C 
HETATM    7  C   UNL     1      40.980 -13.735   0.466  1.00  0.00     0.059 C 
HETATM    8  C   UNL     1      42.043 -14.329   1.389  1.00  0.00     0.132 C 
HETATM    9  O   UNL     1      42.621 -15.625   3.707  1.00  0.00    -0.247 OA
HETATM   10  H   UNL     1      42.546 -18.174   1.817  1.00  0.00     0.171 HD
ENDROOT
BRANCH   1  11
HETATM   11  C   UNL     1      43.202 -18.502   3.715  1.00  0.00     0.077 A 
HETATM   12  C   UNL     1      43.016 -18.295   5.085  1.00  0.00     0.069 A 
HETATM   13  C   UNL     1      43.623 -19.150   6.015  1.00  0.00     0.070 A 
HETATM   14  C   UNL     1      44.425 -20.207   5.572  1.00  0.00     0.040 A 
HETATM   15  C   UNL     1      44.609 -20.428   4.211  1.00  0.00     0.047 A 
HETATM   16  C   UNL     1      43.993 -19.581   3.299  1.00  0.00     0.143 A 
HETATM   17  F   UNL     1      44.179 -19.793   1.986  1.00  0.00    -0.204 F 
BRANCH  13  18
HETATM   18  O   UNL     1      43.517 -19.056   7.377  1.00  0.00    -0.356 OA
HETATM   19  C   UNL     1      43.289 -17.759   7.916  1.00  0.00     0.210 C 
ENDBRANCH  13  18
ENDBRANCH   1  11
BRANCH   6  20
HETATM   20  C   UNL     1      40.377 -13.774  -1.951  1.00  0.00    -0.002 A 
HETATM   21  C   UNL     1      40.984 -12.666  -2.632  1.00  0.00     0.003 A 
HETATM   22  C   UNL     1      40.125 -12.304  -3.673  1.00  0.00     0.043 A 
HETATM   23  C   UNL     1      42.173 -11.922  -2.465  1.00  0.00     0.014 A 
HETATM   24  C   UNL     1      40.405 -11.255  -4.560  1.00  0.00     0.030 A 
HETATM   25  N   UNL     1      39.039 -13.146  -3.617  1.00  0.00    -0.364 N 
HETATM   26  C   UNL     1      41.596 -10.549  -4.378  1.00  0.00     0.002 A 
HETATM   27  C   UNL     1      42.470 -10.874  -3.345  1.00  0.00     0.001 A 
HETATM   28  H   UNL     1      38.253 -13.108  -4.249  1.00  0.00     0.165 HD
HETATM   29  C   UNL     1      39.178 -14.034  -2.583  1.00  0.00     0.101 A 
ENDBRANCH   6  20
TORSDOF 3
ENDMDL
