MODEL 1
REMARK VINA RESULT:      -7.7      0.000      0.000
REMARK  4 active torsions:
REMARK  status: ('A' for Active; 'I' for Inactive)
REMARK    1  A    between atoms: C_3  and  N_4 
REMARK       I    between atoms: N_4  and  C_5 
REMARK    2  A    between atoms: C_5  and  C_6 
REMARK    3  A    between atoms: C_7  and  C_8 
REMARK    4  A    between atoms: C_16  and  C_17 
ROOT
HETATM    1  C   UNL     1      45.011 -18.155   6.333  1.00  0.00     0.003 A 
HETATM    2  C   UNL     1      44.073 -17.148   6.096  1.00  0.00     0.029 A 
HETATM    3  C   UNL     1      43.199 -17.239   5.012  1.00  0.00     0.035 A 
HETATM    4  C   UNL     1      43.284 -18.352   4.163  1.00  0.00     0.042 A 
HETATM    5  C   UNL     1      44.222 -19.373   4.389  1.00  0.00    -0.021 A 
HETATM    6  C   UNL     1      45.085 -19.261   5.486  1.00  0.00     0.012 A 
ENDROOT
BRANCH   3   7
HETATM    7  N   UNL     1      42.243 -16.254   4.692  1.00  0.00    -0.327 N 
HETATM    8  C   UNL     1      41.059 -15.988   5.341  1.00  0.00     0.227 C 
HETATM    9  O   UNL     1      40.575 -16.639   6.259  1.00  0.00    -0.273 OA
HETATM   10  H   UNL     1      42.394 -15.750   3.825  1.00  0.00     0.169 HD
BRANCH   8  11
HETATM   11  C   UNL     1      40.310 -14.771   4.908  1.00  0.00     0.089 A 
HETATM   12  C   UNL     1      39.887 -14.459   3.488  1.00  0.00     0.057 A 
HETATM   13  C   UNL     1      40.905 -13.593   4.207  1.00  0.00     0.027 A 
BRANCH  12  14
HETATM   14  C   UNL     1      40.387 -15.212   2.269  1.00  0.00     0.057 A 
HETATM   15  O   UNL     1      40.648 -16.549   2.218  1.00  0.00    -0.327 OA
HETATM   16  C   UNL     1      41.100 -16.819   0.966  1.00  0.00     0.142 A 
HETATM   17  C   UNL     1      41.147 -15.670   0.214  1.00  0.00     0.027 A 
HETATM   18  C   UNL     1      40.690 -14.629   1.057  1.00  0.00     0.035 A 
ENDBRANCH  12  14
ENDBRANCH   8  11
ENDBRANCH   3   7
BRANCH   5  19
HETATM   19  C   UNL     1      44.281 -20.523   3.501  1.00  0.00     0.010 A 
HETATM   20  C   UNL     1      44.682 -21.859   3.742  1.00  0.00     0.152 A 
HETATM   21  N   UNL     1      44.582 -22.636   2.661  1.00  0.00    -0.187 NA
HETATM   22  N   UNL     1      44.117 -21.801   1.718  1.00  0.00    -0.289 N 
HETATM   23  H   UNL     1      43.955 -22.168   0.787  1.00  0.00     0.188 HD
HETATM   24  C   UNL     1      43.918 -20.528   2.171  1.00  0.00     0.123 A 
ENDBRANCH   5  19
TORSDOF 4
ENDMDL
MODEL 2
REMARK VINA RESULT:      -7.6      2.385      6.132
REMARK  4 active torsions:
REMARK  status: ('A' for Active; 'I' for Inactive)
REMARK    1  A    between atoms: C_3  and  N_4 
REMARK       I    between atoms: N_4  and  C_5 
REMARK    2  A    between atoms: C_5  and  C_6 
REMARK    3  A    between atoms: C_7  and  C_8 
REMARK    4  A    between atoms: C_16  and  C_17 
ROOT
HETATM    1  C   UNL     1      40.383 -15.169   5.478  1.00  0.00     0.003 A 
HETATM    2  C   UNL     1      41.187 -16.235   5.885  1.00  0.00     0.029 A 
HETATM    3  C   UNL     1      41.820 -17.042   4.939  1.00  0.00     0.035 A 
HETATM    4  C   UNL     1      41.630 -16.768   3.577  1.00  0.00     0.042 A 
HETATM    5  C   UNL     1      40.825 -15.698   3.152  1.00  0.00    -0.021 A 
HETATM    6  C   UNL     1      40.204 -14.901   4.121  1.00  0.00     0.012 A 
ENDROOT
BRANCH   3   7
HETATM    7  N   UNL     1      42.626 -18.152   5.269  1.00  0.00    -0.327 N 
HETATM    8  C   UNL     1      43.925 -18.143   5.720  1.00  0.00     0.227 C 
HETATM    9  O   UNL     1      44.652 -17.161   5.814  1.00  0.00    -0.273 OA
HETATM   10  H   UNL     1      42.239 -19.064   5.054  1.00  0.00     0.169 HD
BRANCH   8  11
HETATM   11  C   UNL     1      44.494 -19.449   6.168  1.00  0.00     0.089 A 
HETATM   12  C   UNL     1      44.822 -20.620   5.266  1.00  0.00     0.057 A 
HETATM   13  C   UNL     1      43.725 -20.723   6.310  1.00  0.00     0.027 A 
BRANCH  12  14
HETATM   14  C   UNL     1      44.383 -20.724   3.818  1.00  0.00     0.057 A 
HETATM   15  O   UNL     1      43.809 -19.723   3.092  1.00  0.00    -0.327 OA
HETATM   16  C   UNL     1      43.543 -20.227   1.859  1.00  0.00     0.142 A 
HETATM   17  C   UNL     1      43.924 -21.545   1.786  1.00  0.00     0.027 A 
HETATM   18  C   UNL     1      44.464 -21.869   3.054  1.00  0.00     0.035 A 
ENDBRANCH  12  14
ENDBRANCH   8  11
ENDBRANCH   3   7
BRANCH   5  19
HETATM   19  C   UNL     1      40.655 -15.427   1.734  1.00  0.00     0.010 A 
HETATM   20  C   UNL     1      41.467 -15.762   0.624  1.00  0.00     0.152 A 
HETATM   21  N   UNL     1      40.959 -15.343  -0.538  1.00  0.00    -0.187 NA
HETATM   22  N   UNL     1      39.817 -14.735  -0.179  1.00  0.00    -0.289 N 
HETATM   23  H   UNL     1      39.240 -14.326  -0.905  1.00  0.00     0.188 HD
HETATM   24  C   UNL     1      39.589 -14.761   1.168  1.00  0.00     0.123 A 
ENDBRANCH   5  19
TORSDOF 4
ENDMDL
MODEL 3
REMARK VINA RESULT:      -7.5      2.544      4.372
REMARK  4 active torsions:
REMARK  status: ('A' for Active; 'I' for Inactive)
REMARK    1  A    between atoms: C_3  and  N_4 
REMARK       I    between atoms: N_4  and  C_5 
REMARK    2  A    between atoms: C_5  and  C_6 
REMARK    3  A    between atoms: C_7  and  C_8 
REMARK    4  A    between atoms: C_16  and  C_17 
ROOT
HETATM    1  C   UNL     1      44.442 -20.102   2.943  1.00  0.00     0.003 A 
HETATM    2  C   UNL     1      44.040 -19.168   1.987  1.00  0.00     0.029 A 
HETATM    3  C   UNL     1      43.519 -17.935   2.381  1.00  0.00     0.035 A 
HETATM    4  C   UNL     1      43.402 -17.654   3.751  1.00  0.00     0.042 A 
HETATM    5  C   UNL     1      43.803 -18.584   4.724  1.00  0.00    -0.021 A 
HETATM    6  C   UNL     1      44.326 -19.812   4.303  1.00  0.00     0.012 A 
ENDROOT
BRANCH   3   7
HETATM    7  N   UNL     1      43.069 -16.950   1.478  1.00  0.00    -0.327 N 
HETATM    8  C   UNL     1      41.783 -16.740   1.035  1.00  0.00     0.227 C 
HETATM    9  O   UNL     1      40.812 -17.448   1.271  1.00  0.00    -0.273 OA
HETATM   10  H   UNL     1      43.789 -16.397   1.025  1.00  0.00     0.169 HD
BRANCH   8  11
HETATM   11  C   UNL     1      41.543 -15.515   0.216  1.00  0.00     0.089 A 
HETATM   12  C   UNL     1      41.864 -14.097   0.642  1.00  0.00     0.057 A 
HETATM   13  C   UNL     1      40.428 -14.541   0.424  1.00  0.00     0.027 A 
BRANCH  12  14
HETATM   14  C   UNL     1      42.237 -13.700   2.058  1.00  0.00     0.057 A 
HETATM   15  O   UNL     1      43.237 -14.258   2.798  1.00  0.00    -0.327 OA
HETATM   16  C   UNL     1      43.224 -13.646   4.010  1.00  0.00     0.142 A 
HETATM   17  C   UNL     1      42.219 -12.711   4.066  1.00  0.00     0.027 A 
HETATM   18  C   UNL     1      41.577 -12.748   2.805  1.00  0.00     0.035 A 
ENDBRANCH  12  14
ENDBRANCH   8  11
ENDBRANCH   3   7
BRANCH   5  19
HETATM   19  C   UNL     1      43.682 -18.263   6.137  1.00  0.00     0.010 A 
HETATM   20  C   UNL     1      43.241 -17.084   6.784  1.00  0.00     0.152 A 
HETATM   21  N   UNL     1      43.262 -17.182   8.115  1.00  0.00    -0.187 NA
HETATM   22  N   UNL     1      43.719 -18.426   8.330  1.00  0.00    -0.289 N 
HETATM   23  H   UNL     1      43.824 -18.741   9.288  1.00  0.00     0.188 HD
HETATM   24  C   UNL     1      43.981 -19.113   7.180  1.00  0.00     0.123 A 
ENDBRANCH   5  19
TORSDOF 4
ENDMDL
MODEL 4
REMARK VINA RESULT:      -7.4      1.936      2.567
REMARK  4 active torsions:
REMARK  status: ('A' for Active; 'I' for Inactive)
REMARK    1  A    between atoms: C_3  and  N_4 
REMARK       I    between atoms: N_4  and  C_5 
REMARK    2  A    between atoms: C_5  and  C_6 
REMARK    3  A    between atoms: C_7  and  C_8 
REMARK    4  A    between atoms: C_16  and  C_17 
ROOT
HETATM    1  C   UNL     1      43.783 -17.967   1.321  1.00  0.00     0.003 A 
HETATM    2  C   UNL     1      42.972 -17.143   2.103  1.00  0.00     0.029 A 
HETATM    3  C   UNL     1      42.612 -17.528   3.395  1.00  0.00     0.035 A 
HETATM    4  C   UNL     1      43.073 -18.757   3.890  1.00  0.00     0.042 A 
HETATM    5  C   UNL     1      43.890 -19.596   3.115  1.00  0.00    -0.021 A 
HETATM    6  C   UNL     1      44.240 -19.185   1.823  1.00  0.00     0.012 A 
ENDROOT
BRANCH   3   7
HETATM    7  N   UNL     1      41.777 -16.764   4.236  1.00  0.00    -0.327 N 
HETATM    8  C   UNL     1      42.097 -15.613   4.919  1.00  0.00     0.227 C 
HETATM    9  O   UNL     1      43.208 -15.104   4.998  1.00  0.00    -0.273 OA
HETATM   10  H   UNL     1      40.868 -17.163   4.444  1.00  0.00     0.169 HD
BRANCH   8  11
HETATM   11  C   UNL     1      40.977 -14.899   5.601  1.00  0.00     0.089 A 
HETATM   12  C   UNL     1      39.822 -14.209   4.904  1.00  0.00     0.057 A 
HETATM   13  C   UNL     1      40.836 -13.415   5.708  1.00  0.00     0.027 A 
BRANCH  12  14
HETATM   14  C   UNL     1      39.776 -13.927   3.415  1.00  0.00     0.057 A 
HETATM   15  O   UNL     1      40.010 -12.717   2.833  1.00  0.00    -0.327 OA
HETATM   16  C   UNL     1      39.844 -12.880   1.495  1.00  0.00     0.142 A 
HETATM   17  C   UNL     1      39.492 -14.177   1.208  1.00  0.00     0.027 A 
HETATM   18  C   UNL     1      39.444 -14.854   2.450  1.00  0.00     0.035 A 
ENDBRANCH  12  14
ENDBRANCH   8  11
ENDBRANCH   3   7
BRANCH   5  19
HETATM   19  C   UNL     1      44.365 -20.860   3.656  1.00  0.00     0.010 A 
HETATM   20  C   UNL     1      44.886 -21.182   4.932  1.00  0.00     0.152 A 
HETATM   21  N   UNL     1      45.205 -22.473   5.053  1.00  0.00    -0.187 NA
HETATM   22  N   UNL     1      44.890 -22.986   3.853  1.00  0.00    -0.289 N 
HETATM   23  H   UNL     1      45.045 -23.976   3.696  1.00  0.00     0.188 HD
HETATM   24  C   UNL     1      44.382 -22.063   2.985  1.00  0.00     0.123 A 
ENDBRANCH   5  19
TORSDOF 4
ENDMDL
MODEL 5
REMARK VINA RESULT:      -7.4      1.642      2.036
REMARK  4 active torsions:
REMARK  status: ('A' for Active; 'I' for Inactive)
REMARK    1  A    between atoms: C_3  and  N_4 
REMARK       I    between atoms: N_4  and  C_5 
REMARK    2  A    between atoms: C_5  and  C_6 
REMARK    3  A    between atoms: C_7  and  C_8 
REMARK    4  A    between atoms: C_16  and  C_17 
ROOT
HETATM    1  C   UNL     1      44.708 -17.263   6.523  1.00  0.00     0.003 A 
HETATM    2  C   UNL     1      43.953 -16.159   6.121  1.00  0.00     0.029 A 
HETATM    3  C   UNL     1      43.255 -16.184   4.913  1.00  0.00     0.035 A 
HETATM    4  C   UNL     1      43.330 -17.332   4.110  1.00  0.00     0.042 A 
HETATM    5  C   UNL     1      44.084 -18.450   4.501  1.00  0.00    -0.021 A 
HETATM    6  C   UNL     1      44.773 -18.401   5.719  1.00  0.00     0.012 A 
ENDROOT
BRANCH   3   7
HETATM    7  N   UNL     1      42.492 -15.103   4.427  1.00  0.00    -0.327 N 
HETATM    8  C   UNL     1      42.940 -14.003   3.732  1.00  0.00     0.227 C 
HETATM    9  O   UNL     1      44.109 -13.718   3.504  1.00  0.00    -0.273 OA
HETATM   10  H   UNL     1      41.518 -15.081   4.708  1.00  0.00     0.169 HD
BRANCH   8  11
HETATM   11  C   UNL     1      41.900 -13.087   3.175  1.00  0.00     0.089 A 
HETATM   12  C   UNL     1      40.967 -13.413   2.028  1.00  0.00     0.057 A 
HETATM   13  C   UNL     1      42.017 -12.325   1.894  1.00  0.00     0.027 A 
BRANCH  12  14
HETATM   14  C   UNL     1      41.128 -14.617   1.118  1.00  0.00     0.057 A 
HETATM   15  O   UNL     1      41.527 -15.859   1.514  1.00  0.00    -0.327 OA
HETATM   16  C   UNL     1      41.571 -16.636   0.401  1.00  0.00     0.142 A 
HETATM   17  C   UNL     1      41.219 -15.907  -0.709  1.00  0.00     0.027 A 
HETATM   18  C   UNL     1      40.937 -14.600  -0.247  1.00  0.00     0.035 A 
ENDBRANCH  12  14
ENDBRANCH   8  11
ENDBRANCH   3   7
BRANCH   5  19
HETATM   19  C   UNL     1      44.135 -19.631   3.656  1.00  0.00     0.010 A 
HETATM   20  C   UNL     1      43.613 -19.866   2.361  1.00  0.00     0.152 A 
HETATM   21  N   UNL     1      43.881 -21.093   1.906  1.00  0.00    -0.187 NA
HETATM   22  N   UNL     1      44.576 -21.653   2.909  1.00  0.00    -0.289 N 
HETATM   23  H   UNL     1      44.900 -22.607   2.797  1.00  0.00     0.188 HD
HETATM   24  C   UNL     1      44.757 -20.819   3.975  1.00  0.00     0.123 A 
ENDBRANCH   5  19
TORSDOF 4
ENDMDL
MODEL 6
REMARK VINA RESULT:      -7.2      1.988      3.912
REMARK  4 active torsions:
REMARK  status: ('A' for Active; 'I' for Inactive)
REMARK    1  A    between atoms: C_3  and  N_4 
REMARK       I    between atoms: N_4  and  C_5 
REMARK    2  A    between atoms: C_5  and  C_6 
REMARK    3  A    between atoms: C_7  and  C_8 
REMARK    4  A    between atoms: C_16  and  C_17 
ROOT
HETATM    1  C   UNL     1      43.708 -17.824   0.855  1.00  0.00     0.003 A 
HETATM    2  C   UNL     1      43.183 -16.646   1.389  1.00  0.00     0.029 A 
HETATM    3  C   UNL     1      42.997 -16.517   2.766  1.00  0.00     0.035 A 
HETATM    4  C   UNL     1      43.339 -17.591   3.601  1.00  0.00     0.042 A 
HETATM    5  C   UNL     1      43.869 -18.783   3.077  1.00  0.00    -0.021 A 
HETATM    6  C   UNL     1      44.050 -18.885   1.693  1.00  0.00     0.012 A 
ENDROOT
BRANCH   3   7
HETATM    7  N   UNL     1      42.449 -15.371   3.379  1.00  0.00    -0.327 N 
HETATM    8  C   UNL     1      41.132 -14.977   3.401  1.00  0.00     0.227 C 
HETATM    9  O   UNL     1      40.209 -15.505   2.794  1.00  0.00    -0.273 OA
HETATM   10  H   UNL     1      43.116 -14.709   3.761  1.00  0.00     0.169 HD
BRANCH   8  11
HETATM   11  C   UNL     1      40.789 -13.814   4.273  1.00  0.00     0.089 A 
HETATM   12  C   UNL     1      41.589 -13.350   5.473  1.00  0.00     0.057 A 
HETATM   13  C   UNL     1      40.185 -13.905   5.637  1.00  0.00     0.027 A 
BRANCH  12  14
HETATM   14  C   UNL     1      42.707 -14.154   6.109  1.00  0.00     0.057 A 
HETATM   15  O   UNL     1      42.634 -15.470   6.457  1.00  0.00    -0.327 OA
HETATM   16  C   UNL     1      43.827 -15.800   7.018  1.00  0.00     0.142 A 
HETATM   17  C   UNL     1      44.662 -14.709   7.047  1.00  0.00     0.027 A 
HETATM   18  C   UNL     1      43.937 -13.643   6.464  1.00  0.00     0.035 A 
ENDBRANCH  12  14
ENDBRANCH   8  11
ENDBRANCH   3   7
BRANCH   5  19
HETATM   19  C   UNL     1      44.227 -19.877   3.966  1.00  0.00     0.010 A 
HETATM   20  C   UNL     1      44.763 -21.157   3.687  1.00  0.00     0.152 A 
HETATM   21  N   UNL     1      44.971 -21.885   4.787  1.00  0.00    -0.187 NA
HETATM   22  N   UNL     1      44.567 -21.075   5.779  1.00  0.00    -0.289 N 
HETATM   23  H   UNL     1      44.629 -21.413   6.733  1.00  0.00     0.188 HD
HETATM   24  C   UNL     1      44.117 -19.863   5.340  1.00  0.00     0.123 A 
ENDBRANCH   5  19
TORSDOF 4
ENDMDL
MODEL 7
REMARK VINA RESULT:      -7.2      1.518      3.037
REMARK  4 active torsions:
REMARK  status: ('A' for Active; 'I' for Inactive)
REMARK    1  A    between atoms: C_3  and  N_4 
REMARK       I    between atoms: N_4  and  C_5 
REMARK    2  A    between atoms: C_5  and  C_6 
REMARK    3  A    between atoms: C_7  and  C_8 
REMARK    4  A    between atoms: C_16  and  C_17 
ROOT
HETATM    1  C   UNL     1      43.708 -17.419   5.287  1.00  0.00     0.003 A 
HETATM    2  C   UNL     1      43.003 -16.501   4.507  1.00  0.00     0.029 A 
HETATM    3  C   UNL     1      42.598 -16.838   3.215  1.00  0.00     0.035 A 
HETATM    4  C   UNL     1      42.916 -18.109   2.713  1.00  0.00     0.042 A 
HETATM    5  C   UNL     1      43.624 -19.043   3.487  1.00  0.00    -0.021 A 
HETATM    6  C   UNL     1      44.016 -18.682   4.782  1.00  0.00     0.012 A 
ENDROOT
BRANCH   3   7
HETATM    7  N   UNL     1      41.905 -15.959   2.357  1.00  0.00    -0.327 N 
HETATM    8  C   UNL     1      40.599 -16.052   1.933  1.00  0.00     0.227 C 
HETATM    9  O   UNL     1      39.834 -16.984   2.147  1.00  0.00    -0.273 OA
HETATM   10  H   UNL     1      42.461 -15.231   1.921  1.00  0.00     0.169 HD
BRANCH   8  11
HETATM   11  C   UNL     1      40.054 -14.892   1.167  1.00  0.00     0.089 A 
HETATM   12  C   UNL     1      39.728 -13.531   1.748  1.00  0.00     0.057 A 
HETATM   13  C   UNL     1      38.633 -14.428   1.196  1.00  0.00     0.027 A 
BRANCH  12  14
HETATM   14  C   UNL     1      39.668 -13.236   3.235  1.00  0.00     0.057 A 
HETATM   15  O   UNL     1      40.105 -14.066   4.224  1.00  0.00    -0.327 OA
HETATM   16  C   UNL     1      39.846 -13.448   5.405  1.00  0.00     0.142 A 
HETATM   17  C   UNL     1      39.236 -12.236   5.191  1.00  0.00     0.027 A 
HETATM   18  C   UNL     1      39.115 -12.100   3.787  1.00  0.00     0.035 A 
ENDBRANCH  12  14
ENDBRANCH   8  11
ENDBRANCH   3   7
BRANCH   5  19
HETATM   19  C   UNL     1      43.931 -20.358   2.948  1.00  0.00     0.010 A 
HETATM   20  C   UNL     1      43.590 -20.953   1.710  1.00  0.00     0.152 A 
HETATM   21  N   UNL     1      44.074 -22.191   1.576  1.00  0.00    -0.187 NA
HETATM   22  N   UNL     1      44.728 -22.396   2.730  1.00  0.00    -0.289 N 
HETATM   23  H   UNL     1      45.192 -23.287   2.868  1.00  0.00     0.188 HD
HETATM   24  C   UNL     1      44.675 -21.330   3.582  1.00  0.00     0.123 A 
ENDBRANCH   5  19
TORSDOF 4
ENDMDL
MODEL 8
REMARK VINA RESULT:      -7.1      2.714      6.385
REMARK  4 active torsions:
REMARK  status: ('A' for Active; 'I' for Inactive)
REMARK    1  A    between atoms: C_3  and  N_4 
REMARK       I    between atoms: N_4  and  C_5 
REMARK    2  A    between atoms: C_5  and  C_6 
REMARK    3  A    between atoms: C_7  and  C_8 
REMARK    4  A    between atoms: C_16  and  C_17 
ROOT
HETATM    1  C   UNL     1      43.438 -17.505   0.933  1.00  0.00     0.003 A 
HETATM    2  C   UNL     1      43.762 -17.676   2.281  1.00  0.00     0.029 A 
HETATM    3  C   UNL     1      42.955 -17.123   3.276  1.00  0.00     0.035 A 
HETATM    4  C   UNL     1      41.820 -16.390   2.900  1.00  0.00     0.042 A 
HETATM    5  C   UNL     1      41.481 -16.210   1.549  1.00  0.00    -0.021 A 
HETATM    6  C   UNL     1      42.304 -16.778   0.570  1.00  0.00     0.012 A 
ENDROOT
BRANCH   3   7
HETATM    7  N   UNL     1      43.229 -17.230   4.655  1.00  0.00    -0.327 N 
HETATM    8  C   UNL     1      43.567 -16.221   5.527  1.00  0.00     0.227 C 
HETATM    9  O   UNL     1      43.794 -15.055   5.229  1.00  0.00    -0.273 OA
HETATM   10  H   UNL     1      43.282 -18.172   5.028  1.00  0.00     0.169 HD
BRANCH   8  11
HETATM   11  C   UNL     1      43.630 -16.573   6.976  1.00  0.00     0.089 A 
HETATM   12  C   UNL     1      44.087 -17.904   7.537  1.00  0.00     0.057 A 
HETATM   13  C   UNL     1      42.650 -17.440   7.699  1.00  0.00     0.027 A 
BRANCH  12  14
HETATM   14  C   UNL     1      44.299 -19.150   6.699  1.00  0.00     0.057 A 
HETATM   15  O   UNL     1      45.005 -19.209   5.534  1.00  0.00    -0.327 OA
HETATM   16  C   UNL     1      44.931 -20.489   5.088  1.00  0.00     0.142 A 
HETATM   17  C   UNL     1      44.175 -21.254   5.943  1.00  0.00     0.027 A 
HETATM   18  C   UNL     1      43.762 -20.388   6.983  1.00  0.00     0.035 A 
ENDBRANCH  12  14
ENDBRANCH   8  11
ENDBRANCH   3   7
BRANCH   5  19
HETATM   19  C   UNL     1      40.292 -15.456   1.187  1.00  0.00     0.010 A 
HETATM   20  C   UNL     1      39.091 -15.222   1.900  1.00  0.00     0.152 A 
HETATM   21  N   UNL     1      38.227 -14.458   1.227  1.00  0.00    -0.187 NA
HETATM   22  N   UNL     1      38.869 -14.199   0.077  1.00  0.00    -0.289 N 
HETATM   23  H   UNL     1      38.403 -13.622  -0.615  1.00  0.00     0.188 HD
HETATM   24  C   UNL     1      40.107 -14.770   0.006  1.00  0.00     0.123 A 
ENDBRANCH   5  19
TORSDOF 4
ENDMDL
MODEL 9
REMARK VINA RESULT:      -7.1      2.872      4.230
REMARK  4 active torsions:
REMARK  status: ('A' for Active; 'I' for Inactive)
REMARK    1  A    between atoms: C_3  and  N_4 
REMARK       I    between atoms: N_4  and  C_5 
REMARK    2  A    between atoms: C_5  and  C_6 
REMARK    3  A    between atoms: C_7  and  C_8 
REMARK    4  A    between atoms: C_16  and  C_17 
ROOT
HETATM    1  C   UNL     1      43.124 -18.693   2.113  1.00  0.00     0.003 A 
HETATM    2  C   UNL     1      42.015 -17.953   1.698  1.00  0.00     0.029 A 
HETATM    3  C   UNL     1      41.212 -17.302   2.635  1.00  0.00     0.035 A 
HETATM    4  C   UNL     1      41.533 -17.408   3.996  1.00  0.00     0.042 A 
HETATM    5  C   UNL     1      42.646 -18.148   4.428  1.00  0.00    -0.021 A 
HETATM    6  C   UNL     1      43.439 -18.790   3.468  1.00  0.00     0.012 A 
ENDROOT
BRANCH   3   7
HETATM    7  N   UNL     1      40.063 -16.557   2.298  1.00  0.00    -0.327 N 
HETATM    8  C   UNL     1      39.951 -15.191   2.177  1.00  0.00     0.227 C 
HETATM    9  O   UNL     1      40.816 -14.368   2.447  1.00  0.00    -0.273 OA
HETATM   10  H   UNL     1      39.195 -17.079   2.237  1.00  0.00     0.169 HD
BRANCH   8  11
HETATM   11  C   UNL     1      38.663 -14.665   1.634  1.00  0.00     0.089 A 
HETATM   12  C   UNL     1      38.459 -14.113   0.238  1.00  0.00     0.057 A 
HETATM   13  C   UNL     1      38.326 -13.219   1.459  1.00  0.00     0.027 A 
BRANCH  12  14
HETATM   14  C   UNL     1      39.591 -13.780  -0.716  1.00  0.00     0.057 A 
HETATM   15  O   UNL     1      39.820 -12.558  -1.274  1.00  0.00    -0.327 OA
HETATM   16  C   UNL     1      40.903 -12.687  -2.084  1.00  0.00     0.142 A 
HETATM   17  C   UNL     1      41.365 -13.981  -2.066  1.00  0.00     0.027 A 
HETATM   18  C   UNL     1      40.515 -14.690  -1.185  1.00  0.00     0.035 A 
ENDBRANCH  12  14
ENDBRANCH   8  11
ENDBRANCH   3   7
BRANCH   5  19
HETATM   19  C   UNL     1      42.965 -18.233   5.844  1.00  0.00     0.010 A 
HETATM   20  C   UNL     1      43.803 -19.127   6.552  1.00  0.00     0.152 A 
HETATM   21  N   UNL     1      43.848 -18.871   7.862  1.00  0.00    -0.187 NA
HETATM   22  N   UNL     1      43.037 -17.810   8.001  1.00  0.00    -0.289 N 
HETATM   23  H   UNL     1      42.907 -17.422   8.929  1.00  0.00     0.188 HD
HETATM   24  C   UNL     1      42.487 -17.389   6.824  1.00  0.00     0.123 A 
ENDBRANCH   5  19
TORSDOF 4
ENDMDL
MODEL 10
REMARK VINA RESULT:      -7.1      2.121      3.342
REMARK  4 active torsions:
REMARK  status: ('A' for Active; 'I' for Inactive)
REMARK    1  A    between atoms: C_3  and  N_4 
REMARK       I    between atoms: N_4  and  C_5 
REMARK    2  A    between atoms: C_5  and  C_6 
REMARK    3  A    between atoms: C_7  and  C_8 
REMARK    4  A    between atoms: C_16  and  C_17 
ROOT
HETATM    1  C   UNL     1      43.619 -17.389   4.993  1.00  0.00     0.003 A 
HETATM    2  C   UNL     1      43.340 -16.706   3.808  1.00  0.00     0.029 A 
HETATM    3  C   UNL     1      43.397 -17.369   2.581  1.00  0.00     0.035 A 
HETATM    4  C   UNL     1      43.744 -18.728   2.560  1.00  0.00     0.042 A 
HETATM    5  C   UNL     1      44.027 -19.428   3.744  1.00  0.00    -0.021 A 
HETATM    6  C   UNL     1      43.959 -18.742   4.962  1.00  0.00     0.012 A 
ENDROOT
BRANCH   3   7
HETATM    7  N   UNL     1      43.155 -16.744   1.341  1.00  0.00    -0.327 N 
HETATM    8  C   UNL     1      41.967 -16.680   0.649  1.00  0.00     0.227 C 
HETATM    9  O   UNL     1      40.926 -17.253   0.945  1.00  0.00    -0.273 OA
HETATM   10  H   UNL     1      43.970 -16.389   0.853  1.00  0.00     0.169 HD
BRANCH   8  11
HETATM   11  C   UNL     1      41.936 -15.803  -0.559  1.00  0.00     0.089 A 
HETATM   12  C   UNL     1      41.093 -14.555  -0.716  1.00  0.00     0.057 A 
HETATM   13  C   UNL     1      40.845 -15.778  -1.581  1.00  0.00     0.027 A 
BRANCH  12  14
HETATM   14  C   UNL     1      39.973 -14.163   0.229  1.00  0.00     0.057 A 
HETATM   15  O   UNL     1      40.105 -13.963   1.571  1.00  0.00    -0.327 OA
HETATM   16  C   UNL     1      38.872 -13.656   2.051  1.00  0.00     0.142 A 
HETATM   17  C   UNL     1      37.944 -13.670   1.037  1.00  0.00     0.027 A 
HETATM   18  C   UNL     1      38.654 -14.002  -0.141  1.00  0.00     0.035 A 
ENDBRANCH  12  14
ENDBRANCH   8  11
ENDBRANCH   3   7
BRANCH   5  19
HETATM   19  C   UNL     1      44.372 -20.840   3.696  1.00  0.00     0.010 A 
HETATM   20  C   UNL     1      44.381 -21.754   2.615  1.00  0.00     0.152 A 
HETATM   21  N   UNL     1      44.776 -22.978   2.972  1.00  0.00    -0.187 NA
HETATM   22  N   UNL     1      45.022 -22.857   4.286  1.00  0.00    -0.289 N 
HETATM   23  H   UNL     1      45.344 -23.674   4.794  1.00  0.00     0.188 HD
HETATM   24  C   UNL     1      44.799 -21.598   4.766  1.00  0.00     0.123 A 
ENDBRANCH   5  19
TORSDOF 4
ENDMDL
