MODEL 1
REMARK VINA RESULT:      -8.0      0.000      0.000
REMARK  3 active torsions:
REMARK  status: ('A' for Active; 'I' for Inactive)
REMARK    1  A    between atoms: C_6  and  C_7 
REMARK       I    between atoms: C_7  and  N_8 
REMARK    2  A    between atoms: N_8  and  C_9 
REMARK    3  A    between atoms: N_12  and  C_13 
ROOT
HETATM    1  C   UNL     1      41.542 -15.873   2.942  1.00  0.00     0.177 C 
HETATM    2  C   UNL     1      41.250 -15.116   4.261  1.00  0.00     0.248 C 
HETATM    3  O   UNL     1      41.836 -15.487   5.285  1.00  0.00    -0.271 OA
HETATM    4  N   UNL     1      40.373 -14.022   4.159  1.00  0.00    -0.299 N 
HETATM    5  C   UNL     1      39.318 -14.019   3.142  1.00  0.00     0.134 C 
HETATM    6  C   UNL     1      39.708 -14.664   1.825  1.00  0.00     0.023 C 
HETATM    7  C   UNL     1      40.292 -16.036   2.088  1.00  0.00     0.036 C 
ENDROOT
BRANCH   1   8
HETATM    8  N   UNL     1      42.141 -17.159   3.295  1.00  0.00    -0.344 N 
HETATM    9  C   UNL     1      43.436 -17.498   2.991  1.00  0.00     0.253 C 
HETATM   10  O   UNL     1      44.181 -16.808   2.306  1.00  0.00    -0.268 OA
HETATM   11  H   UNL     1      41.672 -17.659   4.049  1.00  0.00     0.163 HD
BRANCH   9  12
HETATM   12  C   UNL     1      43.916 -18.776   3.591  1.00  0.00     0.043 A 
HETATM   13  C   UNL     1      44.377 -18.820   4.926  1.00  0.00    -0.045 A 
HETATM   14  C   UNL     1      44.839 -20.042   5.446  1.00  0.00     0.014 A 
HETATM   15  C   UNL     1      44.403 -17.612   5.823  1.00  0.00     0.049 C 
HETATM   16  C   UNL     1      44.819 -21.211   4.679  1.00  0.00    -0.061 A 
HETATM   17  C   UNL     1      45.266 -22.519   5.263  1.00  0.00     0.048 C 
HETATM   18  C   UNL     1      44.318 -21.160   3.374  1.00  0.00     0.014 A 
HETATM   19  C   UNL     1      43.877 -19.952   2.810  1.00  0.00    -0.045 A 
HETATM   20  C   UNL     1      43.350 -19.961   1.400  1.00  0.00     0.049 C 
ENDBRANCH   9  12
ENDBRANCH   1   8
BRANCH   4  21
HETATM   21  C   UNL     1      40.303 -13.107   5.225  1.00  0.00     0.154 A 
HETATM   22  N   UNL     1      41.299 -12.287   5.577  1.00  0.00    -0.155 NA
HETATM   23  N   UNL     1      40.838 -11.602   6.632  1.00  0.00    -0.283 N 
HETATM   24  C   UNL     1      41.697 -10.649   7.291  1.00  0.00     0.179 C 
HETATM   25  C   UNL     1      39.549 -11.895   6.948  1.00  0.00     0.115 A 
HETATM   26  C   UNL     1      39.166 -12.863   6.050  1.00  0.00     0.071 A 
ENDBRANCH   4  21
TORSDOF 3
ENDMDL
MODEL 2
REMARK VINA RESULT:      -7.9      2.502      4.353
REMARK  3 active torsions:
REMARK  status: ('A' for Active; 'I' for Inactive)
REMARK    1  A    between atoms: C_6  and  C_7 
REMARK       I    between atoms: C_7  and  N_8 
REMARK    2  A    between atoms: N_8  and  C_9 
REMARK    3  A    between atoms: N_12  and  C_13 
ROOT
HETATM    1  C   UNL     1      40.704 -16.005   3.273  1.00  0.00     0.177 C 
HETATM    2  C   UNL     1      40.683 -15.747   1.746  1.00  0.00     0.248 C 
HETATM    3  O   UNL     1      40.981 -16.684   0.996  1.00  0.00    -0.271 OA
HETATM    4  N   UNL     1      40.268 -14.466   1.347  1.00  0.00    -0.299 N 
HETATM    5  C   UNL     1      40.513 -13.310   2.213  1.00  0.00     0.134 C 
HETATM    6  C   UNL     1      40.393 -13.597   3.699  1.00  0.00     0.023 C 
HETATM    7  C   UNL     1      41.235 -14.806   4.048  1.00  0.00     0.036 C 
ENDROOT
BRANCH   1   8
HETATM    8  N   UNL     1      41.499 -17.209   3.506  1.00  0.00    -0.344 N 
HETATM    9  C   UNL     1      42.863 -17.196   3.661  1.00  0.00     0.253 C 
HETATM   10  O   UNL     1      43.558 -16.199   3.515  1.00  0.00    -0.268 OA
HETATM   11  H   UNL     1      40.976 -18.006   3.868  1.00  0.00     0.163 HD
BRANCH   9  12
HETATM   12  C   UNL     1      43.469 -18.497   4.067  1.00  0.00     0.043 A 
HETATM   13  C   UNL     1      43.580 -18.849   5.431  1.00  0.00    -0.045 A 
HETATM   14  C   UNL     1      44.175 -20.077   5.770  1.00  0.00     0.014 A 
HETATM   15  C   UNL     1      43.092 -17.964   6.547  1.00  0.00     0.049 C 
HETATM   16  C   UNL     1      44.626 -20.961   4.786  1.00  0.00    -0.061 A 
HETATM   17  C   UNL     1      45.212 -22.291   5.160  1.00  0.00     0.048 C 
HETATM   18  C   UNL     1      44.469 -20.618   3.439  1.00  0.00     0.014 A 
HETATM   19  C   UNL     1      43.907 -19.388   3.062  1.00  0.00    -0.045 A 
HETATM   20  C   UNL     1      43.766 -19.075   1.596  1.00  0.00     0.049 C 
ENDBRANCH   9  12
ENDBRANCH   1   8
BRANCH   4  21
HETATM   21  C   UNL     1      39.925 -14.254  -0.002  1.00  0.00     0.154 A 
HETATM   22  N   UNL     1      40.787 -14.345  -1.020  1.00  0.00    -0.155 NA
HETATM   23  N   UNL     1      40.073 -14.060  -2.116  1.00  0.00    -0.283 N 
HETATM   24  C   UNL     1      40.727 -14.026  -3.401  1.00  0.00     0.179 C 
HETATM   25  C   UNL     1      38.755 -13.848  -1.865  1.00  0.00     0.115 A 
HETATM   26  C   UNL     1      38.619 -13.974  -0.503  1.00  0.00     0.071 A 
ENDBRANCH   4  21
TORSDOF 3
ENDMDL
MODEL 3
REMARK VINA RESULT:      -7.8      2.546      4.674
REMARK  3 active torsions:
REMARK  status: ('A' for Active; 'I' for Inactive)
REMARK    1  A    between atoms: C_6  and  C_7 
REMARK       I    between atoms: C_7  and  N_8 
REMARK    2  A    between atoms: N_8  and  C_9 
REMARK    3  A    between atoms: N_12  and  C_13 
ROOT
HETATM    1  C   UNL     1      40.677 -16.013   3.136  1.00  0.00     0.177 C 
HETATM    2  C   UNL     1      40.758 -15.696   1.623  1.00  0.00     0.248 C 
HETATM    3  O   UNL     1      41.125 -16.598   0.860  1.00  0.00    -0.271 OA
HETATM    4  N   UNL     1      40.347 -14.407   1.243  1.00  0.00    -0.299 N 
HETATM    5  C   UNL     1      40.509 -13.282   2.168  1.00  0.00     0.134 C 
HETATM    6  C   UNL     1      40.290 -13.630   3.630  1.00  0.00     0.023 C 
HETATM    7  C   UNL     1      41.129 -14.837   3.991  1.00  0.00     0.036 C 
ENDROOT
BRANCH   1   8
HETATM    8  N   UNL     1      41.476 -17.213   3.379  1.00  0.00    -0.344 N 
HETATM    9  C   UNL     1      42.830 -17.185   3.606  1.00  0.00     0.253 C 
HETATM   10  O   UNL     1      43.517 -16.175   3.523  1.00  0.00    -0.268 OA
HETATM   11  H   UNL     1      40.947 -18.026   3.691  1.00  0.00     0.163 HD
BRANCH   9  12
HETATM   12  C   UNL     1      43.433 -18.488   4.008  1.00  0.00     0.043 A 
HETATM   13  C   UNL     1      43.901 -19.399   3.034  1.00  0.00    -0.045 A 
HETATM   14  C   UNL     1      44.445 -20.626   3.456  1.00  0.00     0.014 A 
HETATM   15  C   UNL     1      43.839 -19.121   1.557  1.00  0.00     0.049 C 
HETATM   16  C   UNL     1      44.559 -20.940   4.813  1.00  0.00    -0.061 A 
HETATM   17  C   UNL     1      45.189 -22.230   5.252  1.00  0.00     0.048 C 
HETATM   18  C   UNL     1      44.132 -20.009   5.767  1.00  0.00     0.014 A 
HETATM   19  C   UNL     1      43.555 -18.788   5.383  1.00  0.00    -0.045 A 
HETATM   20  C   UNL     1      43.114 -17.827   6.455  1.00  0.00     0.049 C 
ENDBRANCH   9  12
ENDBRANCH   1   8
BRANCH   4  21
HETATM   21  C   UNL     1      40.096 -14.148  -0.117  1.00  0.00     0.154 A 
HETATM   22  N   UNL     1      41.045 -14.072  -1.055  1.00  0.00    -0.155 NA
HETATM   23  N   UNL     1      40.397 -13.800  -2.194  1.00  0.00    -0.283 N 
HETATM   24  C   UNL     1      41.147 -13.607  -3.411  1.00  0.00     0.179 C 
HETATM   25  C   UNL     1      39.046 -13.758  -2.054  1.00  0.00     0.115 A 
HETATM   26  C   UNL     1      38.813 -13.987  -0.718  1.00  0.00     0.071 A 
ENDBRANCH   4  21
TORSDOF 3
ENDMDL
MODEL 4
REMARK VINA RESULT:      -7.8      3.130      5.294
REMARK  3 active torsions:
REMARK  status: ('A' for Active; 'I' for Inactive)
REMARK    1  A    between atoms: C_6  and  C_7 
REMARK       I    between atoms: C_7  and  N_8 
REMARK    2  A    between atoms: N_8  and  C_9 
REMARK    3  A    between atoms: N_12  and  C_13 
ROOT
HETATM    1  C   UNL     1      42.029 -14.978   2.679  1.00  0.00     0.177 C 
HETATM    2  C   UNL     1      42.078 -15.049   1.133  1.00  0.00     0.248 C 
HETATM    3  O   UNL     1      42.324 -16.142   0.609  1.00  0.00    -0.271 OA
HETATM    4  N   UNL     1      41.778 -13.855   0.455  1.00  0.00    -0.299 N 
HETATM    5  C   UNL     1      42.085 -12.563   1.072  1.00  0.00     0.134 C 
HETATM    6  C   UNL     1      41.895 -12.520   2.577  1.00  0.00     0.023 C 
HETATM    7  C   UNL     1      42.627 -13.684   3.211  1.00  0.00     0.036 C 
ENDROOT
BRANCH   1   8
HETATM    8  N   UNL     1      42.718 -16.159   3.196  1.00  0.00    -0.344 N 
HETATM    9  C   UNL     1      42.062 -17.265   3.679  1.00  0.00     0.253 C 
HETATM   10  O   UNL     1      40.848 -17.331   3.824  1.00  0.00    -0.268 OA
HETATM   11  H   UNL     1      43.683 -16.263   2.888  1.00  0.00     0.163 HD
BRANCH   9  12
HETATM   12  C   UNL     1      42.935 -18.434   3.993  1.00  0.00     0.043 A 
HETATM   13  C   UNL     1      43.438 -19.258   2.961  1.00  0.00    -0.045 A 
HETATM   14  C   UNL     1      44.241 -20.361   3.303  1.00  0.00     0.014 A 
HETATM   15  C   UNL     1      43.150 -19.014   1.505  1.00  0.00     0.049 C 
HETATM   16  C   UNL     1      44.572 -20.633   4.633  1.00  0.00    -0.061 A 
HETATM   17  C   UNL     1      45.472 -21.782   4.980  1.00  0.00     0.048 C 
HETATM   18  C   UNL     1      44.103 -19.782   5.640  1.00  0.00     0.014 A 
HETATM   19  C   UNL     1      43.273 -18.689   5.340  1.00  0.00    -0.045 A 
HETATM   20  C   UNL     1      42.799 -17.810   6.467  1.00  0.00     0.049 C 
ENDBRANCH   9  12
ENDBRANCH   1   8
BRANCH   4  21
HETATM   21  C   UNL     1      41.496 -13.910  -0.923  1.00  0.00     0.154 A 
HETATM   22  N   UNL     1      40.432 -14.527  -1.449  1.00  0.00    -0.155 NA
HETATM   23  N   UNL     1      40.544 -14.359  -2.772  1.00  0.00    -0.283 N 
HETATM   24  C   UNL     1      39.563 -14.952  -3.649  1.00  0.00     0.179 C 
HETATM   25  C   UNL     1      41.608 -13.597  -3.135  1.00  0.00     0.115 A 
HETATM   26  C   UNL     1      42.246 -13.281  -1.960  1.00  0.00     0.071 A 
ENDBRANCH   4  21
TORSDOF 3
ENDMDL
MODEL 5
REMARK VINA RESULT:      -7.7      0.994      2.165
REMARK  3 active torsions:
REMARK  status: ('A' for Active; 'I' for Inactive)
REMARK    1  A    between atoms: C_6  and  C_7 
REMARK       I    between atoms: C_7  and  N_8 
REMARK    2  A    between atoms: N_8  and  C_9 
REMARK    3  A    between atoms: N_12  and  C_13 
ROOT
HETATM    1  C   UNL     1      41.455 -15.066   3.359  1.00  0.00     0.177 C 
HETATM    2  C   UNL     1      41.269 -14.387   4.738  1.00  0.00     0.248 C 
HETATM    3  O   UNL     1      41.894 -14.848   5.701  1.00  0.00    -0.271 OA
HETATM    4  N   UNL     1      40.434 -13.256   4.756  1.00  0.00    -0.299 N 
HETATM    5  C   UNL     1      39.326 -13.145   3.805  1.00  0.00     0.134 C 
HETATM    6  C   UNL     1      39.616 -13.715   2.428  1.00  0.00     0.023 C 
HETATM    7  C   UNL     1      40.154 -15.123   2.569  1.00  0.00     0.036 C 
ENDROOT
BRANCH   1   8
HETATM    8  N   UNL     1      42.018 -16.395   3.594  1.00  0.00    -0.344 N 
HETATM    9  C   UNL     1      43.308 -16.736   3.273  1.00  0.00     0.253 C 
HETATM   10  O   UNL     1      44.079 -16.003   2.666  1.00  0.00    -0.268 OA
HETATM   11  H   UNL     1      41.527 -16.952   4.292  1.00  0.00     0.163 HD
BRANCH   9  12
HETATM   12  C   UNL     1      43.748 -18.078   3.753  1.00  0.00     0.043 A 
HETATM   13  C   UNL     1      43.750 -19.192   2.883  1.00  0.00    -0.045 A 
HETATM   14  C   UNL     1      44.153 -20.443   3.382  1.00  0.00     0.014 A 
HETATM   15  C   UNL     1      43.331 -19.104   1.440  1.00  0.00     0.049 C 
HETATM   16  C   UNL     1      44.581 -20.594   4.704  1.00  0.00    -0.061 A 
HETATM   17  C   UNL     1      45.059 -21.924   5.209  1.00  0.00     0.048 C 
HETATM   18  C   UNL     1      44.616 -19.473   5.541  1.00  0.00     0.014 A 
HETATM   19  C   UNL     1      44.191 -18.213   5.087  1.00  0.00    -0.045 A 
HETATM   20  C   UNL     1      44.252 -17.045   6.035  1.00  0.00     0.049 C 
ENDBRANCH   9  12
ENDBRANCH   1   8
BRANCH   4  21
HETATM   21  C   UNL     1      40.462 -12.411   5.882  1.00  0.00     0.154 A 
HETATM   22  N   UNL     1      39.557 -12.440   6.865  1.00  0.00    -0.155 NA
HETATM   23  N   UNL     1      39.933 -11.482   7.721  1.00  0.00    -0.283 N 
HETATM   24  C   UNL     1      39.129 -11.216   8.889  1.00  0.00     0.179 C 
HETATM   25  C   UNL     1      41.092 -10.866   7.371  1.00  0.00     0.115 A 
HETATM   26  C   UNL     1      41.470 -11.449   6.185  1.00  0.00     0.071 A 
ENDBRANCH   4  21
TORSDOF 3
ENDMDL
MODEL 6
REMARK VINA RESULT:      -7.7      2.157      3.813
REMARK  3 active torsions:
REMARK  status: ('A' for Active; 'I' for Inactive)
REMARK    1  A    between atoms: C_6  and  C_7 
REMARK       I    between atoms: C_7  and  N_8 
REMARK    2  A    between atoms: N_8  and  C_9 
REMARK    3  A    between atoms: N_12  and  C_13 
ROOT
HETATM    1  C   UNL     1      42.136 -15.027   4.798  1.00  0.00     0.177 C 
HETATM    2  C   UNL     1      41.546 -14.315   3.555  1.00  0.00     0.248 C 
HETATM    3  O   UNL     1      41.372 -14.986   2.531  1.00  0.00    -0.271 OA
HETATM    4  N   UNL     1      41.207 -12.962   3.727  1.00  0.00    -0.299 N 
HETATM    5  C   UNL     1      41.951 -12.133   4.678  1.00  0.00     0.134 C 
HETATM    6  C   UNL     1      42.393 -12.857   5.937  1.00  0.00     0.023 C 
HETATM    7  C   UNL     1      43.109 -14.136   5.558  1.00  0.00     0.036 C 
ENDROOT
BRANCH   1   8
HETATM    8  N   UNL     1      42.763 -16.266   4.339  1.00  0.00    -0.344 N 
HETATM    9  C   UNL     1      42.217 -17.509   4.542  1.00  0.00     0.253 C 
HETATM   10  O   UNL     1      41.213 -17.714   5.213  1.00  0.00    -0.268 OA
HETATM   11  H   UNL     1      43.446 -16.151   3.592  1.00  0.00     0.163 HD
BRANCH   9  12
HETATM   12  C   UNL     1      42.913 -18.630   3.847  1.00  0.00     0.043 A 
HETATM   13  C   UNL     1      42.671 -18.893   2.479  1.00  0.00    -0.045 A 
HETATM   14  C   UNL     1      43.334 -19.972   1.868  1.00  0.00     0.014 A 
HETATM   15  C   UNL     1      41.727 -18.073   1.642  1.00  0.00     0.049 C 
HETATM   16  C   UNL     1      44.244 -20.761   2.576  1.00  0.00    -0.061 A 
HETATM   17  C   UNL     1      44.984 -21.876   1.898  1.00  0.00     0.048 C 
HETATM   18  C   UNL     1      44.507 -20.459   3.917  1.00  0.00     0.014 A 
HETATM   19  C   UNL     1      43.841 -19.409   4.571  1.00  0.00    -0.045 A 
HETATM   20  C   UNL     1      44.165 -19.135   6.015  1.00  0.00     0.049 C 
ENDBRANCH   9  12
ENDBRANCH   1   8
BRANCH   4  21
HETATM   21  C   UNL     1      40.390 -12.340   2.765  1.00  0.00     0.154 A 
HETATM   22  N   UNL     1      39.078 -12.566   2.634  1.00  0.00    -0.155 NA
HETATM   23  N   UNL     1      38.688 -11.799   1.608  1.00  0.00    -0.283 N 
HETATM   24  C   UNL     1      37.314 -11.843   1.170  1.00  0.00     0.179 C 
HETATM   25  C   UNL     1      39.682 -11.025   1.100  1.00  0.00     0.115 A 
HETATM   26  C   UNL     1      40.801 -11.344   1.832  1.00  0.00     0.071 A 
ENDBRANCH   4  21
TORSDOF 3
ENDMDL
MODEL 7
REMARK VINA RESULT:      -7.7      2.175      3.536
REMARK  3 active torsions:
REMARK  status: ('A' for Active; 'I' for Inactive)
REMARK    1  A    between atoms: C_6  and  C_7 
REMARK       I    between atoms: C_7  and  N_8 
REMARK    2  A    between atoms: N_8  and  C_9 
REMARK    3  A    between atoms: N_12  and  C_13 
ROOT
HETATM    1  C   UNL     1      42.074 -14.970   4.777  1.00  0.00     0.177 C 
HETATM    2  C   UNL     1      41.498 -14.271   3.521  1.00  0.00     0.248 C 
HETATM    3  O   UNL     1      41.347 -14.950   2.498  1.00  0.00    -0.271 OA
HETATM    4  N   UNL     1      41.141 -12.921   3.679  1.00  0.00    -0.299 N 
HETATM    5  C   UNL     1      41.860 -12.079   4.637  1.00  0.00     0.134 C 
HETATM    6  C   UNL     1      42.289 -12.790   5.908  1.00  0.00     0.023 C 
HETATM    7  C   UNL     1      43.025 -14.064   5.548  1.00  0.00     0.036 C 
ENDROOT
BRANCH   1   8
HETATM    8  N   UNL     1      42.722 -16.204   4.337  1.00  0.00    -0.344 N 
HETATM    9  C   UNL     1      42.189 -17.452   4.544  1.00  0.00     0.253 C 
HETATM   10  O   UNL     1      41.182 -17.664   5.207  1.00  0.00    -0.268 OA
HETATM   11  H   UNL     1      43.411 -16.087   3.595  1.00  0.00     0.163 HD
BRANCH   9  12
HETATM   12  C   UNL     1      42.907 -18.570   3.867  1.00  0.00     0.043 A 
HETATM   13  C   UNL     1      43.823 -19.377   4.578  1.00  0.00    -0.045 A 
HETATM   14  C   UNL     1      44.493 -20.409   3.896  1.00  0.00     0.014 A 
HETATM   15  C   UNL     1      44.123 -19.182   6.040  1.00  0.00     0.049 C 
HETATM   16  C   UNL     1      44.245 -20.666   2.545  1.00  0.00    -0.061 A 
HETATM   17  C   UNL     1      44.928 -21.802   1.842  1.00  0.00     0.048 C 
HETATM   18  C   UNL     1      43.302 -19.886   1.865  1.00  0.00     0.014 A 
HETATM   19  C   UNL     1      42.637 -18.828   2.505  1.00  0.00    -0.045 A 
HETATM   20  C   UNL     1      41.634 -18.024   1.721  1.00  0.00     0.049 C 
ENDBRANCH   9  12
ENDBRANCH   1   8
BRANCH   4  21
HETATM   21  C   UNL     1      40.333 -12.314   2.700  1.00  0.00     0.154 A 
HETATM   22  N   UNL     1      39.004 -12.443   2.636  1.00  0.00    -0.155 NA
HETATM   23  N   UNL     1      38.629 -11.731   1.566  1.00  0.00    -0.283 N 
HETATM   24  C   UNL     1      37.238 -11.699   1.184  1.00  0.00     0.179 C 
HETATM   25  C   UNL     1      39.657 -11.082   0.959  1.00  0.00     0.115 A 
HETATM   26  C   UNL     1      40.779 -11.431   1.673  1.00  0.00     0.071 A 
ENDBRANCH   4  21
TORSDOF 3
ENDMDL
MODEL 8
REMARK VINA RESULT:      -7.5      2.141      8.008
REMARK  3 active torsions:
REMARK  status: ('A' for Active; 'I' for Inactive)
REMARK    1  A    between atoms: C_6  and  C_7 
REMARK       I    between atoms: C_7  and  N_8 
REMARK    2  A    between atoms: N_8  and  C_9 
REMARK    3  A    between atoms: N_12  and  C_13 
ROOT
HETATM    1  C   UNL     1      43.170 -15.835   4.563  1.00  0.00     0.177 C 
HETATM    2  C   UNL     1      43.143 -17.341   4.206  1.00  0.00     0.248 C 
HETATM    3  O   UNL     1      42.444 -17.698   3.250  1.00  0.00    -0.271 OA
HETATM    4  N   UNL     1      43.973 -18.170   4.981  1.00  0.00    -0.299 N 
HETATM    5  C   UNL     1      44.265 -17.821   6.373  1.00  0.00     0.134 C 
HETATM    6  C   UNL     1      44.407 -16.333   6.635  1.00  0.00     0.023 C 
HETATM    7  C   UNL     1      43.207 -15.605   6.068  1.00  0.00     0.036 C 
ENDROOT
BRANCH   1   8
HETATM    8  N   UNL     1      42.004 -15.213   3.938  1.00  0.00    -0.344 N 
HETATM    9  C   UNL     1      42.093 -14.219   2.994  1.00  0.00     0.253 C 
HETATM   10  O   UNL     1      43.143 -13.684   2.661  1.00  0.00    -0.268 OA
HETATM   11  H   UNL     1      41.146 -15.760   3.987  1.00  0.00     0.163 HD
BRANCH   9  12
HETATM   12  C   UNL     1      40.804 -13.841   2.346  1.00  0.00     0.043 A 
HETATM   13  C   UNL     1      40.341 -14.527   1.201  1.00  0.00    -0.045 A 
HETATM   14  C   UNL     1      39.130 -14.125   0.610  1.00  0.00     0.014 A 
HETATM   15  C   UNL     1      41.090 -15.673   0.575  1.00  0.00     0.049 C 
HETATM   16  C   UNL     1      38.368 -13.087   1.153  1.00  0.00    -0.061 A 
HETATM   17  C   UNL     1      37.051 -12.702   0.544  1.00  0.00     0.048 C 
HETATM   18  C   UNL     1      38.817 -12.446   2.313  1.00  0.00     0.014 A 
HETATM   19  C   UNL     1      40.037 -12.800   2.913  1.00  0.00    -0.045 A 
HETATM   20  C   UNL     1      40.467 -12.073   4.159  1.00  0.00     0.049 C 
ENDBRANCH   9  12
ENDBRANCH   1   8
BRANCH   4  21
HETATM   21  C   UNL     1      44.242 -19.474   4.527  1.00  0.00     0.154 A 
HETATM   22  N   UNL     1      44.208 -19.845   3.243  1.00  0.00    -0.155 NA
HETATM   23  N   UNL     1      44.506 -21.151   3.243  1.00  0.00    -0.283 N 
HETATM   24  C   UNL     1      44.510 -21.879   1.998  1.00  0.00     0.179 C 
HETATM   25  C   UNL     1      44.799 -21.640   4.475  1.00  0.00     0.115 A 
HETATM   26  C   UNL     1      44.647 -20.578   5.334  1.00  0.00     0.071 A 
ENDBRANCH   4  21
TORSDOF 3
ENDMDL
MODEL 9
REMARK VINA RESULT:      -7.4      3.514      6.153
REMARK  3 active torsions:
REMARK  status: ('A' for Active; 'I' for Inactive)
REMARK    1  A    between atoms: C_6  and  C_7 
REMARK       I    between atoms: C_7  and  N_8 
REMARK    2  A    between atoms: N_8  and  C_9 
REMARK    3  A    between atoms: N_12  and  C_13 
ROOT
HETATM    1  C   UNL     1      42.488 -15.448   5.035  1.00  0.00     0.177 C 
HETATM    2  C   UNL     1      43.627 -14.502   5.488  1.00  0.00     0.248 C 
HETATM    3  O   UNL     1      43.969 -13.596   4.718  1.00  0.00    -0.271 OA
HETATM    4  N   UNL     1      44.137 -14.730   6.778  1.00  0.00    -0.299 N 
HETATM    5  C   UNL     1      44.131 -16.082   7.341  1.00  0.00     0.134 C 
HETATM    6  C   UNL     1      42.923 -16.919   6.964  1.00  0.00     0.023 C 
HETATM    7  C   UNL     1      42.738 -16.888   5.461  1.00  0.00     0.036 C 
ENDROOT
BRANCH   1   8
HETATM    8  N   UNL     1      42.355 -15.315   3.586  1.00  0.00    -0.344 N 
HETATM    9  C   UNL     1      41.158 -15.082   2.954  1.00  0.00     0.253 C 
HETATM   10  O   UNL     1      40.075 -15.067   3.526  1.00  0.00    -0.268 OA
HETATM   11  H   UNL     1      43.217 -15.082   3.095  1.00  0.00     0.163 HD
BRANCH   9  12
HETATM   12  C   UNL     1      41.255 -14.800   1.493  1.00  0.00     0.043 A 
HETATM   13  C   UNL     1      41.442 -13.481   1.022  1.00  0.00    -0.045 A 
HETATM   14  C   UNL     1      41.508 -13.258  -0.365  1.00  0.00     0.014 A 
HETATM   15  C   UNL     1      41.569 -12.295   1.939  1.00  0.00     0.049 C 
HETATM   16  C   UNL     1      41.425 -14.315  -1.275  1.00  0.00    -0.061 A 
HETATM   17  C   UNL     1      41.549 -14.069  -2.750  1.00  0.00     0.048 C 
HETATM   18  C   UNL     1      41.284 -15.620  -0.792  1.00  0.00     0.014 A 
HETATM   19  C   UNL     1      41.183 -15.879   0.585  1.00  0.00    -0.045 A 
HETATM   20  C   UNL     1      41.032 -17.305   1.044  1.00  0.00     0.049 C 
ENDBRANCH   9  12
ENDBRANCH   1   8
BRANCH   4  21
HETATM   21  C   UNL     1      44.937 -13.739   7.376  1.00  0.00     0.154 A 
HETATM   22  N   UNL     1      44.622 -13.099   8.507  1.00  0.00    -0.155 NA
HETATM   23  N   UNL     1      45.625 -12.239   8.720  1.00  0.00    -0.283 N 
HETATM   24  C   UNL     1      45.571 -11.350   9.855  1.00  0.00     0.179 C 
HETATM   25  C   UNL     1      46.625 -12.334   7.805  1.00  0.00     0.115 A 
HETATM   26  C   UNL     1      46.217 -13.304   6.921  1.00  0.00     0.071 A 
ENDBRANCH   4  21
TORSDOF 3
ENDMDL
MODEL 10
REMARK VINA RESULT:      -7.4      2.279      7.835
REMARK  3 active torsions:
REMARK  status: ('A' for Active; 'I' for Inactive)
REMARK    1  A    between atoms: C_6  and  C_7 
REMARK       I    between atoms: C_7  and  N_8 
REMARK    2  A    between atoms: N_8  and  C_9 
REMARK    3  A    between atoms: N_12  and  C_13 
ROOT
HETATM    1  C   UNL     1      43.112 -15.443   4.613  1.00  0.00     0.177 C 
HETATM    2  C   UNL     1      43.119 -16.946   4.240  1.00  0.00     0.248 C 
HETATM    3  O   UNL     1      42.423 -17.309   3.284  1.00  0.00    -0.271 OA
HETATM    4  N   UNL     1      43.974 -17.762   4.999  1.00  0.00    -0.299 N 
HETATM    5  C   UNL     1      44.267 -17.423   6.393  1.00  0.00     0.134 C 
HETATM    6  C   UNL     1      44.375 -15.934   6.672  1.00  0.00     0.023 C 
HETATM    7  C   UNL     1      43.154 -15.229   6.120  1.00  0.00     0.036 C 
ENDROOT
BRANCH   1   8
HETATM    8  N   UNL     1      41.928 -14.842   4.002  1.00  0.00    -0.344 N 
HETATM    9  C   UNL     1      41.988 -13.901   3.004  1.00  0.00     0.253 C 
HETATM   10  O   UNL     1      43.028 -13.395   2.603  1.00  0.00    -0.268 OA
HETATM   11  H   UNL     1      41.068 -15.377   4.115  1.00  0.00     0.163 HD
BRANCH   9  12
HETATM   12  C   UNL     1      40.677 -13.543   2.389  1.00  0.00     0.043 A 
HETATM   13  C   UNL     1      39.898 -12.486   2.912  1.00  0.00    -0.045 A 
HETATM   14  C   UNL     1      38.659 -12.194   2.314  1.00  0.00     0.014 A 
HETATM   15  C   UNL     1      40.331 -11.655   4.090  1.00  0.00     0.049 C 
HETATM   16  C   UNL     1      38.205 -12.906   1.200  1.00  0.00    -0.061 A 
HETATM   17  C   UNL     1      36.906 -12.550   0.540  1.00  0.00     0.048 C 
HETATM   18  C   UNL     1      39.008 -13.921   0.667  1.00  0.00     0.014 A 
HETATM   19  C   UNL     1      40.237 -14.261   1.256  1.00  0.00    -0.045 A 
HETATM   20  C   UNL     1      41.056 -15.362   0.636  1.00  0.00     0.049 C 
ENDBRANCH   9  12
ENDBRANCH   1   8
BRANCH   4  21
HETATM   21  C   UNL     1      44.272 -19.055   4.529  1.00  0.00     0.154 A 
HETATM   22  N   UNL     1      44.475 -20.114   5.320  1.00  0.00    -0.155 NA
HETATM   23  N   UNL     1      44.740 -21.130   4.491  1.00  0.00    -0.283 N 
HETATM   24  C   UNL     1      45.056 -22.429   5.035  1.00  0.00     0.179 C 
HETATM   25  C   UNL     1      44.654 -20.796   3.177  1.00  0.00     0.115 A 
HETATM   26  C   UNL     1      44.344 -19.457   3.163  1.00  0.00     0.071 A 
ENDBRANCH   4  21
TORSDOF 3
ENDMDL
