MODEL 1
REMARK VINA RESULT:      -7.6      0.000      0.000
REMARK  2 active torsions:
REMARK  status: ('A' for Active; 'I' for Inactive)
REMARK    1  A    between atoms: S_2  and  N_3 
REMARK    2  A    between atoms: C_10  and  N_11 
ROOT
HETATM    1  N   UNL     1      41.423 -15.711   2.901  1.00  0.00    -0.311 N 
HETATM    2  C   UNL     1      42.843 -15.327   3.065  1.00  0.00     0.138 C 
HETATM    3  C   UNL     1      43.323 -15.572   4.495  1.00  0.00     0.059 C 
HETATM    4  C   UNL     1      43.014 -16.996   5.009  1.00  0.00     0.073 C 
HETATM    5  O   UNL     1      43.904 -17.879   4.301  1.00  0.00    -0.339 OA
HETATM    6  C   UNL     1      44.103 -19.125   4.826  1.00  0.00     0.078 A 
HETATM    7  C   UNL     1      43.772 -19.483   6.138  1.00  0.00     0.005 A 
HETATM    8  C   UNL     1      43.177 -18.459   7.061  1.00  0.00     0.222 C 
HETATM    9  C   UNL     1      43.342 -17.045   6.510  1.00  0.00     0.076 C 
HETATM   10  C   UNL     1      44.680 -20.053   3.958  1.00  0.00     0.037 A 
HETATM   11  C   UNL     1      44.894 -21.363   4.377  1.00  0.00     0.003 A 
HETATM   12  C   UNL     1      44.525 -21.748   5.662  1.00  0.00     0.001 A 
HETATM   13  C   UNL     1      43.961 -20.818   6.538  1.00  0.00     0.012 A 
HETATM   14  C   UNL     1      41.545 -17.372   4.708  1.00  0.00     0.059 C 
HETATM   15  C   UNL     1      41.193 -17.130   3.244  1.00  0.00     0.138 C 
ENDROOT
BRANCH   8  16
HETATM   16  N   UNL     1      43.802 -18.478   8.417  1.00  0.00    -0.071 N 
HETATM   17  H   UNL     1      43.133 -18.779   9.134  1.00  0.00     0.275 HD
HETATM   18  H   UNL     1      44.593 -19.135   8.439  1.00  0.00     0.275 HD
HETATM   19  H   UNL     1      44.149 -17.550   8.691  1.00  0.00     0.275 HD
ENDBRANCH   8  16
BRANCH   1  20
HETATM   20  S   UNL     1      40.218 -14.609   3.371  1.00  0.00     0.224 S 
HETATM   21  C   UNL     1      40.971 -13.041   2.988  1.00  0.00     0.186 C 
HETATM   22  O   UNL     1      40.057 -14.731   4.805  1.00  0.00    -0.206 OA
HETATM   23  O   UNL     1      39.088 -14.791   2.487  1.00  0.00    -0.206 OA
ENDBRANCH   1  20
TORSDOF 2
ENDMDL
MODEL 2
REMARK VINA RESULT:      -7.5      2.592      3.793
REMARK  2 active torsions:
REMARK  status: ('A' for Active; 'I' for Inactive)
REMARK    1  A    between atoms: S_2  and  N_3 
REMARK    2  A    between atoms: C_10  and  N_11 
ROOT
HETATM    1  N   UNL     1      40.965 -14.945   1.381  1.00  0.00    -0.311 N 
HETATM    2  C   UNL     1      40.041 -16.005   1.845  1.00  0.00     0.138 C 
HETATM    3  C   UNL     1      40.692 -17.386   1.761  1.00  0.00     0.059 C 
HETATM    4  C   UNL     1      42.080 -17.450   2.436  1.00  0.00     0.073 C 
HETATM    5  O   UNL     1      41.839 -17.382   3.853  1.00  0.00    -0.339 OA
HETATM    6  C   UNL     1      42.845 -17.793   4.683  1.00  0.00     0.078 A 
HETATM    7  C   UNL     1      43.940 -18.560   4.265  1.00  0.00     0.005 A 
HETATM    8  C   UNL     1      44.040 -18.993   2.830  1.00  0.00     0.222 C 
HETATM    9  C   UNL     1      42.716 -18.807   2.095  1.00  0.00     0.076 C 
HETATM   10  C   UNL     1      42.717 -17.402   6.016  1.00  0.00     0.037 A 
HETATM   11  C   UNL     1      43.704 -17.733   6.940  1.00  0.00     0.003 A 
HETATM   12  C   UNL     1      44.823 -18.452   6.530  1.00  0.00     0.001 A 
HETATM   13  C   UNL     1      44.946 -18.860   5.200  1.00  0.00     0.012 A 
HETATM   14  C   UNL     1      42.954 -16.255   1.990  1.00  0.00     0.059 C 
HETATM   15  C   UNL     1      42.220 -14.930   2.162  1.00  0.00     0.138 C 
ENDROOT
BRANCH   8  16
HETATM   16  N   UNL     1      44.424 -20.429   2.691  1.00  0.00    -0.071 N 
HETATM   17  H   UNL     1      45.377 -20.529   2.325  1.00  0.00     0.275 HD
HETATM   18  H   UNL     1      44.394 -20.899   3.605  1.00  0.00     0.275 HD
HETATM   19  H   UNL     1      43.796 -20.932   2.052  1.00  0.00     0.275 HD
ENDBRANCH   8  16
BRANCH   1  20
HETATM   20  S   UNL     1      41.102 -14.652  -0.287  1.00  0.00     0.224 S 
HETATM   21  C   UNL     1      39.489 -14.012  -0.691  1.00  0.00     0.186 C 
HETATM   22  O   UNL     1      41.291 -15.931  -0.937  1.00  0.00    -0.206 OA
HETATM   23  O   UNL     1      42.064 -13.587  -0.468  1.00  0.00    -0.206 OA
ENDBRANCH   1  20
TORSDOF 2
ENDMDL
MODEL 3
REMARK VINA RESULT:      -7.2      1.684      2.222
REMARK  2 active torsions:
REMARK  status: ('A' for Active; 'I' for Inactive)
REMARK    1  A    between atoms: S_2  and  N_3 
REMARK    2  A    between atoms: C_10  and  N_11 
ROOT
HETATM    1  N   UNL     1      40.360 -15.248   1.156  1.00  0.00    -0.311 N 
HETATM    2  C   UNL     1      41.737 -14.778   0.883  1.00  0.00     0.138 C 
HETATM    3  C   UNL     1      42.550 -14.659   2.171  1.00  0.00     0.059 C 
HETATM    4  C   UNL     1      42.504 -15.934   3.043  1.00  0.00     0.073 C 
HETATM    5  O   UNL     1      43.291 -16.921   2.351  1.00  0.00    -0.339 OA
HETATM    6  C   UNL     1      43.723 -18.000   3.071  1.00  0.00     0.078 A 
HETATM    7  C   UNL     1      43.734 -18.051   4.471  1.00  0.00     0.005 A 
HETATM    8  C   UNL     1      43.269 -16.864   5.263  1.00  0.00     0.222 C 
HETATM    9  C   UNL     1      43.168 -15.615   4.393  1.00  0.00     0.076 C 
HETATM   10  C   UNL     1      44.174 -19.081   2.315  1.00  0.00     0.037 A 
HETATM   11  C   UNL     1      44.602 -20.246   2.945  1.00  0.00     0.003 A 
HETATM   12  C   UNL     1      44.573 -20.332   4.333  1.00  0.00     0.001 A 
HETATM   13  C   UNL     1      44.136 -19.245   5.095  1.00  0.00     0.012 A 
HETATM   14  C   UNL     1      41.049 -16.430   3.199  1.00  0.00     0.059 C 
HETATM   15  C   UNL     1      40.352 -16.554   1.848  1.00  0.00     0.138 C 
ENDROOT
BRANCH   8  16
HETATM   16  N   UNL     1      44.184 -16.537   6.397  1.00  0.00    -0.071 N 
HETATM   17  H   UNL     1      44.939 -15.909   6.100  1.00  0.00     0.275 HD
HETATM   18  H   UNL     1      43.668 -16.065   7.150  1.00  0.00     0.275 HD
HETATM   19  H   UNL     1      44.623 -17.380   6.788  1.00  0.00     0.275 HD
ENDBRANCH   8  16
BRANCH   1  20
HETATM   20  S   UNL     1      39.193 -14.116   1.653  1.00  0.00     0.224 S 
HETATM   21  C   UNL     1      39.576 -12.707   0.632  1.00  0.00     0.186 C 
HETATM   22  O   UNL     1      39.463 -13.797   3.039  1.00  0.00    -0.206 OA
HETATM   23  O   UNL     1      37.897 -14.619   1.254  1.00  0.00    -0.206 OA
ENDBRANCH   1  20
TORSDOF 2
ENDMDL
MODEL 4
REMARK VINA RESULT:      -6.9      2.141      2.762
REMARK  2 active torsions:
REMARK  status: ('A' for Active; 'I' for Inactive)
REMARK    1  A    between atoms: S_2  and  N_3 
REMARK    2  A    between atoms: C_10  and  N_11 
ROOT
HETATM    1  N   UNL     1      40.744 -13.245   3.851  1.00  0.00    -0.311 N 
HETATM    2  C   UNL     1      42.150 -12.887   3.557  1.00  0.00     0.138 C 
HETATM    3  C   UNL     1      43.118 -13.624   4.482  1.00  0.00     0.059 C 
HETATM    4  C   UNL     1      42.875 -15.149   4.531  1.00  0.00     0.073 C 
HETATM    5  O   UNL     1      43.315 -15.665   3.261  1.00  0.00    -0.339 OA
HETATM    6  C   UNL     1      43.562 -17.007   3.178  1.00  0.00     0.078 A 
HETATM    7  C   UNL     1      43.729 -17.842   4.290  1.00  0.00     0.005 A 
HETATM    8  C   UNL     1      43.659 -17.261   5.673  1.00  0.00     0.222 C 
HETATM    9  C   UNL     1      43.753 -15.738   5.647  1.00  0.00     0.076 C 
HETATM   10  C   UNL     1      43.650 -17.519   1.883  1.00  0.00     0.037 A 
HETATM   11  C   UNL     1      43.861 -18.880   1.682  1.00  0.00     0.003 A 
HETATM   12  C   UNL     1      43.980 -19.732   2.776  1.00  0.00     0.001 A 
HETATM   13  C   UNL     1      43.908 -19.219   4.074  1.00  0.00     0.012 A 
HETATM   14  C   UNL     1      41.373 -15.452   4.733  1.00  0.00     0.059 C 
HETATM   15  C   UNL     1      40.510 -14.699   3.727  1.00  0.00     0.138 C 
ENDROOT
BRANCH   8  16
HETATM   16  N   UNL     1      44.755 -17.755   6.558  1.00  0.00    -0.071 N 
HETATM   17  H   UNL     1      44.388 -18.107   7.448  1.00  0.00     0.275 HD
HETATM   18  H   UNL     1      45.261 -18.528   6.106  1.00  0.00     0.275 HD
HETATM   19  H   UNL     1      45.432 -17.014   6.777  1.00  0.00     0.275 HD
ENDBRANCH   8  16
BRANCH   1  20
HETATM   20  S   UNL     1      39.948 -12.452   5.127  1.00  0.00     0.224 S 
HETATM   21  C   UNL     1      38.731 -11.479   4.263  1.00  0.00     0.186 C 
HETATM   22  O   UNL     1      40.910 -11.574   5.757  1.00  0.00    -0.206 OA
HETATM   23  O   UNL     1      39.252 -13.456   5.901  1.00  0.00    -0.206 OA
ENDBRANCH   1  20
TORSDOF 2
ENDMDL
MODEL 5
REMARK VINA RESULT:      -6.2      5.370      8.186
REMARK  2 active torsions:
REMARK  status: ('A' for Active; 'I' for Inactive)
REMARK    1  A    between atoms: S_2  and  N_3 
REMARK    2  A    between atoms: C_10  and  N_11 
ROOT
HETATM    1  N   UNL     1      39.565 -14.253   2.921  1.00  0.00    -0.311 N 
HETATM    2  C   UNL     1      39.436 -12.897   2.339  1.00  0.00     0.138 C 
HETATM    3  C   UNL     1      40.410 -12.696   1.179  1.00  0.00     0.059 C 
HETATM    4  C   UNL     1      40.345 -13.822   0.123  1.00  0.00     0.073 C 
HETATM    5  O   UNL     1      39.098 -13.644  -0.575  1.00  0.00    -0.339 OA
HETATM    6  C   UNL     1      38.963 -14.259  -1.789  1.00  0.00     0.078 A 
HETATM    7  C   UNL     1      40.036 -14.766  -2.532  1.00  0.00     0.005 A 
HETATM    8  C   UNL     1      41.436 -14.627  -2.008  1.00  0.00     0.222 C 
HETATM    9  C   UNL     1      41.508 -13.622  -0.862  1.00  0.00     0.076 C 
HETATM   10  C   UNL     1      37.657 -14.353  -2.268  1.00  0.00     0.037 A 
HETATM   11  C   UNL     1      37.399 -14.993  -3.477  1.00  0.00     0.003 A 
HETATM   12  C   UNL     1      38.449 -15.546  -4.204  1.00  0.00     0.001 A 
HETATM   13  C   UNL     1      39.760 -15.440  -3.735  1.00  0.00     0.012 A 
HETATM   14  C   UNL     1      40.376 -15.207   0.807  1.00  0.00     0.059 C 
HETATM   15  C   UNL     1      39.332 -15.309   1.914  1.00  0.00     0.138 C 
ENDROOT
BRANCH   8  16
HETATM   16  N   UNL     1      42.398 -14.171  -3.055  1.00  0.00    -0.071 N 
HETATM   17  H   UNL     1      42.410 -13.149  -3.133  1.00  0.00     0.275 HD
HETATM   18  H   UNL     1      43.353 -14.473  -2.821  1.00  0.00     0.275 HD
HETATM   19  H   UNL     1      42.161 -14.548  -3.981  1.00  0.00     0.275 HD
ENDBRANCH   8  16
BRANCH   1  20
HETATM   20  S   UNL     1      40.796 -14.541   4.057  1.00  0.00     0.224 S 
HETATM   21  C   UNL     1      40.080 -13.906   5.559  1.00  0.00     0.186 C 
HETATM   22  O   UNL     1      41.931 -13.725   3.680  1.00  0.00    -0.206 OA
HETATM   23  O   UNL     1      40.936 -15.973   4.198  1.00  0.00    -0.206 OA
ENDBRANCH   1  20
TORSDOF 2
ENDMDL
MODEL 6
REMARK VINA RESULT:      -6.2      2.845      6.105
REMARK  2 active torsions:
REMARK  status: ('A' for Active; 'I' for Inactive)
REMARK    1  A    between atoms: S_2  and  N_3 
REMARK    2  A    between atoms: C_10  and  N_11 
ROOT
HETATM    1  N   UNL     1      42.353 -17.751   3.106  1.00  0.00    -0.311 N 
HETATM    2  C   UNL     1      41.751 -18.106   4.412  1.00  0.00     0.138 C 
HETATM    3  C   UNL     1      42.402 -17.326   5.554  1.00  0.00     0.059 C 
HETATM    4  C   UNL     1      42.456 -15.802   5.302  1.00  0.00     0.073 C 
HETATM    5  O   UNL     1      41.102 -15.328   5.426  1.00  0.00    -0.339 OA
HETATM    6  C   UNL     1      40.920 -13.988   5.623  1.00  0.00     0.078 A 
HETATM    7  C   UNL     1      41.935 -13.112   6.028  1.00  0.00     0.005 A 
HETATM    8  C   UNL     1      43.315 -13.643   6.291  1.00  0.00     0.222 C 
HETATM    9  C   UNL     1      43.317 -15.165   6.404  1.00  0.00     0.076 C 
HETATM   10  C   UNL     1      39.625 -13.522   5.398  1.00  0.00     0.037 A 
HETATM   11  C   UNL     1      39.335 -12.167   5.532  1.00  0.00     0.003 A 
HETATM   12  C   UNL     1      40.344 -11.276   5.886  1.00  0.00     0.001 A 
HETATM   13  C   UNL     1      41.639 -11.741   6.127  1.00  0.00     0.012 A 
HETATM   14  C   UNL     1      42.992 -15.508   3.883  1.00  0.00     0.059 C 
HETATM   15  C   UNL     1      42.239 -16.305   2.823  1.00  0.00     0.138 C 
ENDROOT
BRANCH   8  16
HETATM   16  N   UNL     1      43.904 -13.107   7.553  1.00  0.00    -0.071 N 
HETATM   17  H   UNL     1      43.175 -12.824   8.217  1.00  0.00     0.275 HD
HETATM   18  H   UNL     1      44.478 -13.825   8.015  1.00  0.00     0.275 HD
HETATM   19  H   UNL     1      44.497 -12.286   7.380  1.00  0.00     0.275 HD
ENDBRANCH   8  16
BRANCH   1  20
HETATM   20  S   UNL     1      43.804 -18.505   2.642  1.00  0.00     0.224 S 
HETATM   21  C   UNL     1      43.225 -20.046   1.960  1.00  0.00     0.186 C 
HETATM   22  O   UNL     1      44.561 -18.765   3.848  1.00  0.00    -0.206 OA
HETATM   23  O   UNL     1      44.378 -17.728   1.567  1.00  0.00    -0.206 OA
ENDBRANCH   1  20
TORSDOF 2
ENDMDL
MODEL 7
REMARK VINA RESULT:      -6.1      2.623      6.570
REMARK  2 active torsions:
REMARK  status: ('A' for Active; 'I' for Inactive)
REMARK    1  A    between atoms: S_2  and  N_3 
REMARK    2  A    between atoms: C_10  and  N_11 
ROOT
HETATM    1  N   UNL     1      42.797 -17.756   5.417  1.00  0.00    -0.311 N 
HETATM    2  C   UNL     1      41.590 -17.293   6.140  1.00  0.00     0.138 C 
HETATM    3  C   UNL     1      41.534 -15.767   6.207  1.00  0.00     0.059 C 
HETATM    4  C   UNL     1      41.719 -15.088   4.831  1.00  0.00     0.073 C 
HETATM    5  O   UNL     1      40.509 -15.342   4.093  1.00  0.00    -0.339 OA
HETATM    6  C   UNL     1      40.255 -14.549   3.009  1.00  0.00     0.078 A 
HETATM    7  C   UNL     1      40.900 -13.331   2.762  1.00  0.00     0.005 A 
HETATM    8  C   UNL     1      41.926 -12.822   3.734  1.00  0.00     0.222 C 
HETATM    9  C   UNL     1      41.863 -13.574   5.060  1.00  0.00     0.076 C 
HETATM   10  C   UNL     1      39.280 -15.029   2.134  1.00  0.00     0.037 A 
HETATM   11  C   UNL     1      38.968 -14.321   0.978  1.00  0.00     0.003 A 
HETATM   12  C   UNL     1      39.636 -13.134   0.692  1.00  0.00     0.001 A 
HETATM   13  C   UNL     1      40.601 -12.642   1.574  1.00  0.00     0.012 A 
HETATM   14  C   UNL     1      42.930 -15.694   4.087  1.00  0.00     0.059 C 
HETATM   15  C   UNL     1      42.856 -17.217   4.043  1.00  0.00     0.138 C 
ENDROOT
BRANCH   8  16
HETATM   16  N   UNL     1      41.753 -11.372   4.042  1.00  0.00    -0.071 N 
HETATM   17  H   UNL     1      41.704 -11.206   5.053  1.00  0.00     0.275 HD
HETATM   18  H   UNL     1      42.550 -10.830   3.680  1.00  0.00     0.275 HD
HETATM   19  H   UNL     1      40.894 -10.993   3.626  1.00  0.00     0.275 HD
ENDBRANCH   8  16
BRANCH   1  20
HETATM   20  S   UNL     1      44.269 -17.854   6.261  1.00  0.00     0.224 S 
HETATM   21  C   UNL     1      43.818 -18.807   7.697  1.00  0.00     0.186 C 
HETATM   22  O   UNL     1      44.625 -16.510   6.665  1.00  0.00    -0.206 OA
HETATM   23  O   UNL     1      45.179 -18.647   5.465  1.00  0.00    -0.206 OA
ENDBRANCH   1  20
TORSDOF 2
ENDMDL
MODEL 8
REMARK VINA RESULT:      -6.0      3.395      7.244
REMARK  2 active torsions:
REMARK  status: ('A' for Active; 'I' for Inactive)
REMARK    1  A    between atoms: S_2  and  N_3 
REMARK    2  A    between atoms: C_10  and  N_11 
ROOT
HETATM    1  N   UNL     1      42.978 -16.215   3.392  1.00  0.00    -0.311 N 
HETATM    2  C   UNL     1      42.295 -17.333   2.702  1.00  0.00     0.138 C 
HETATM    3  C   UNL     1      40.812 -17.031   2.489  1.00  0.00     0.059 C 
HETATM    4  C   UNL     1      40.556 -15.659   1.827  1.00  0.00     0.073 C 
HETATM    5  O   UNL     1      40.975 -15.792   0.456  1.00  0.00    -0.339 OA
HETATM    6  C   UNL     1      40.515 -14.864  -0.436  1.00  0.00     0.078 A 
HETATM    7  C   UNL     1      39.436 -14.007  -0.186  1.00  0.00     0.005 A 
HETATM    8  C   UNL     1      38.701 -14.097   1.120  1.00  0.00     0.222 C 
HETATM    9  C   UNL     1      39.045 -15.382   1.869  1.00  0.00     0.076 C 
HETATM   10  C   UNL     1      41.196 -14.816  -1.652  1.00  0.00     0.037 A 
HETATM   11  C   UNL     1      40.836 -13.882  -2.619  1.00  0.00     0.003 A 
HETATM   12  C   UNL     1      39.798 -12.990  -2.368  1.00  0.00     0.001 A 
HETATM   13  C   UNL     1      39.104 -13.046  -1.156  1.00  0.00     0.012 A 
HETATM   14  C   UNL     1      41.382 -14.557   2.528  1.00  0.00     0.059 C 
HETATM   15  C   UNL     1      42.852 -14.947   2.643  1.00  0.00     0.138 C 
ENDROOT
BRANCH   8  16
HETATM   16  N   UNL     1      37.219 -14.071   0.947  1.00  0.00    -0.071 N 
HETATM   17  H   UNL     1      36.831 -13.148   1.171  1.00  0.00     0.275 HD
HETATM   18  H   UNL     1      36.967 -14.283  -0.027  1.00  0.00     0.275 HD
HETATM   19  H   UNL     1      36.751 -14.756   1.554  1.00  0.00     0.275 HD
ENDBRANCH   8  16
BRANCH   1  20
HETATM   20  S   UNL     1      42.874 -16.112   5.086  1.00  0.00     0.224 S 
HETATM   21  C   UNL     1      43.904 -17.468   5.609  1.00  0.00     0.186 C 
HETATM   22  O   UNL     1      41.499 -16.381   5.451  1.00  0.00    -0.206 OA
HETATM   23  O   UNL     1      43.515 -14.881   5.491  1.00  0.00    -0.206 OA
ENDBRANCH   1  20
TORSDOF 2
ENDMDL
MODEL 9
REMARK VINA RESULT:      -6.0      3.559      7.418
REMARK  2 active torsions:
REMARK  status: ('A' for Active; 'I' for Inactive)
REMARK    1  A    between atoms: S_2  and  N_3 
REMARK    2  A    between atoms: C_10  and  N_11 
ROOT
HETATM    1  N   UNL     1      41.769 -17.445   2.464  1.00  0.00    -0.311 N 
HETATM    2  C   UNL     1      40.377 -16.981   2.266  1.00  0.00     0.138 C 
HETATM    3  C   UNL     1      40.284 -15.457   2.339  1.00  0.00     0.059 C 
HETATM    4  C   UNL     1      41.302 -14.737   1.426  1.00  0.00     0.073 C 
HETATM    5  O   UNL     1      40.845 -14.943   0.077  1.00  0.00    -0.339 OA
HETATM    6  C   UNL     1      41.339 -14.110  -0.889  1.00  0.00     0.078 A 
HETATM    7  C   UNL     1      41.987 -12.898  -0.619  1.00  0.00     0.005 A 
HETATM    8  C   UNL     1      42.151 -12.442   0.802  1.00  0.00     0.222 C 
HETATM    9  C   UNL     1      41.258 -13.236   1.752  1.00  0.00     0.076 C 
HETATM   10  C   UNL     1      41.152 -14.542  -2.202  1.00  0.00     0.037 A 
HETATM   11  C   UNL     1      41.648 -13.790  -3.263  1.00  0.00     0.003 A 
HETATM   12  C   UNL     1      42.338 -12.608  -3.010  1.00  0.00     0.001 A 
HETATM   13  C   UNL     1      42.513 -12.165  -1.697  1.00  0.00     0.012 A 
HETATM   14  C   UNL     1      42.712 -15.344   1.606  1.00  0.00     0.059 C 
HETATM   15  C   UNL     1      42.691 -16.862   1.466  1.00  0.00     0.138 C 
ENDROOT
BRANCH   8  16
HETATM   16  N   UNL     1      41.814 -10.999   0.983  1.00  0.00    -0.071 N 
HETATM   17  H   UNL     1      41.911 -10.478   0.105  1.00  0.00     0.275 HD
HETATM   18  H   UNL     1      40.840 -10.894   1.297  1.00  0.00     0.275 HD
HETATM   19  H   UNL     1      42.424 -10.549   1.676  1.00  0.00     0.275 HD
ENDBRANCH   8  16
BRANCH   1  20
HETATM   20  S   UNL     1      42.362 -17.600   4.049  1.00  0.00     0.224 S 
HETATM   21  C   UNL     1      43.539 -18.927   3.883  1.00  0.00     0.186 C 
HETATM   22  O   UNL     1      41.260 -18.034   4.882  1.00  0.00    -0.206 OA
HETATM   23  O   UNL     1      43.090 -16.392   4.365  1.00  0.00    -0.206 OA
ENDBRANCH   1  20
TORSDOF 2
ENDMDL
MODEL 10
REMARK VINA RESULT:      -5.9      2.900      3.837
REMARK  2 active torsions:
REMARK  status: ('A' for Active; 'I' for Inactive)
REMARK    1  A    between atoms: S_2  and  N_3 
REMARK    2  A    between atoms: C_10  and  N_11 
ROOT
HETATM    1  N   UNL     1      40.155 -11.814   3.053  1.00  0.00    -0.311 N 
HETATM    2  C   UNL     1      41.444 -11.618   3.754  1.00  0.00     0.138 C 
HETATM    3  C   UNL     1      41.607 -12.611   4.904  1.00  0.00     0.059 C 
HETATM    4  C   UNL     1      41.357 -14.078   4.486  1.00  0.00     0.073 C 
HETATM    5  O   UNL     1      42.483 -14.460   3.675  1.00  0.00    -0.339 OA
HETATM    6  C   UNL     1      42.702 -15.797   3.491  1.00  0.00     0.078 A 
HETATM    7  C   UNL     1      42.121 -16.800   4.278  1.00  0.00     0.005 A 
HETATM    8  C   UNL     1      41.215 -16.423   5.414  1.00  0.00     0.222 C 
HETATM    9  C   UNL     1      41.335 -14.941   5.758  1.00  0.00     0.076 C 
HETATM   10  C   UNL     1      43.567 -16.123   2.447  1.00  0.00     0.037 A 
HETATM   11  C   UNL     1      43.831 -17.456   2.146  1.00  0.00     0.003 A 
HETATM   12  C   UNL     1      43.224 -18.465   2.887  1.00  0.00     0.001 A 
HETATM   13  C   UNL     1      42.368 -18.143   3.943  1.00  0.00     0.012 A 
HETATM   14  C   UNL     1      40.052 -14.191   3.667  1.00  0.00     0.059 C 
HETATM   15  C   UNL     1      40.020 -13.186   2.521  1.00  0.00     0.138 C 
ENDROOT
BRANCH   8  16
HETATM   16  N   UNL     1      41.509 -17.190   6.660  1.00  0.00    -0.071 N 
HETATM   17  H   UNL     1      42.519 -17.298   6.804  1.00  0.00     0.275 HD
HETATM   18  H   UNL     1      41.132 -16.699   7.482  1.00  0.00     0.275 HD
HETATM   19  H   UNL     1      41.100 -18.132   6.635  1.00  0.00     0.275 HD
ENDBRANCH   8  16
BRANCH   1  20
HETATM   20  S   UNL     1      38.753 -11.110   3.708  1.00  0.00     0.224 S 
HETATM   21  C   UNL     1      39.265  -9.425   3.973  1.00  0.00     0.186 C 
HETATM   22  O   UNL     1      38.506 -11.747   4.984  1.00  0.00    -0.206 OA
HETATM   23  O   UNL     1      37.738 -11.113   2.677  1.00  0.00    -0.206 OA
ENDBRANCH   1  20
TORSDOF 2
ENDMDL
