MODEL 1
REMARK VINA RESULT:      -8.6      0.000      0.000
REMARK  3 active torsions:
REMARK  status: ('A' for Active; 'I' for Inactive)
REMARK    1  A    between atoms: O_2  and  C_3 
REMARK    2  A    between atoms: C_4  and  N_5 
REMARK       I    between atoms: N_5  and  C_6 
REMARK       I    between atoms: C_6  and  N_7 
REMARK    3  A    between atoms: C_8  and  C_9 
ROOT
HETATM    1  N   UNL     1      42.765 -17.254   3.831  1.00  0.00    -0.306 N 
HETATM    2  C   UNL     1      42.513 -16.270   2.896  1.00  0.00     0.323 C 
HETATM    3  N   UNL     1      41.562 -15.300   3.300  1.00  0.00    -0.324 N 
HETATM    4  C   UNL     1      41.658 -13.948   2.692  1.00  0.00     0.139 C 
HETATM    5  C   UNL     1      40.528 -12.976   3.111  1.00  0.00     0.032 C 
HETATM    6  C   UNL     1      40.184 -13.040   4.585  1.00  0.00     0.004 C 
HETATM    7  C   UNL     1      39.816 -14.469   4.925  1.00  0.00     0.020 C 
HETATM    8  C   UNL     1      41.000 -15.381   4.655  1.00  0.00     0.128 C 
HETATM    9  O   UNL     1      43.088 -16.249   1.811  1.00  0.00    -0.247 OA
HETATM   10  H   UNL     1      42.759 -16.976   4.801  1.00  0.00     0.171 HD
ENDROOT
BRANCH   4  11
HETATM   11  C   UNL     1      41.658 -13.951   1.187  1.00  0.00     0.033 A 
HETATM   12  N   UNL     1      41.040 -14.922   0.434  1.00  0.00    -0.357 N 
HETATM   13  H   UNL     1      40.616 -15.756   0.815  1.00  0.00     0.166 HD
HETATM   14  C   UNL     1      41.117 -14.619  -0.907  1.00  0.00     0.042 A 
HETATM   15  C   UNL     1      41.843 -13.434  -1.018  1.00  0.00    -0.007 A 
HETATM   16  C   UNL     1      40.615 -15.302  -2.021  1.00  0.00     0.030 A 
HETATM   17  C   UNL     1      42.186 -13.030   0.299  1.00  0.00     0.041 A 
HETATM   18  C   UNL     1      42.079 -12.899  -2.299  1.00  0.00     0.014 A 
HETATM   19  C   UNL     1      41.580 -13.566  -3.422  1.00  0.00     0.001 A 
HETATM   20  C   UNL     1      40.858 -14.749  -3.282  1.00  0.00     0.002 A 
ENDBRANCH   4  11
BRANCH   1  21
HETATM   21  C   UNL     1      43.469 -18.458   3.604  1.00  0.00     0.072 A 
HETATM   22  C   UNL     1      44.345 -18.901   4.610  1.00  0.00     0.095 A 
HETATM   23  C   UNL     1      45.002 -20.129   4.512  1.00  0.00     0.042 A 
HETATM   24  C   UNL     1      44.809 -20.911   3.376  1.00  0.00     0.045 A 
HETATM   25  C   UNL     1      43.963 -20.460   2.366  1.00  0.00     0.118 A 
HETATM   26  C   UNL     1      43.291 -19.244   2.466  1.00  0.00     0.074 A 
HETATM   27  F   UNL     1      43.777 -21.227   1.283  1.00  0.00    -0.206 F 
BRANCH  22  28
HETATM   28  O   UNL     1      44.542 -18.123   5.728  1.00  0.00    -0.354 OA
HETATM   29  C   UNL     1      44.162 -18.860   6.895  1.00  0.00     0.210 C 
ENDBRANCH  22  28
ENDBRANCH   1  21
TORSDOF 3
ENDMDL
MODEL 2
REMARK VINA RESULT:      -8.4      2.237      6.799
REMARK  3 active torsions:
REMARK  status: ('A' for Active; 'I' for Inactive)
REMARK    1  A    between atoms: O_2  and  C_3 
REMARK    2  A    between atoms: C_4  and  N_5 
REMARK       I    between atoms: N_5  and  C_6 
REMARK       I    between atoms: C_6  and  N_7 
REMARK    3  A    between atoms: C_8  and  C_9 
ROOT
HETATM    1  N   UNL     1      41.279 -13.585   0.991  1.00  0.00    -0.306 N 
HETATM    2  C   UNL     1      41.487 -14.724   1.744  1.00  0.00     0.323 C 
HETATM    3  N   UNL     1      41.313 -14.550   3.140  1.00  0.00    -0.324 N 
HETATM    4  C   UNL     1      40.921 -15.741   3.937  1.00  0.00     0.139 C 
HETATM    5  C   UNL     1      40.845 -15.491   5.464  1.00  0.00     0.032 C 
HETATM    6  C   UNL     1      40.193 -14.175   5.835  1.00  0.00     0.004 C 
HETATM    7  C   UNL     1      40.950 -13.059   5.147  1.00  0.00     0.020 C 
HETATM    8  C   UNL     1      40.873 -13.240   3.641  1.00  0.00     0.128 C 
HETATM    9  O   UNL     1      41.786 -15.794   1.224  1.00  0.00    -0.247 OA
HETATM   10  H   UNL     1      40.551 -12.958   1.301  1.00  0.00     0.171 HD
ENDROOT
BRANCH   4  11
HETATM   11  C   UNL     1      41.834 -16.924   3.761  1.00  0.00     0.033 A 
HETATM   12  N   UNL     1      41.663 -17.870   2.777  1.00  0.00    -0.357 N 
HETATM   13  H   UNL     1      40.871 -17.904   2.151  1.00  0.00     0.166 HD
HETATM   14  C   UNL     1      42.697 -18.779   2.792  1.00  0.00     0.042 A 
HETATM   15  C   UNL     1      43.536 -18.426   3.847  1.00  0.00    -0.007 A 
HETATM   16  C   UNL     1      42.945 -19.883   1.968  1.00  0.00     0.030 A 
HETATM   17  C   UNL     1      42.980 -17.269   4.454  1.00  0.00     0.041 A 
HETATM   18  C   UNL     1      44.681 -19.208   4.095  1.00  0.00     0.014 A 
HETATM   19  C   UNL     1      44.947 -20.312   3.278  1.00  0.00     0.001 A 
HETATM   20  C   UNL     1      44.090 -20.641   2.231  1.00  0.00     0.002 A 
ENDBRANCH   4  11
BRANCH   1  21
HETATM   21  C   UNL     1      41.617 -13.413  -0.370  1.00  0.00     0.072 A 
HETATM   22  C   UNL     1      42.426 -12.314  -0.707  1.00  0.00     0.095 A 
HETATM   23  C   UNL     1      42.889 -12.127  -2.010  1.00  0.00     0.042 A 
HETATM   24  C   UNL     1      42.509 -13.030  -3.001  1.00  0.00     0.045 A 
HETATM   25  C   UNL     1      41.684 -14.103  -2.673  1.00  0.00     0.118 A 
HETATM   26  C   UNL     1      41.234 -14.305  -1.371  1.00  0.00     0.074 A 
HETATM   27  F   UNL     1      41.336 -14.972  -3.632  1.00  0.00    -0.206 F 
BRANCH  22  28
HETATM   28  O   UNL     1      42.793 -11.417   0.270  1.00  0.00    -0.354 OA
HETATM   29  C   UNL     1      42.397 -10.098  -0.121  1.00  0.00     0.210 C 
ENDBRANCH  22  28
ENDBRANCH   1  21
TORSDOF 3
ENDMDL
MODEL 3
REMARK VINA RESULT:      -7.9      2.151      5.071
REMARK  3 active torsions:
REMARK  status: ('A' for Active; 'I' for Inactive)
REMARK    1  A    between atoms: O_2  and  C_3 
REMARK    2  A    between atoms: C_4  and  N_5 
REMARK       I    between atoms: N_5  and  C_6 
REMARK       I    between atoms: C_6  and  N_7 
REMARK    3  A    between atoms: C_8  and  C_9 
ROOT
HETATM    1  N   UNL     1      42.625 -17.537   2.482  1.00  0.00    -0.306 N 
HETATM    2  C   UNL     1      41.906 -16.400   2.791  1.00  0.00     0.323 C 
HETATM    3  N   UNL     1      41.445 -15.668   1.668  1.00  0.00    -0.324 N 
HETATM    4  C   UNL     1      40.225 -14.839   1.842  1.00  0.00     0.139 C 
HETATM    5  C   UNL     1      39.841 -13.997   0.599  1.00  0.00     0.032 C 
HETATM    6  C   UNL     1      39.979 -14.745  -0.711  1.00  0.00     0.004 C 
HETATM    7  C   UNL     1      41.403 -15.248  -0.823  1.00  0.00     0.020 C 
HETATM    8  C   UNL     1      41.701 -16.200   0.322  1.00  0.00     0.128 C 
HETATM    9  O   UNL     1      41.684 -16.075   3.953  1.00  0.00    -0.247 OA
HETATM   10  H   UNL     1      42.332 -18.058   1.668  1.00  0.00     0.171 HD
ENDROOT
BRANCH   4  11
HETATM   11  C   UNL     1      40.302 -13.867   2.987  1.00  0.00     0.033 A 
HETATM   12  N   UNL     1      39.596 -14.021   4.157  1.00  0.00    -0.357 N 
HETATM   13  H   UNL     1      38.904 -14.741   4.316  1.00  0.00     0.166 HD
HETATM   14  C   UNL     1      39.933 -13.040   5.062  1.00  0.00     0.042 A 
HETATM   15  C   UNL     1      40.857 -12.206   4.434  1.00  0.00    -0.007 A 
HETATM   16  C   UNL     1      39.487 -12.820   6.371  1.00  0.00     0.030 A 
HETATM   17  C   UNL     1      41.072 -12.727   3.131  1.00  0.00     0.041 A 
HETATM   18  C   UNL     1      41.366 -11.100   5.143  1.00  0.00     0.014 A 
HETATM   19  C   UNL     1      40.935 -10.869   6.454  1.00  0.00     0.001 A 
HETATM   20  C   UNL     1      40.010 -11.720   7.056  1.00  0.00     0.002 A 
ENDBRANCH   4  11
BRANCH   1  21
HETATM   21  C   UNL     1      43.397 -18.305   3.382  1.00  0.00     0.072 A 
HETATM   22  C   UNL     1      43.733 -19.616   2.999  1.00  0.00     0.095 A 
HETATM   23  C   UNL     1      44.576 -20.407   3.782  1.00  0.00     0.042 A 
HETATM   24  C   UNL     1      45.061 -19.896   4.983  1.00  0.00     0.045 A 
HETATM   25  C   UNL     1      44.706 -18.608   5.377  1.00  0.00     0.118 A 
HETATM   26  C   UNL     1      43.880 -17.808   4.591  1.00  0.00     0.074 A 
HETATM   27  F   UNL     1      45.189 -18.124   6.529  1.00  0.00    -0.206 F 
BRANCH  22  28
HETATM   28  O   UNL     1      43.246 -20.123   1.817  1.00  0.00    -0.354 OA
HETATM   29  C   UNL     1      43.554 -21.519   1.733  1.00  0.00     0.210 C 
ENDBRANCH  22  28
ENDBRANCH   1  21
TORSDOF 3
ENDMDL
MODEL 4
REMARK VINA RESULT:      -7.8      2.211      3.541
REMARK  3 active torsions:
REMARK  status: ('A' for Active; 'I' for Inactive)
REMARK    1  A    between atoms: O_2  and  C_3 
REMARK    2  A    between atoms: C_4  and  N_5 
REMARK       I    between atoms: N_5  and  C_6 
REMARK       I    between atoms: C_6  and  N_7 
REMARK    3  A    between atoms: C_8  and  C_9 
ROOT
HETATM    1  N   UNL     1      42.128 -14.483   2.748  1.00  0.00    -0.306 N 
HETATM    2  C   UNL     1      41.607 -14.154   1.512  1.00  0.00     0.323 C 
HETATM    3  N   UNL     1      41.198 -12.803   1.383  1.00  0.00    -0.324 N 
HETATM    4  C   UNL     1      41.205 -12.210   0.021  1.00  0.00     0.139 C 
HETATM    5  C   UNL     1      40.655 -10.763  -0.049  1.00  0.00     0.032 C 
HETATM    6  C   UNL     1      41.125  -9.876   1.085  1.00  0.00     0.004 C 
HETATM    7  C   UNL     1      40.738 -10.534   2.393  1.00  0.00     0.020 C 
HETATM    8  C   UNL     1      41.421 -11.885   2.509  1.00  0.00     0.128 C 
HETATM    9  O   UNL     1      41.525 -14.979   0.607  1.00  0.00    -0.247 OA
HETATM   10  H   UNL     1      42.678 -13.777   3.215  1.00  0.00     0.171 HD
ENDROOT
BRANCH   4  11
HETATM   11  C   UNL     1      40.420 -12.996  -0.994  1.00  0.00     0.033 A 
HETATM   12  N   UNL     1      41.002 -13.851  -1.901  1.00  0.00    -0.357 N 
HETATM   13  H   UNL     1      41.999 -13.958  -2.025  1.00  0.00     0.166 HD
HETATM   14  C   UNL     1      40.040 -14.506  -2.637  1.00  0.00     0.042 A 
HETATM   15  C   UNL     1      38.803 -14.024  -2.214  1.00  0.00    -0.007 A 
HETATM   16  C   UNL     1      40.169 -15.470  -3.643  1.00  0.00     0.030 A 
HETATM   17  C   UNL     1      39.053 -13.070  -1.192  1.00  0.00     0.041 A 
HETATM   18  C   UNL     1      37.635 -14.526  -2.819  1.00  0.00     0.014 A 
HETATM   19  C   UNL     1      37.745 -15.494  -3.823  1.00  0.00     0.001 A 
HETATM   20  C   UNL     1      38.996 -15.958  -4.226  1.00  0.00     0.002 A 
ENDBRANCH   4  11
BRANCH   1  21
HETATM   21  C   UNL     1      42.381 -15.789   3.224  1.00  0.00     0.072 A 
HETATM   22  C   UNL     1      41.483 -16.324   4.165  1.00  0.00     0.095 A 
HETATM   23  C   UNL     1      41.600 -17.641   4.611  1.00  0.00     0.042 A 
HETATM   24  C   UNL     1      42.651 -18.425   4.140  1.00  0.00     0.045 A 
HETATM   25  C   UNL     1      43.557 -17.887   3.230  1.00  0.00     0.118 A 
HETATM   26  C   UNL     1      43.434 -16.578   2.767  1.00  0.00     0.074 A 
HETATM   27  F   UNL     1      44.556 -18.654   2.775  1.00  0.00    -0.206 F 
BRANCH  22  28
HETATM   28  O   UNL     1      40.451 -15.546   4.637  1.00  0.00    -0.354 OA
HETATM   29  C   UNL     1      40.663 -15.264   6.024  1.00  0.00     0.210 C 
ENDBRANCH  22  28
ENDBRANCH   1  21
TORSDOF 3
ENDMDL
MODEL 5
REMARK VINA RESULT:      -7.7      3.150      7.570
REMARK  3 active torsions:
REMARK  status: ('A' for Active; 'I' for Inactive)
REMARK    1  A    between atoms: O_2  and  C_3 
REMARK    2  A    between atoms: C_4  and  N_5 
REMARK       I    between atoms: N_5  and  C_6 
REMARK       I    between atoms: C_6  and  N_7 
REMARK    3  A    between atoms: C_8  and  C_9 
ROOT
HETATM    1  N   UNL     1      41.563 -14.921  -0.729  1.00  0.00    -0.306 N 
HETATM    2  C   UNL     1      41.712 -14.657   0.618  1.00  0.00     0.323 C 
HETATM    3  N   UNL     1      42.227 -15.736   1.379  1.00  0.00    -0.324 N 
HETATM    4  C   UNL     1      42.967 -15.407   2.625  1.00  0.00     0.139 C 
HETATM    5  C   UNL     1      43.414 -16.641   3.448  1.00  0.00     0.032 C 
HETATM    6  C   UNL     1      43.967 -17.770   2.603  1.00  0.00     0.004 C 
HETATM    7  C   UNL     1      42.916 -18.158   1.583  1.00  0.00     0.020 C 
HETATM    8  C   UNL     1      42.612 -16.973   0.684  1.00  0.00     0.128 C 
HETATM    9  O   UNL     1      41.426 -13.564   1.096  1.00  0.00    -0.247 OA
HETATM   10  H   UNL     1      42.260 -15.511  -1.159  1.00  0.00     0.171 HD
ENDROOT
BRANCH   4  11
HETATM   11  C   UNL     1      42.201 -14.534   3.581  1.00  0.00     0.033 A 
HETATM   12  N   UNL     1      42.499 -13.209   3.798  1.00  0.00    -0.357 N 
HETATM   13  H   UNL     1      43.302 -12.734   3.410  1.00  0.00     0.166 HD
HETATM   14  C   UNL     1      41.577 -12.635   4.644  1.00  0.00     0.042 A 
HETATM   15  C   UNL     1      40.682 -13.638   5.013  1.00  0.00    -0.007 A 
HETATM   16  C   UNL     1      41.475 -11.322   5.117  1.00  0.00     0.030 A 
HETATM   17  C   UNL     1      41.088 -14.825   4.350  1.00  0.00     0.041 A 
HETATM   18  C   UNL     1      39.630 -13.319   5.894  1.00  0.00     0.014 A 
HETATM   19  C   UNL     1      39.509 -12.010   6.372  1.00  0.00     0.001 A 
HETATM   20  C   UNL     1      40.420 -11.028   5.987  1.00  0.00     0.002 A 
ENDBRANCH   4  11
BRANCH   1  21
HETATM   21  C   UNL     1      40.856 -14.128  -1.660  1.00  0.00     0.072 A 
HETATM   22  C   UNL     1      41.575 -13.136  -2.350  1.00  0.00     0.095 A 
HETATM   23  C   UNL     1      40.979 -12.377  -3.358  1.00  0.00     0.042 A 
HETATM   24  C   UNL     1      39.634 -12.586  -3.658  1.00  0.00     0.045 A 
HETATM   25  C   UNL     1      38.914 -13.549  -2.956  1.00  0.00     0.118 A 
HETATM   26  C   UNL     1      39.509 -14.322  -1.961  1.00  0.00     0.074 A 
HETATM   27  F   UNL     1      37.625 -13.749  -3.262  1.00  0.00    -0.206 F 
BRANCH  22  28
HETATM   28  O   UNL     1      42.900 -12.924  -2.047  1.00  0.00    -0.354 OA
HETATM   29  C   UNL     1      43.060 -11.609  -1.503  1.00  0.00     0.210 C 
ENDBRANCH  22  28
ENDBRANCH   1  21
TORSDOF 3
ENDMDL
MODEL 6
REMARK VINA RESULT:      -7.6      3.979      6.053
REMARK  3 active torsions:
REMARK  status: ('A' for Active; 'I' for Inactive)
REMARK    1  A    between atoms: O_2  and  C_3 
REMARK    2  A    between atoms: C_4  and  N_5 
REMARK       I    between atoms: N_5  and  C_6 
REMARK       I    between atoms: C_6  and  N_7 
REMARK    3  A    between atoms: C_8  and  C_9 
ROOT
HETATM    1  N   UNL     1      41.908 -11.834   2.029  1.00  0.00    -0.306 N 
HETATM    2  C   UNL     1      41.664 -12.337   0.766  1.00  0.00     0.323 C 
HETATM    3  N   UNL     1      41.958 -11.443  -0.293  1.00  0.00    -0.324 N 
HETATM    4  C   UNL     1      42.308 -12.032  -1.612  1.00  0.00     0.139 C 
HETATM    5  C   UNL     1      42.521 -10.992  -2.740  1.00  0.00     0.032 C 
HETATM    6  C   UNL     1      43.308  -9.773  -2.305  1.00  0.00     0.004 C 
HETATM    7  C   UNL     1      42.597  -9.145  -1.125  1.00  0.00     0.020 C 
HETATM    8  C   UNL     1      42.543 -10.133   0.026  1.00  0.00     0.128 C 
HETATM    9  O   UNL     1      41.237 -13.475   0.598  1.00  0.00    -0.247 OA
HETATM   10  H   UNL     1      42.708 -11.227   2.133  1.00  0.00     0.171 HD
ENDROOT
BRANCH   4  11
HETATM   11  C   UNL     1      41.288 -13.004  -2.139  1.00  0.00     0.033 A 
HETATM   12  N   UNL     1      39.934 -12.761  -2.124  1.00  0.00    -0.357 N 
HETATM   13  H   UNL     1      39.503 -11.961  -1.683  1.00  0.00     0.166 HD
HETATM   14  C   UNL     1      39.251 -13.776  -2.757  1.00  0.00     0.042 A 
HETATM   15  C   UNL     1      40.197 -14.719  -3.154  1.00  0.00    -0.007 A 
HETATM   16  C   UNL     1      37.881 -13.935  -2.995  1.00  0.00     0.030 A 
HETATM   17  C   UNL     1      41.468 -14.231  -2.753  1.00  0.00     0.041 A 
HETATM   18  C   UNL     1      39.761 -15.878  -3.825  1.00  0.00     0.014 A 
HETATM   19  C   UNL     1      38.395 -16.052  -4.075  1.00  0.00     0.001 A 
HETATM   20  C   UNL     1      37.472 -15.092  -3.666  1.00  0.00     0.002 A 
ENDBRANCH   4  11
BRANCH   1  21
HETATM   21  C   UNL     1      41.483 -12.404   3.250  1.00  0.00     0.072 A 
HETATM   22  C   UNL     1      42.380 -13.256   3.918  1.00  0.00     0.095 A 
HETATM   23  C   UNL     1      42.081 -13.781   5.177  1.00  0.00     0.042 A 
HETATM   24  C   UNL     1      40.852 -13.480   5.761  1.00  0.00     0.045 A 
HETATM   25  C   UNL     1      39.952 -12.660   5.087  1.00  0.00     0.118 A 
HETATM   26  C   UNL     1      40.253 -12.118   3.839  1.00  0.00     0.074 A 
HETATM   27  F   UNL     1      38.779 -12.368   5.665  1.00  0.00    -0.206 F 
BRANCH  22  28
HETATM   28  O   UNL     1      43.589 -13.560   3.336  1.00  0.00    -0.354 OA
HETATM   29  C   UNL     1      43.604 -14.943   2.964  1.00  0.00     0.210 C 
ENDBRANCH  22  28
ENDBRANCH   1  21
TORSDOF 3
ENDMDL
MODEL 7
REMARK VINA RESULT:      -7.5      2.457      3.871
REMARK  3 active torsions:
REMARK  status: ('A' for Active; 'I' for Inactive)
REMARK    1  A    between atoms: O_2  and  C_3 
REMARK    2  A    between atoms: C_4  and  N_5 
REMARK       I    between atoms: N_5  and  C_6 
REMARK       I    between atoms: C_6  and  N_7 
REMARK    3  A    between atoms: C_8  and  C_9 
ROOT
HETATM    1  N   UNL     1      41.829 -14.424   2.918  1.00  0.00    -0.306 N 
HETATM    2  C   UNL     1      41.428 -14.170   1.622  1.00  0.00     0.323 C 
HETATM    3  N   UNL     1      41.202 -12.801   1.331  1.00  0.00    -0.324 N 
HETATM    4  C   UNL     1      41.364 -12.363  -0.079  1.00  0.00     0.139 C 
HETATM    5  C   UNL     1      41.007 -10.876  -0.332  1.00  0.00     0.032 C 
HETATM    6  C   UNL     1      41.518  -9.936   0.739  1.00  0.00     0.004 C 
HETATM    7  C   UNL     1      40.975 -10.398   2.075  1.00  0.00     0.020 C 
HETATM    8  C   UNL     1      41.473 -11.801   2.373  1.00  0.00     0.128 C 
HETATM    9  O   UNL     1      41.295 -15.071   0.800  1.00  0.00    -0.247 OA
HETATM   10  H   UNL     1      42.436 -13.744   3.351  1.00  0.00     0.171 HD
ENDROOT
BRANCH   4  11
HETATM   11  C   UNL     1      40.546 -13.153  -1.065  1.00  0.00     0.033 A 
HETATM   12  N   UNL     1      41.070 -14.154  -1.849  1.00  0.00    -0.357 N 
HETATM   13  H   UNL     1      42.053 -14.385  -1.900  1.00  0.00     0.166 HD
HETATM   14  C   UNL     1      40.078 -14.768  -2.581  1.00  0.00     0.042 A 
HETATM   15  C   UNL     1      38.885 -14.110  -2.285  1.00  0.00    -0.007 A 
HETATM   16  C   UNL     1      40.146 -15.836  -3.483  1.00  0.00     0.030 A 
HETATM   17  C   UNL     1      39.192 -13.093  -1.343  1.00  0.00     0.041 A 
HETATM   18  C   UNL     1      37.700 -14.536  -2.914  1.00  0.00     0.014 A 
HETATM   19  C   UNL     1      37.748 -15.606  -3.814  1.00  0.00     0.001 A 
HETATM   20  C   UNL     1      38.955 -16.244  -4.092  1.00  0.00     0.002 A 
ENDBRANCH   4  11
BRANCH   1  21
HETATM   21  C   UNL     1      41.886 -15.692   3.539  1.00  0.00     0.072 A 
HETATM   22  C   UNL     1      42.993 -16.510   3.252  1.00  0.00     0.095 A 
HETATM   23  C   UNL     1      43.178 -17.733   3.899  1.00  0.00     0.042 A 
HETATM   24  C   UNL     1      42.225 -18.164   4.819  1.00  0.00     0.045 A 
HETATM   25  C   UNL     1      41.114 -17.367   5.083  1.00  0.00     0.118 A 
HETATM   26  C   UNL     1      40.933 -16.138   4.454  1.00  0.00     0.074 A 
HETATM   27  F   UNL     1      40.211 -17.787   5.979  1.00  0.00    -0.206 F 
BRANCH  22  28
HETATM   28  O   UNL     1      43.928 -16.088   2.336  1.00  0.00    -0.354 OA
HETATM   29  C   UNL     1      44.209 -17.150   1.418  1.00  0.00     0.210 C 
ENDBRANCH  22  28
ENDBRANCH   1  21
TORSDOF 3
ENDMDL
MODEL 8
REMARK VINA RESULT:      -7.5      1.923      2.443
REMARK  3 active torsions:
REMARK  status: ('A' for Active; 'I' for Inactive)
REMARK    1  A    between atoms: O_2  and  C_3 
REMARK    2  A    between atoms: C_4  and  N_5 
REMARK       I    between atoms: N_5  and  C_6 
REMARK       I    between atoms: C_6  and  N_7 
REMARK    3  A    between atoms: C_8  and  C_9 
ROOT
HETATM    1  N   UNL     1      42.339 -14.917   4.954  1.00  0.00    -0.306 N 
HETATM    2  C   UNL     1      42.159 -14.270   3.748  1.00  0.00     0.323 C 
HETATM    3  N   UNL     1      41.078 -13.354   3.723  1.00  0.00    -0.324 N 
HETATM    4  C   UNL     1      41.158 -12.222   2.764  1.00  0.00     0.139 C 
HETATM    5  C   UNL     1      39.897 -11.322   2.730  1.00  0.00     0.032 C 
HETATM    6  C   UNL     1      39.328 -11.018   4.100  1.00  0.00     0.004 C 
HETATM    7  C   UNL     1      39.031 -12.331   4.793  1.00  0.00     0.020 C 
HETATM    8  C   UNL     1      40.314 -13.126   4.958  1.00  0.00     0.128 C 
HETATM    9  O   UNL     1      42.897 -14.478   2.789  1.00  0.00    -0.247 OA
HETATM   10  H   UNL     1      42.154 -14.384   5.791  1.00  0.00     0.171 HD
ENDROOT
BRANCH   4  11
HETATM   11  C   UNL     1      41.399 -12.642   1.339  1.00  0.00     0.033 A 
HETATM   12  N   UNL     1      40.830 -13.759   0.774  1.00  0.00    -0.357 N 
HETATM   13  H   UNL     1      40.280 -14.438   1.282  1.00  0.00     0.166 HD
HETATM   14  C   UNL     1      41.147 -13.843  -0.563  1.00  0.00     0.042 A 
HETATM   15  C   UNL     1      41.980 -12.764  -0.854  1.00  0.00    -0.007 A 
HETATM   16  C   UNL     1      40.774 -14.788  -1.526  1.00  0.00     0.030 A 
HETATM   17  C   UNL     1      42.141 -12.025   0.347  1.00  0.00     0.041 A 
HETATM   18  C   UNL     1      42.465 -12.614  -2.168  1.00  0.00     0.014 A 
HETATM   19  C   UNL     1      42.097 -13.547  -3.144  1.00  0.00     0.001 A 
HETATM   20  C   UNL     1      41.263 -14.616  -2.825  1.00  0.00     0.002 A 
ENDBRANCH   4  11
BRANCH   1  21
HETATM   21  C   UNL     1      43.168 -16.038   5.183  1.00  0.00     0.072 A 
HETATM   22  C   UNL     1      43.958 -16.038   6.347  1.00  0.00     0.095 A 
HETATM   23  C   UNL     1      44.727 -17.147   6.701  1.00  0.00     0.042 A 
HETATM   24  C   UNL     1      44.737 -18.260   5.863  1.00  0.00     0.045 A 
HETATM   25  C   UNL     1      43.977 -18.250   4.696  1.00  0.00     0.118 A 
HETATM   26  C   UNL     1      43.193 -17.153   4.347  1.00  0.00     0.074 A 
HETATM   27  F   UNL     1      43.985 -19.331   3.905  1.00  0.00    -0.206 F 
BRANCH  22  28
HETATM   28  O   UNL     1      43.955 -14.934   7.168  1.00  0.00    -0.354 OA
HETATM   29  C   UNL     1      45.090 -14.114   6.868  1.00  0.00     0.210 C 
ENDBRANCH  22  28
ENDBRANCH   1  21
TORSDOF 3
ENDMDL
MODEL 9
REMARK VINA RESULT:      -7.4      3.965      5.940
REMARK  3 active torsions:
REMARK  status: ('A' for Active; 'I' for Inactive)
REMARK    1  A    between atoms: O_2  and  C_3 
REMARK    2  A    between atoms: C_4  and  N_5 
REMARK       I    between atoms: N_5  and  C_6 
REMARK       I    between atoms: C_6  and  N_7 
REMARK    3  A    between atoms: C_8  and  C_9 
ROOT
HETATM    1  N   UNL     1      42.239 -12.076   1.939  1.00  0.00    -0.306 N 
HETATM    2  C   UNL     1      41.948 -12.434   0.637  1.00  0.00     0.323 C 
HETATM    3  N   UNL     1      42.145 -11.405  -0.317  1.00  0.00    -0.324 N 
HETATM    4  C   UNL     1      42.448 -11.812  -1.714  1.00  0.00     0.139 C 
HETATM    5  C   UNL     1      42.555 -10.634  -2.714  1.00  0.00     0.032 C 
HETATM    6  C   UNL     1      43.311  -9.439  -2.171  1.00  0.00     0.004 C 
HETATM    7  C   UNL     1      42.637  -8.994  -0.889  1.00  0.00     0.020 C 
HETATM    8  C   UNL     1      42.690 -10.116   0.133  1.00  0.00     0.128 C 
HETATM    9  O   UNL     1      41.563 -13.563   0.351  1.00  0.00    -0.247 OA
HETATM   10  H   UNL     1      43.016 -11.446   2.078  1.00  0.00     0.171 HD
ENDROOT
BRANCH   4  11
HETATM   11  C   UNL     1      41.445 -12.763  -2.307  1.00  0.00     0.033 A 
HETATM   12  N   UNL     1      41.709 -14.094  -2.534  1.00  0.00    -0.357 N 
HETATM   13  H   UNL     1      42.614 -14.525  -2.410  1.00  0.00     0.166 HD
HETATM   14  C   UNL     1      40.582 -14.741  -2.990  1.00  0.00     0.042 A 
HETATM   15  C   UNL     1      39.575 -13.784  -3.096  1.00  0.00    -0.007 A 
HETATM   16  C   UNL     1      40.383 -16.085  -3.326  1.00  0.00     0.030 A 
HETATM   17  C   UNL     1      40.129 -12.546  -2.676  1.00  0.00     0.041 A 
HETATM   18  C   UNL     1      38.304 -14.182  -3.555  1.00  0.00     0.014 A 
HETATM   19  C   UNL     1      38.086 -15.522  -3.890  1.00  0.00     0.001 A 
HETATM   20  C   UNL     1      39.112 -16.458  -3.774  1.00  0.00     0.002 A 
ENDBRANCH   4  11
BRANCH   1  21
HETATM   21  C   UNL     1      41.906 -12.810   3.099  1.00  0.00     0.072 A 
HETATM   22  C   UNL     1      40.672 -12.533   3.714  1.00  0.00     0.095 A 
HETATM   23  C   UNL     1      40.220 -13.280   4.803  1.00  0.00     0.042 A 
HETATM   24  C   UNL     1      41.028 -14.296   5.309  1.00  0.00     0.045 A 
HETATM   25  C   UNL     1      42.263 -14.552   4.718  1.00  0.00     0.118 A 
HETATM   26  C   UNL     1      42.711 -13.822   3.620  1.00  0.00     0.074 A 
HETATM   27  F   UNL     1      43.025 -15.540   5.207  1.00  0.00    -0.206 F 
BRANCH  22  28
HETATM   28  O   UNL     1      39.879 -11.523   3.219  1.00  0.00    -0.354 OA
HETATM   29  C   UNL     1      38.653 -11.475   3.957  1.00  0.00     0.210 C 
ENDBRANCH  22  28
ENDBRANCH   1  21
TORSDOF 3
ENDMDL
MODEL 10
REMARK VINA RESULT:      -7.4      3.183      6.286
REMARK  3 active torsions:
REMARK  status: ('A' for Active; 'I' for Inactive)
REMARK    1  A    between atoms: O_2  and  C_3 
REMARK    2  A    between atoms: C_4  and  N_5 
REMARK       I    between atoms: N_5  and  C_6 
REMARK       I    between atoms: C_6  and  N_7 
REMARK    3  A    between atoms: C_8  and  C_9 
ROOT
HETATM    1  N   UNL     1      41.705 -16.580   4.710  1.00  0.00    -0.306 N 
HETATM    2  C   UNL     1      41.131 -15.366   5.031  1.00  0.00     0.323 C 
HETATM    3  N   UNL     1      40.719 -14.594   3.916  1.00  0.00    -0.324 N 
HETATM    4  C   UNL     1      39.607 -13.629   4.121  1.00  0.00     0.139 C 
HETATM    5  C   UNL     1      39.280 -12.757   2.883  1.00  0.00     0.032 C 
HETATM    6  C   UNL     1      39.286 -13.525   1.578  1.00  0.00     0.004 C 
HETATM    7  C   UNL     1      40.638 -14.189   1.424  1.00  0.00     0.020 C 
HETATM    8  C   UNL     1      40.865 -15.161   2.568  1.00  0.00     0.128 C 
HETATM    9  O   UNL     1      40.988 -15.009   6.196  1.00  0.00    -0.247 OA
HETATM   10  H   UNL     1      41.326 -17.069   3.912  1.00  0.00     0.171 HD
ENDROOT
BRANCH   4  11
HETATM   11  C   UNL     1      39.835 -12.664   5.253  1.00  0.00     0.033 A 
HETATM   12  N   UNL     1      39.133 -12.707   6.435  1.00  0.00    -0.357 N 
HETATM   13  H   UNL     1      38.352 -13.324   6.612  1.00  0.00     0.166 HD
HETATM   14  C   UNL     1      39.616 -11.771   7.322  1.00  0.00     0.042 A 
HETATM   15  C   UNL     1      40.635 -11.079   6.671  1.00  0.00    -0.007 A 
HETATM   16  C   UNL     1      39.225 -11.479   8.634  1.00  0.00     0.030 A 
HETATM   17  C   UNL     1      40.756 -11.639   5.372  1.00  0.00     0.041 A 
HETATM   18  C   UNL     1      41.301 -10.046   7.358  1.00  0.00     0.014 A 
HETATM   19  C   UNL     1      40.927  -9.744   8.671  1.00  0.00     0.001 A 
HETATM   20  C   UNL     1      39.904 -10.452   9.297  1.00  0.00     0.002 A 
ENDBRANCH   4  11
BRANCH   1  21
HETATM   21  C   UNL     1      42.415 -17.425   5.592  1.00  0.00     0.072 A 
HETATM   22  C   UNL     1      43.038 -18.561   5.046  1.00  0.00     0.095 A 
HETATM   23  C   UNL     1      43.842 -19.393   5.827  1.00  0.00     0.042 A 
HETATM   24  C   UNL     1      43.998 -19.107   7.182  1.00  0.00     0.045 A 
HETATM   25  C   UNL     1      43.358 -17.998   7.729  1.00  0.00     0.118 A 
HETATM   26  C   UNL     1      42.569 -17.154   6.950  1.00  0.00     0.074 A 
HETATM   27  F   UNL     1      43.525 -17.727   9.030  1.00  0.00    -0.206 F 
BRANCH  22  28
HETATM   28  O   UNL     1      42.876 -18.848   3.710  1.00  0.00    -0.354 OA
HETATM   29  C   UNL     1      44.022 -19.560   3.233  1.00  0.00     0.210 C 
ENDBRANCH  22  28
ENDBRANCH   1  21
TORSDOF 3
ENDMDL
