MODEL 1
REMARK VINA RESULT:      -9.3      0.000      0.000
REMARK  4 active torsions:
REMARK  status: ('A' for Active; 'I' for Inactive)
REMARK    1  A    between atoms: C_4  and  N_5 
REMARK    2  A    between atoms: N_5  and  C_6 
REMARK    3  A    between atoms: C_8  and  C_9 
REMARK    4  A    between atoms: C_23  and  O_24 
ROOT
HETATM    1  C   UNL     1      42.623 -16.297   1.297  1.00  0.00     0.722 A 
HETATM    2  N   UNL     1      42.965 -17.543   1.455  1.00  0.00    -0.063 NA
HETATM    3  C   UNL     1      43.439 -17.945   2.685  1.00  0.00     0.091 A 
HETATM    4  C   UNL     1      43.540 -17.130   3.745  1.00  0.00     0.108 A 
HETATM    5  C   UNL     1      43.159 -15.726   3.571  1.00  0.00     0.261 A 
HETATM    6  O   UNL     1      43.237 -14.925   4.495  1.00  0.00    -0.268 OA
HETATM    7  N   UNL     1      42.724 -15.401   2.327  1.00  0.00    -0.154 N 
HETATM    8  H   UNL     1      42.448 -14.441   2.155  1.00  0.00     0.187 HD
ENDROOT
BRANCH   1   9
HETATM    9  N   UNL     1      42.155 -15.881   0.091  1.00  0.00    -0.017 N 
HETATM   10  H   UNL     1      42.634 -16.197  -0.737  1.00  0.00     0.203 HD
BRANCH   9  11
HETATM   11  C   UNL     1      41.089 -15.045  -0.194  1.00  0.00     0.742 A 
HETATM   12  N   UNL     1      40.564 -14.269   0.765  1.00  0.00    -0.066 NA
HETATM   13  C   UNL     1      39.534 -13.463   0.430  1.00  0.00     0.062 A 
HETATM   14  C   UNL     1      38.996 -12.617   1.549  1.00  0.00     0.072 C 
HETATM   15  C   UNL     1      39.000 -13.414  -0.862  1.00  0.00     0.021 A 
HETATM   16  C   UNL     1      39.605 -14.269  -1.795  1.00  0.00     0.121 A 
HETATM   17  C   UNL     1      37.925 -12.580  -1.251  1.00  0.00     0.016 A 
HETATM   18  N   UNL     1      40.636 -15.067  -1.450  1.00  0.00    -0.059 NA
HETATM   19  C   UNL     1      39.098 -14.279  -3.108  1.00  0.00     0.098 A 
HETATM   20  C   UNL     1      38.041 -13.439  -3.490  1.00  0.00     0.039 A 
HETATM   21  C   UNL     1      37.454 -12.591  -2.559  1.00  0.00     0.004 A 
BRANCH  19  22
HETATM   22  O   UNL     1      39.726 -15.134  -3.989  1.00  0.00    -0.354 OA
HETATM   23  C   UNL     1      38.986 -16.269  -4.421  1.00  0.00     0.210 C 
ENDBRANCH  19  22
ENDBRANCH   9  11
ENDBRANCH   1   9
BRANCH   3  24
HETATM   24  C   UNL     1      43.815 -19.374   2.832  1.00  0.00    -0.006 A 
HETATM   25  C   UNL     1      44.455 -19.807   4.007  1.00  0.00     0.017 A 
HETATM   26  C   UNL     1      44.816 -21.147   4.176  1.00  0.00     0.043 A 
HETATM   27  C   UNL     1      44.532 -22.063   3.172  1.00  0.00     0.116 A 
HETATM   28  F   UNL     1      44.879 -23.348   3.331  1.00  0.00    -0.206 F 
HETATM   29  C   UNL     1      43.886 -21.669   2.008  1.00  0.00     0.043 A 
HETATM   30  C   UNL     1      43.523 -20.329   1.840  1.00  0.00     0.017 A 
ENDBRANCH   3  24
TORSDOF 4
ENDMDL
MODEL 2
REMARK VINA RESULT:      -9.2      1.456      2.785
REMARK  4 active torsions:
REMARK  status: ('A' for Active; 'I' for Inactive)
REMARK    1  A    between atoms: C_4  and  N_5 
REMARK    2  A    between atoms: N_5  and  C_6 
REMARK    3  A    between atoms: C_8  and  C_9 
REMARK    4  A    between atoms: C_23  and  O_24 
ROOT
HETATM    1  C   UNL     1      42.640 -16.548   1.026  1.00  0.00     0.722 A 
HETATM    2  N   UNL     1      42.986 -17.777   1.273  1.00  0.00    -0.063 NA
HETATM    3  C   UNL     1      43.474 -18.085   2.525  1.00  0.00     0.091 A 
HETATM    4  C   UNL     1      43.583 -17.193   3.519  1.00  0.00     0.108 A 
HETATM    5  C   UNL     1      43.197 -15.806   3.244  1.00  0.00     0.261 A 
HETATM    6  O   UNL     1      43.283 -14.938   4.105  1.00  0.00    -0.268 OA
HETATM    7  N   UNL     1      42.748 -15.577   1.984  1.00  0.00    -0.154 N 
HETATM    8  H   UNL     1      42.469 -14.632   1.743  1.00  0.00     0.187 HD
ENDROOT
BRANCH   1   9
HETATM    9  N   UNL     1      42.158 -16.225  -0.203  1.00  0.00    -0.017 N 
HETATM   10  H   UNL     1      42.610 -16.626  -1.009  1.00  0.00     0.203 HD
BRANCH   9  11
HETATM   11  C   UNL     1      41.110 -15.385  -0.541  1.00  0.00     0.742 A 
HETATM   12  N   UNL     1      40.838 -15.128  -1.828  1.00  0.00    -0.066 NA
HETATM   13  C   UNL     1      39.798 -14.312  -2.102  1.00  0.00     0.062 A 
HETATM   14  C   UNL     1      39.543 -14.072  -3.563  1.00  0.00     0.072 C 
HETATM   15  C   UNL     1      39.010 -13.729  -1.103  1.00  0.00     0.021 A 
HETATM   16  C   UNL     1      39.378 -14.043   0.213  1.00  0.00     0.121 A 
HETATM   17  C   UNL     1      37.911 -12.873  -1.352  1.00  0.00     0.016 A 
HETATM   18  N   UNL     1      40.416 -14.864   0.474  1.00  0.00    -0.059 NA
HETATM   19  C   UNL     1      38.635 -13.470   1.262  1.00  0.00     0.098 A 
HETATM   20  C   UNL     1      37.538 -12.633   1.007  1.00  0.00     0.039 A 
HETATM   21  C   UNL     1      37.178 -12.334  -0.301  1.00  0.00     0.004 A 
BRANCH  19  22
HETATM   22  O   UNL     1      39.032 -13.811   2.537  1.00  0.00    -0.354 OA
HETATM   23  C   UNL     1      39.518 -12.759   3.361  1.00  0.00     0.210 C 
ENDBRANCH  19  22
ENDBRANCH   9  11
ENDBRANCH   1   9
BRANCH   3  24
HETATM   24  C   UNL     1      43.855 -19.498   2.776  1.00  0.00    -0.006 A 
HETATM   25  C   UNL     1      44.453 -19.851   3.999  1.00  0.00     0.017 A 
HETATM   26  C   UNL     1      44.817 -21.174   4.264  1.00  0.00     0.043 A 
HETATM   27  C   UNL     1      44.578 -22.154   3.310  1.00  0.00     0.116 A 
HETATM   28  F   UNL     1      44.928 -23.422   3.562  1.00  0.00    -0.206 F 
HETATM   29  C   UNL     1      43.975 -21.839   2.099  1.00  0.00     0.043 A 
HETATM   30  C   UNL     1      43.608 -20.516   1.835  1.00  0.00     0.017 A 
ENDBRANCH   3  24
TORSDOF 4
ENDMDL
MODEL 3
REMARK VINA RESULT:      -9.1      2.352      3.295
REMARK  4 active torsions:
REMARK  status: ('A' for Active; 'I' for Inactive)
REMARK    1  A    between atoms: C_4  and  N_5 
REMARK    2  A    between atoms: N_5  and  C_6 
REMARK    3  A    between atoms: C_8  and  C_9 
REMARK    4  A    between atoms: C_23  and  O_24 
ROOT
HETATM    1  C   UNL     1      41.811 -15.667   2.512  1.00  0.00     0.722 A 
HETATM    2  N   UNL     1      42.215 -16.896   2.375  1.00  0.00    -0.063 NA
HETATM    3  C   UNL     1      43.123 -17.396   3.284  1.00  0.00     0.091 A 
HETATM    4  C   UNL     1      43.592 -16.696   4.327  1.00  0.00     0.108 A 
HETATM    5  C   UNL     1      43.142 -15.311   4.484  1.00  0.00     0.261 A 
HETATM    6  O   UNL     1      43.540 -14.611   5.408  1.00  0.00    -0.268 OA
HETATM    7  N   UNL     1      42.267 -14.884   3.538  1.00  0.00    -0.154 N 
HETATM    8  H   UNL     1      41.925 -13.931   3.601  1.00  0.00     0.187 HD
ENDROOT
BRANCH   1   9
HETATM    9  N   UNL     1      40.917 -15.156   1.625  1.00  0.00    -0.017 N 
HETATM   10  H   UNL     1      39.954 -15.088   1.911  1.00  0.00     0.203 HD
BRANCH   9  11
HETATM   11  C   UNL     1      41.124 -14.710   0.331  1.00  0.00     0.742 A 
HETATM   12  N   UNL     1      40.763 -15.471  -0.712  1.00  0.00    -0.066 NA
HETATM   13  C   UNL     1      40.976 -14.982  -1.952  1.00  0.00     0.062 A 
HETATM   14  C   UNL     1      40.543 -15.882  -3.075  1.00  0.00     0.072 C 
HETATM   15  C   UNL     1      41.557 -13.731  -2.184  1.00  0.00     0.021 A 
HETATM   16  C   UNL     1      41.914 -13.012  -1.034  1.00  0.00     0.121 A 
HETATM   17  C   UNL     1      41.792 -13.185  -3.468  1.00  0.00     0.016 A 
HETATM   18  N   UNL     1      41.692 -13.509   0.201  1.00  0.00    -0.059 NA
HETATM   19  C   UNL     1      42.522 -11.754  -1.203  1.00  0.00     0.098 A 
HETATM   20  C   UNL     1      42.738 -11.213  -2.479  1.00  0.00     0.039 A 
HETATM   21  C   UNL     1      42.375 -11.931  -3.611  1.00  0.00     0.004 A 
BRANCH  19  22
HETATM   22  O   UNL     1      42.852 -11.084  -0.043  1.00  0.00    -0.354 OA
HETATM   23  C   UNL     1      43.026  -9.677  -0.142  1.00  0.00     0.210 C 
ENDBRANCH  19  22
ENDBRANCH   9  11
ENDBRANCH   1   9
BRANCH   3  24
HETATM   24  C   UNL     1      43.559 -18.804   3.102  1.00  0.00    -0.006 A 
HETATM   25  C   UNL     1      44.345 -19.422   4.091  1.00  0.00     0.017 A 
HETATM   26  C   UNL     1      44.766 -20.747   3.949  1.00  0.00     0.043 A 
HETATM   27  C   UNL     1      44.398 -21.464   2.819  1.00  0.00     0.116 A 
HETATM   28  F   UNL     1      44.802 -22.734   2.680  1.00  0.00    -0.206 F 
HETATM   29  C   UNL     1      43.610 -20.886   1.832  1.00  0.00     0.043 A 
HETATM   30  C   UNL     1      43.186 -19.561   1.976  1.00  0.00     0.017 A 
ENDBRANCH   3  24
TORSDOF 4
ENDMDL
MODEL 4
REMARK VINA RESULT:      -8.9      3.204      4.129
REMARK  4 active torsions:
REMARK  status: ('A' for Active; 'I' for Inactive)
REMARK    1  A    between atoms: C_4  and  N_5 
REMARK    2  A    between atoms: N_5  and  C_6 
REMARK    3  A    between atoms: C_8  and  C_9 
REMARK    4  A    between atoms: C_23  and  O_24 
ROOT
HETATM    1  C   UNL     1      43.355 -15.485   5.814  1.00  0.00     0.722 A 
HETATM    2  N   UNL     1      43.560 -16.460   4.977  1.00  0.00    -0.063 NA
HETATM    3  C   UNL     1      43.764 -17.727   5.479  1.00  0.00     0.091 A 
HETATM    4  C   UNL     1      43.732 -18.022   6.787  1.00  0.00     0.108 A 
HETATM    5  C   UNL     1      43.504 -16.927   7.733  1.00  0.00     0.261 A 
HETATM    6  O   UNL     1      43.474 -17.125   8.942  1.00  0.00    -0.268 OA
HETATM    7  N   UNL     1      43.335 -15.706   7.165  1.00  0.00    -0.154 N 
HETATM    8  H   UNL     1      43.174 -14.914   7.778  1.00  0.00     0.187 HD
ENDROOT
BRANCH   1   9
HETATM    9  N   UNL     1      43.153 -14.228   5.338  1.00  0.00    -0.017 N 
HETATM   10  H   UNL     1      43.835 -13.522   5.562  1.00  0.00     0.203 HD
BRANCH   9  11
HETATM   11  C   UNL     1      42.107 -13.738   4.576  1.00  0.00     0.742 A 
HETATM   12  N   UNL     1      41.806 -12.431   4.601  1.00  0.00    -0.066 NA
HETATM   13  C   UNL     1      40.785 -12.004   3.828  1.00  0.00     0.062 A 
HETATM   14  C   UNL     1      40.505 -10.530   3.899  1.00  0.00     0.072 C 
HETATM   15  C   UNL     1      40.036 -12.866   3.019  1.00  0.00     0.021 A 
HETATM   16  C   UNL     1      40.414 -14.215   3.067  1.00  0.00     0.121 A 
HETATM   17  C   UNL     1      38.962 -12.454   2.194  1.00  0.00     0.016 A 
HETATM   18  N   UNL     1      41.439 -14.629   3.839  1.00  0.00    -0.059 NA
HETATM   19  C   UNL     1      39.684 -15.134   2.289  1.00  0.00     0.098 A 
HETATM   20  C   UNL     1      38.631 -14.716   1.463  1.00  0.00     0.039 A 
HETATM   21  C   UNL     1      38.269 -13.376   1.418  1.00  0.00     0.004 A 
BRANCH  19  22
HETATM   22  O   UNL     1      40.095 -16.448   2.368  1.00  0.00    -0.354 OA
HETATM   23  C   UNL     1      40.816 -16.963   1.256  1.00  0.00     0.210 C 
ENDBRANCH  19  22
ENDBRANCH   9  11
ENDBRANCH   1   9
BRANCH   3  24
HETATM   24  C   UNL     1      43.989 -18.817   4.497  1.00  0.00    -0.006 A 
HETATM   25  C   UNL     1      44.674 -19.980   4.893  1.00  0.00     0.017 A 
HETATM   26  C   UNL     1      44.897 -21.025   3.992  1.00  0.00     0.043 A 
HETATM   27  C   UNL     1      44.429 -20.915   2.689  1.00  0.00     0.116 A 
HETATM   28  F   UNL     1      44.642 -21.915   1.823  1.00  0.00    -0.206 F 
HETATM   29  C   UNL     1      43.735 -19.786   2.273  1.00  0.00     0.043 A 
HETATM   30  C   UNL     1      43.510 -18.742   3.176  1.00  0.00     0.017 A 
ENDBRANCH   3  24
TORSDOF 4
ENDMDL
MODEL 5
REMARK VINA RESULT:      -8.9      7.208     10.356
REMARK  4 active torsions:
REMARK  status: ('A' for Active; 'I' for Inactive)
REMARK    1  A    between atoms: C_4  and  N_5 
REMARK    2  A    between atoms: N_5  and  C_6 
REMARK    3  A    between atoms: C_8  and  C_9 
REMARK    4  A    between atoms: C_23  and  O_24 
ROOT
HETATM    1  C   UNL     1      44.712 -13.344   8.592  1.00  0.00     0.722 A 
HETATM    2  N   UNL     1      44.095 -12.802   9.601  1.00  0.00    -0.063 NA
HETATM    3  C   UNL     1      44.584 -11.621  10.115  1.00  0.00     0.091 A 
HETATM    4  C   UNL     1      45.648 -10.976   9.613  1.00  0.00     0.108 A 
HETATM    5  C   UNL     1      46.348 -11.585   8.479  1.00  0.00     0.261 A 
HETATM    6  O   UNL     1      47.334 -11.055   7.980  1.00  0.00    -0.268 OA
HETATM    7  N   UNL     1      45.821 -12.758   8.044  1.00  0.00    -0.154 N 
HETATM    8  H   UNL     1      46.270 -13.219   7.261  1.00  0.00     0.187 HD
ENDROOT
BRANCH   1   9
HETATM    9  N   UNL     1      44.245 -14.510   8.072  1.00  0.00    -0.017 N 
HETATM   10  H   UNL     1      44.118 -15.289   8.697  1.00  0.00     0.203 HD
BRANCH   9  11
HETATM   11  C   UNL     1      43.918 -14.816   6.762  1.00  0.00     0.742 A 
HETATM   12  N   UNL     1      43.481 -13.857   5.933  1.00  0.00    -0.066 NA
HETATM   13  C   UNL     1      43.188 -14.208   4.663  1.00  0.00     0.062 A 
HETATM   14  C   UNL     1      42.709 -13.086   3.785  1.00  0.00     0.072 C 
HETATM   15  C   UNL     1      43.318 -15.518   4.190  1.00  0.00     0.021 A 
HETATM   16  C   UNL     1      43.770 -16.455   5.131  1.00  0.00     0.121 A 
HETATM   17  C   UNL     1      43.025 -15.922   2.866  1.00  0.00     0.016 A 
HETATM   18  N   UNL     1      44.063 -16.091   6.396  1.00  0.00    -0.059 NA
HETATM   19  C   UNL     1      43.901 -17.794   4.719  1.00  0.00     0.098 A 
HETATM   20  C   UNL     1      43.622 -18.184   3.401  1.00  0.00     0.039 A 
HETATM   21  C   UNL     1      43.182 -17.247   2.475  1.00  0.00     0.004 A 
BRANCH  19  22
HETATM   22  O   UNL     1      44.351 -18.677   5.679  1.00  0.00    -0.354 OA
HETATM   23  C   UNL     1      44.571 -20.019   5.264  1.00  0.00     0.210 C 
ENDBRANCH  19  22
ENDBRANCH   9  11
ENDBRANCH   1   9
BRANCH   3  24
HETATM   24  C   UNL     1      43.853 -11.026  11.262  1.00  0.00    -0.006 A 
HETATM   25  C   UNL     1      43.690  -9.631  11.336  1.00  0.00     0.017 A 
HETATM   26  C   UNL     1      43.002  -9.043  12.401  1.00  0.00     0.043 A 
HETATM   27  C   UNL     1      42.466  -9.850  13.396  1.00  0.00     0.116 A 
HETATM   28  F   UNL     1      41.808  -9.288  14.420  1.00  0.00    -0.206 F 
HETATM   29  C   UNL     1      42.597 -11.231  13.343  1.00  0.00     0.043 A 
HETATM   30  C   UNL     1      43.283 -11.819  12.275  1.00  0.00     0.017 A 
ENDBRANCH   3  24
TORSDOF 4
ENDMDL
MODEL 6
REMARK VINA RESULT:      -8.8      5.248      7.198
REMARK  4 active torsions:
REMARK  status: ('A' for Active; 'I' for Inactive)
REMARK    1  A    between atoms: C_4  and  N_5 
REMARK    2  A    between atoms: N_5  and  C_6 
REMARK    3  A    between atoms: C_8  and  C_9 
REMARK    4  A    between atoms: C_23  and  O_24 
ROOT
HETATM    1  C   UNL     1      43.209 -15.246   5.515  1.00  0.00     0.722 A 
HETATM    2  N   UNL     1      43.414 -16.244   4.707  1.00  0.00    -0.063 NA
HETATM    3  C   UNL     1      43.670 -17.487   5.246  1.00  0.00     0.091 A 
HETATM    4  C   UNL     1      43.689 -17.735   6.563  1.00  0.00     0.108 A 
HETATM    5  C   UNL     1      43.461 -16.613   7.478  1.00  0.00     0.261 A 
HETATM    6  O   UNL     1      43.475 -16.768   8.693  1.00  0.00    -0.268 OA
HETATM    7  N   UNL     1      43.239 -15.418   6.873  1.00  0.00    -0.154 N 
HETATM    8  H   UNL     1      43.076 -14.610   7.462  1.00  0.00     0.187 HD
ENDROOT
BRANCH   1   9
HETATM    9  N   UNL     1      42.956 -14.013   5.003  1.00  0.00    -0.017 N 
HETATM   10  H   UNL     1      43.464 -13.729   4.181  1.00  0.00     0.203 HD
BRANCH   9  11
HETATM   11  C   UNL     1      42.087 -13.036   5.457  1.00  0.00     0.742 A 
HETATM   12  N   UNL     1      40.909 -12.843   4.846  1.00  0.00    -0.066 NA
HETATM   13  C   UNL     1      40.094 -11.885   5.338  1.00  0.00     0.062 A 
HETATM   14  C   UNL     1      38.789 -11.724   4.611  1.00  0.00     0.072 C 
HETATM   15  C   UNL     1      40.432 -11.097   6.443  1.00  0.00     0.021 A 
HETATM   16  C   UNL     1      41.688 -11.362   7.009  1.00  0.00     0.121 A 
HETATM   17  C   UNL     1      39.603 -10.089   6.988  1.00  0.00     0.016 A 
HETATM   18  N   UNL     1      42.492 -12.324   6.511  1.00  0.00    -0.059 NA
HETATM   19  C   UNL     1      42.093 -10.587   8.111  1.00  0.00     0.098 A 
HETATM   20  C   UNL     1      41.259  -9.599   8.655  1.00  0.00     0.039 A 
HETATM   21  C   UNL     1      40.014  -9.349   8.091  1.00  0.00     0.004 A 
BRANCH  19  22
HETATM   22  O   UNL     1      43.333 -10.887   8.634  1.00  0.00    -0.354 OA
HETATM   23  C   UNL     1      43.523 -10.638  10.021  1.00  0.00     0.210 C 
ENDBRANCH  19  22
ENDBRANCH   9  11
ENDBRANCH   1   9
BRANCH   3  24
HETATM   24  C   UNL     1      43.895 -18.605   4.295  1.00  0.00    -0.006 A 
HETATM   25  C   UNL     1      44.556 -19.767   4.732  1.00  0.00     0.017 A 
HETATM   26  C   UNL     1      44.777 -20.838   3.861  1.00  0.00     0.043 A 
HETATM   27  C   UNL     1      44.331 -20.755   2.549  1.00  0.00     0.116 A 
HETATM   28  F   UNL     1      44.543 -21.780   1.712  1.00  0.00    -0.206 F 
HETATM   29  C   UNL     1      43.660 -19.627   2.093  1.00  0.00     0.043 A 
HETATM   30  C   UNL     1      43.437 -18.557   2.965  1.00  0.00     0.017 A 
ENDBRANCH   3  24
TORSDOF 4
ENDMDL
MODEL 7
REMARK VINA RESULT:      -8.8      3.237      4.518
REMARK  4 active torsions:
REMARK  status: ('A' for Active; 'I' for Inactive)
REMARK    1  A    between atoms: C_4  and  N_5 
REMARK    2  A    between atoms: N_5  and  C_6 
REMARK    3  A    between atoms: C_8  and  C_9 
REMARK    4  A    between atoms: C_23  and  O_24 
ROOT
HETATM    1  C   UNL     1      41.420 -16.105   5.713  1.00  0.00     0.722 A 
HETATM    2  N   UNL     1      41.814 -17.061   4.923  1.00  0.00    -0.063 NA
HETATM    3  C   UNL     1      43.069 -17.597   5.113  1.00  0.00     0.091 A 
HETATM    4  C   UNL     1      43.901 -17.211   6.091  1.00  0.00     0.108 A 
HETATM    5  C   UNL     1      43.463 -16.133   6.982  1.00  0.00     0.261 A 
HETATM    6  O   UNL     1      44.178 -15.725   7.889  1.00  0.00    -0.268 OA
HETATM    7  N   UNL     1      42.225 -15.641   6.717  1.00  0.00    -0.154 N 
HETATM    8  H   UNL     1      41.875 -14.893   7.306  1.00  0.00     0.187 HD
ENDROOT
BRANCH   1   9
HETATM    9  N   UNL     1      40.186 -15.563   5.540  1.00  0.00    -0.017 N 
HETATM   10  H   UNL     1      39.387 -16.171   5.619  1.00  0.00     0.203 HD
BRANCH   9  11
HETATM   11  C   UNL     1      39.836 -14.257   5.245  1.00  0.00     0.742 A 
HETATM   12  N   UNL     1      39.881 -13.313   6.197  1.00  0.00    -0.066 NA
HETATM   13  C   UNL     1      39.542 -12.053   5.851  1.00  0.00     0.062 A 
HETATM   14  C   UNL     1      39.620 -11.044   6.962  1.00  0.00     0.072 C 
HETATM   15  C   UNL     1      39.145 -11.703   4.556  1.00  0.00     0.021 A 
HETATM   16  C   UNL     1      39.115 -12.757   3.632  1.00  0.00     0.121 A 
HETATM   17  C   UNL     1      38.787 -10.394   4.157  1.00  0.00     0.016 A 
HETATM   18  N   UNL     1      39.461 -14.012   3.987  1.00  0.00    -0.059 NA
HETATM   19  C   UNL     1      38.704 -12.472   2.316  1.00  0.00     0.098 A 
HETATM   20  C   UNL     1      38.364 -11.168   1.924  1.00  0.00     0.039 A 
HETATM   21  C   UNL     1      38.404 -10.131   2.847  1.00  0.00     0.004 A 
BRANCH  19  22
HETATM   22  O   UNL     1      38.694 -13.539   1.443  1.00  0.00    -0.354 OA
HETATM   23  C   UNL     1      37.479 -13.788   0.748  1.00  0.00     0.210 C 
ENDBRANCH  19  22
ENDBRANCH   9  11
ENDBRANCH   1   9
BRANCH   3  24
HETATM   24  C   UNL     1      43.486 -18.689   4.198  1.00  0.00    -0.006 A 
HETATM   25  C   UNL     1      44.383 -19.674   4.652  1.00  0.00     0.017 A 
HETATM   26  C   UNL     1      44.788 -20.716   3.814  1.00  0.00     0.043 A 
HETATM   27  C   UNL     1      44.294 -20.784   2.518  1.00  0.00     0.116 A 
HETATM   28  F   UNL     1      44.683 -21.782   1.713  1.00  0.00    -0.206 F 
HETATM   29  C   UNL     1      43.395 -19.836   2.047  1.00  0.00     0.043 A 
HETATM   30  C   UNL     1      42.987 -18.795   2.886  1.00  0.00     0.017 A 
ENDBRANCH   3  24
TORSDOF 4
ENDMDL
MODEL 8
REMARK VINA RESULT:      -8.8      4.058      6.029
REMARK  4 active torsions:
REMARK  status: ('A' for Active; 'I' for Inactive)
REMARK    1  A    between atoms: C_4  and  N_5 
REMARK    2  A    between atoms: N_5  and  C_6 
REMARK    3  A    between atoms: C_8  and  C_9 
REMARK    4  A    between atoms: C_23  and  O_24 
ROOT
HETATM    1  C   UNL     1      41.466 -16.114   5.548  1.00  0.00     0.722 A 
HETATM    2  N   UNL     1      41.887 -17.098   4.807  1.00  0.00    -0.063 NA
HETATM    3  C   UNL     1      43.124 -17.643   5.077  1.00  0.00     0.091 A 
HETATM    4  C   UNL     1      43.911 -17.238   6.084  1.00  0.00     0.108 A 
HETATM    5  C   UNL     1      43.442 -16.129   6.919  1.00  0.00     0.261 A 
HETATM    6  O   UNL     1      44.116 -15.702   7.849  1.00  0.00    -0.268 OA
HETATM    7  N   UNL     1      42.227 -15.630   6.578  1.00  0.00    -0.154 N 
HETATM    8  H   UNL     1      41.858 -14.861   7.125  1.00  0.00     0.187 HD
ENDROOT
BRANCH   1   9
HETATM    9  N   UNL     1      40.250 -15.563   5.297  1.00  0.00    -0.017 N 
HETATM   10  H   UNL     1      39.437 -16.150   5.386  1.00  0.00     0.203 HD
BRANCH   9  11
HETATM   11  C   UNL     1      39.937 -14.272   4.905  1.00  0.00     0.742 A 
HETATM   12  N   UNL     1      39.675 -14.002   3.618  1.00  0.00    -0.066 NA
HETATM   13  C   UNL     1      39.363 -12.729   3.292  1.00  0.00     0.062 A 
HETATM   14  C   UNL     1      39.074 -12.496   1.836  1.00  0.00     0.072 C 
HETATM   15  C   UNL     1      39.310 -11.697   4.236  1.00  0.00     0.021 A 
HETATM   16  C   UNL     1      39.611 -12.072   5.553  1.00  0.00     0.121 A 
HETATM   17  C   UNL     1      38.983 -10.355   3.933  1.00  0.00     0.016 A 
HETATM   18  N   UNL     1      39.917 -13.347   5.867  1.00  0.00    -0.059 NA
HETATM   19  C   UNL     1      39.594 -11.073   6.544  1.00  0.00     0.098 A 
HETATM   20  C   UNL     1      39.255  -9.746   6.239  1.00  0.00     0.039 A 
HETATM   21  C   UNL     1      38.952  -9.388   4.931  1.00  0.00     0.004 A 
BRANCH  19  22
HETATM   22  O   UNL     1      39.895 -11.489   7.824  1.00  0.00    -0.354 OA
HETATM   23  C   UNL     1      39.289 -10.772   8.892  1.00  0.00     0.210 C 
ENDBRANCH  19  22
ENDBRANCH   9  11
ENDBRANCH   1   9
BRANCH   3  24
HETATM   24  C   UNL     1      43.571 -18.767   4.216  1.00  0.00    -0.006 A 
HETATM   25  C   UNL     1      43.172 -18.814   2.868  1.00  0.00     0.017 A 
HETATM   26  C   UNL     1      43.582 -19.857   2.033  1.00  0.00     0.043 A 
HETATM   27  C   UNL     1      44.401 -20.857   2.540  1.00  0.00     0.116 A 
HETATM   28  F   UNL     1      44.794 -21.859   1.742  1.00  0.00    -0.206 F 
HETATM   29  C   UNL     1      44.825 -20.830   3.863  1.00  0.00     0.043 A 
HETATM   30  C   UNL     1      44.417 -19.784   4.697  1.00  0.00     0.017 A 
ENDBRANCH   3  24
TORSDOF 4
ENDMDL
MODEL 9
REMARK VINA RESULT:      -8.7      3.521      8.644
REMARK  4 active torsions:
REMARK  status: ('A' for Active; 'I' for Inactive)
REMARK    1  A    between atoms: C_4  and  N_5 
REMARK    2  A    between atoms: N_5  and  C_6 
REMARK    3  A    between atoms: C_8  and  C_9 
REMARK    4  A    between atoms: C_23  and  O_24 
ROOT
HETATM    1  C   UNL     1      41.047 -16.471   0.827  1.00  0.00     0.722 A 
HETATM    2  N   UNL     1      41.457 -15.714  -0.149  1.00  0.00    -0.063 NA
HETATM    3  C   UNL     1      40.845 -14.493  -0.337  1.00  0.00     0.091 A 
HETATM    4  C   UNL     1      39.867 -14.023   0.450  1.00  0.00     0.108 A 
HETATM    5  C   UNL     1      39.400 -14.874   1.549  1.00  0.00     0.261 A 
HETATM    6  O   UNL     1      38.502 -14.510   2.299  1.00  0.00    -0.268 OA
HETATM    7  N   UNL     1      40.035 -16.069   1.656  1.00  0.00    -0.154 N 
HETATM    8  H   UNL     1      39.748 -16.695   2.400  1.00  0.00     0.187 HD
ENDROOT
BRANCH   1   9
HETATM    9  N   UNL     1      41.637 -17.679   1.028  1.00  0.00    -0.017 N 
HETATM   10  H   UNL     1      41.467 -18.406   0.352  1.00  0.00     0.203 HD
BRANCH   9  11
HETATM   11  C   UNL     1      42.456 -18.092   2.064  1.00  0.00     0.742 A 
HETATM   12  N   UNL     1      43.107 -19.262   1.986  1.00  0.00    -0.066 NA
HETATM   13  C   UNL     1      43.903 -19.610   3.019  1.00  0.00     0.062 A 
HETATM   14  C   UNL     1      44.607 -20.929   2.865  1.00  0.00     0.072 C 
HETATM   15  C   UNL     1      44.066 -18.809   4.154  1.00  0.00     0.021 A 
HETATM   16  C   UNL     1      43.337 -17.611   4.153  1.00  0.00     0.121 A 
HETATM   17  C   UNL     1      44.893 -19.139   5.253  1.00  0.00     0.016 A 
HETATM   18  N   UNL     1      42.548 -17.271   3.113  1.00  0.00    -0.059 NA
HETATM   19  C   UNL     1      43.444 -16.771   5.277  1.00  0.00     0.098 A 
HETATM   20  C   UNL     1      44.278 -17.098   6.356  1.00  0.00     0.039 A 
HETATM   21  C   UNL     1      45.000 -18.285   6.344  1.00  0.00     0.004 A 
BRANCH  19  22
HETATM   22  O   UNL     1      42.711 -15.604   5.228  1.00  0.00    -0.354 OA
HETATM   23  C   UNL     1      41.519 -15.561   6.003  1.00  0.00     0.210 C 
ENDBRANCH  19  22
ENDBRANCH   9  11
ENDBRANCH   1   9
BRANCH   3  24
HETATM   24  C   UNL     1      41.341 -13.652  -1.455  1.00  0.00    -0.006 A 
HETATM   25  C   UNL     1      42.293 -12.648  -1.202  1.00  0.00     0.017 A 
HETATM   26  C   UNL     1      42.781 -11.844  -2.236  1.00  0.00     0.043 A 
HETATM   27  C   UNL     1      42.325 -12.045  -3.532  1.00  0.00     0.116 A 
HETATM   28  F   UNL     1      42.790 -11.274  -4.524  1.00  0.00    -0.206 F 
HETATM   29  C   UNL     1      41.397 -13.039  -3.816  1.00  0.00     0.043 A 
HETATM   30  C   UNL     1      40.911 -13.845  -2.781  1.00  0.00     0.017 A 
ENDBRANCH   3  24
TORSDOF 4
ENDMDL
MODEL 10
REMARK VINA RESULT:      -8.7      2.484      3.309
REMARK  4 active torsions:
REMARK  status: ('A' for Active; 'I' for Inactive)
REMARK    1  A    between atoms: C_4  and  N_5 
REMARK    2  A    between atoms: N_5  and  C_6 
REMARK    3  A    between atoms: C_8  and  C_9 
REMARK    4  A    between atoms: C_23  and  O_24 
ROOT
HETATM    1  C   UNL     1      43.324 -15.056   4.323  1.00  0.00     0.722 A 
HETATM    2  N   UNL     1      43.471 -16.195   3.711  1.00  0.00    -0.063 NA
HETATM    3  C   UNL     1      43.760 -17.314   4.461  1.00  0.00     0.091 A 
HETATM    4  C   UNL     1      43.869 -17.304   5.798  1.00  0.00     0.108 A 
HETATM    5  C   UNL     1      43.707 -16.023   6.491  1.00  0.00     0.261 A 
HETATM    6  O   UNL     1      43.804 -15.941   7.710  1.00  0.00    -0.268 OA
HETATM    7  N   UNL     1      43.446 -14.964   5.683  1.00  0.00    -0.154 N 
HETATM    8  H   UNL     1      43.326 -14.055   6.115  1.00  0.00     0.187 HD
ENDROOT
BRANCH   1   9
HETATM    9  N   UNL     1      43.039 -13.941   3.600  1.00  0.00    -0.017 N 
HETATM   10  H   UNL     1      43.542 -13.096   3.815  1.00  0.00     0.203 HD
BRANCH   9  11
HETATM   11  C   UNL     1      42.117 -13.770   2.581  1.00  0.00     0.742 A 
HETATM   12  N   UNL     1      40.949 -14.427   2.609  1.00  0.00    -0.066 NA
HETATM   13  C   UNL     1      40.081 -14.213   1.597  1.00  0.00     0.062 A 
HETATM   14  C   UNL     1      38.789 -14.975   1.693  1.00  0.00     0.072 C 
HETATM   15  C   UNL     1      40.357 -13.348   0.533  1.00  0.00     0.021 A 
HETATM   16  C   UNL     1      41.608 -12.715   0.582  1.00  0.00     0.121 A 
HETATM   17  C   UNL     1      39.472 -13.096  -0.542  1.00  0.00     0.016 A 
HETATM   18  N   UNL     1      42.464 -12.933   1.600  1.00  0.00    -0.059 NA
HETATM   19  C   UNL     1      41.951 -11.848  -0.472  1.00  0.00     0.098 A 
HETATM   20  C   UNL     1      41.062 -11.593  -1.527  1.00  0.00     0.039 A 
HETATM   21  C   UNL     1      39.823 -12.219  -1.561  1.00  0.00     0.004 A 
BRANCH  19  22
HETATM   22  O   UNL     1      43.189 -11.248  -0.379  1.00  0.00    -0.354 OA
HETATM   23  C   UNL     1      43.221  -9.828  -0.446  1.00  0.00     0.210 C 
ENDBRANCH  19  22
ENDBRANCH   9  11
ENDBRANCH   1   9
BRANCH   3  24
HETATM   24  C   UNL     1      43.917 -18.598   3.732  1.00  0.00    -0.006 A 
HETATM   25  C   UNL     1      44.565 -19.678   4.357  1.00  0.00     0.017 A 
HETATM   26  C   UNL     1      44.722 -20.900   3.697  1.00  0.00     0.043 A 
HETATM   27  C   UNL     1      44.224 -21.051   2.409  1.00  0.00     0.116 A 
HETATM   28  F   UNL     1      44.375 -22.221   1.774  1.00  0.00    -0.206 F 
HETATM   29  C   UNL     1      43.566 -20.007   1.772  1.00  0.00     0.043 A 
HETATM   30  C   UNL     1      43.406 -18.785   2.434  1.00  0.00     0.017 A 
ENDBRANCH   3  24
TORSDOF 4
ENDMDL
