MODEL 1
REMARK VINA RESULT:      -9.3      0.000      0.000
REMARK  7 active torsions:
REMARK  status: ('A' for Active; 'I' for Inactive)
REMARK    1  A    between atoms: C_2  and  N_3 
REMARK    2  A    between atoms: C_2  and  C_26 
REMARK       I    between atoms: N_3  and  C_4 
REMARK    3  A    between atoms: C_4  and  C_5 
REMARK    4  A    between atoms: C_8  and  C_9 
REMARK       I    between atoms: C_9  and  N_10 
REMARK    5  A    between atoms: N_10  and  C_11 
REMARK    6  A    between atoms: N_20  and  C_21 
REMARK    7  A    between atoms: C_28  and  O_29 
ROOT
HETATM    1  C   UNL     1      40.089 -15.082   1.596  1.00  0.00     0.098 A 
HETATM    2  C   UNL     1      40.864 -16.345   1.789  1.00  0.00     0.206 A 
HETATM    3  O   UNL     1      41.119 -17.077   0.831  1.00  0.00    -0.286 OA
HETATM    4  C   UNL     1      41.310 -16.714   3.167  1.00  0.00     0.098 A 
HETATM    5  C   UNL     1      40.963 -15.876   4.159  1.00  0.00     0.112 A 
HETATM    6  N   UNL     1      40.252 -14.708   3.966  1.00  0.00    -0.360 N 
HETATM    7  C   UNL     1      39.822 -14.364   2.700  1.00  0.00     0.112 A 
ENDROOT
BRANCH   1   8
HETATM    8  C   UNL     1      39.596 -14.592   0.276  1.00  0.00     0.257 C 
HETATM    9  N   UNL     1      40.442 -14.814  -0.777  1.00  0.00    -0.348 N 
HETATM   10  H   UNL     1      41.350 -15.237  -0.584  1.00  0.00     0.163 HD
HETATM   11  O   UNL     1      38.510 -14.031   0.159  1.00  0.00    -0.267 OA
BRANCH   9  12
HETATM   12  C   UNL     1      40.172 -14.398  -2.142  1.00  0.00     0.114 C 
HETATM   13  C   UNL     1      40.364 -15.545  -3.137  1.00  0.00     0.037 C 
BRANCH  12  14
HETATM   14  C   UNL     1      41.059 -13.216  -2.506  1.00  0.00    -0.033 A 
HETATM   15  C   UNL     1      41.950 -12.681  -1.557  1.00  0.00     0.046 A 
HETATM   16  C   UNL     1      42.772 -11.599  -1.882  1.00  0.00     0.068 A 
HETATM   17  C   UNL     1      42.716 -11.054  -3.167  1.00  0.00     0.037 A 
HETATM   18  C   UNL     1      41.839 -11.570  -4.118  1.00  0.00     0.003 A 
HETATM   19  C   UNL     1      41.011 -12.642  -3.788  1.00  0.00     0.009 A 
BRANCH  16  20
HETATM   20  O   UNL     1      43.669 -10.989  -1.047  1.00  0.00    -0.356 OA
HETATM   21  C   UNL     1      43.680  -9.567  -1.043  1.00  0.00     0.210 C 
ENDBRANCH  16  20
ENDBRANCH  12  14
ENDBRANCH   9  12
ENDBRANCH   1   8
BRANCH   4  22
HETATM   22  C   UNL     1      42.100 -17.936   3.492  1.00  0.00     0.257 C 
HETATM   23  N   UNL     1      42.977 -18.330   2.513  1.00  0.00    -0.352 N 
HETATM   24  H   UNL     1      43.088 -17.717   1.706  1.00  0.00     0.163 HD
HETATM   25  O   UNL     1      41.967 -18.525   4.560  1.00  0.00    -0.267 OA
BRANCH  23  26
HETATM   26  C   UNL     1      43.996 -19.362   2.692  1.00  0.00     0.084 C 
HETATM   27  C   UNL     1      44.386 -19.392   4.175  1.00  0.00     0.025 C 
HETATM   28  C   UNL     1      45.341 -20.507   4.598  1.00  0.00     0.002 C 
HETATM   29  C   UNL     1      44.661 -21.871   4.640  1.00  0.00     0.000 C 
HETATM   30  C   UNL     1      44.653 -22.627   3.314  1.00  0.00     0.000 C 
HETATM   31  C   UNL     1      44.498 -21.791   2.048  1.00  0.00     0.002 C 
HETATM   32  C   UNL     1      43.450 -20.687   2.136  1.00  0.00     0.025 C 
ENDBRANCH  23  26
ENDBRANCH   4  22
BRANCH   6  33
HETATM   33  C   UNL     1      39.758 -13.963   5.131  1.00  0.00     0.089 A 
HETATM   34  C   UNL     1      40.694 -13.201   6.034  1.00  0.00     0.028 A 
HETATM   35  C   UNL     1      39.727 -12.456   5.165  1.00  0.00     0.028 A 
ENDBRANCH   6  33
TORSDOF 7
ENDMDL
MODEL 2
REMARK VINA RESULT:      -9.3      2.433      7.952
REMARK  7 active torsions:
REMARK  status: ('A' for Active; 'I' for Inactive)
REMARK    1  A    between atoms: C_2  and  N_3 
REMARK    2  A    between atoms: C_2  and  C_26 
REMARK       I    between atoms: N_3  and  C_4 
REMARK    3  A    between atoms: C_4  and  C_5 
REMARK    4  A    between atoms: C_8  and  C_9 
REMARK       I    between atoms: C_9  and  N_10 
REMARK    5  A    between atoms: N_10  and  C_11 
REMARK    6  A    between atoms: N_20  and  C_21 
REMARK    7  A    between atoms: C_28  and  O_29 
ROOT
HETATM    1  C   UNL     1      40.739 -15.087   5.040  1.00  0.00     0.098 A 
HETATM    2  C   UNL     1      41.011 -14.906   3.582  1.00  0.00     0.206 A 
HETATM    3  O   UNL     1      41.564 -15.795   2.932  1.00  0.00    -0.286 OA
HETATM    4  C   UNL     1      40.615 -13.621   2.929  1.00  0.00     0.098 A 
HETATM    5  C   UNL     1      40.046 -12.693   3.717  1.00  0.00     0.112 A 
HETATM    6  N   UNL     1      39.795 -12.876   5.062  1.00  0.00    -0.360 N 
HETATM    7  C   UNL     1      40.169 -14.053   5.681  1.00  0.00     0.112 A 
ENDROOT
BRANCH   1   8
HETATM    8  C   UNL     1      41.072 -16.321   5.810  1.00  0.00     0.257 C 
HETATM    9  N   UNL     1      42.371 -16.739   5.700  1.00  0.00    -0.348 N 
HETATM   10  H   UNL     1      42.991 -16.225   5.074  1.00  0.00     0.163 HD
HETATM   11  O   UNL     1      40.232 -16.908   6.485  1.00  0.00    -0.267 OA
BRANCH   9  12
HETATM   12  C   UNL     1      42.902 -17.928   6.345  1.00  0.00     0.114 C 
HETATM   13  C   UNL     1      43.914 -17.580   7.439  1.00  0.00     0.037 C 
BRANCH  12  14
HETATM   14  C   UNL     1      43.530 -18.842   5.303  1.00  0.00    -0.033 A 
HETATM   15  C   UNL     1      43.374 -18.565   3.932  1.00  0.00     0.046 A 
HETATM   16  C   UNL     1      43.949 -19.396   2.967  1.00  0.00     0.068 A 
HETATM   17  C   UNL     1      44.699 -20.503   3.371  1.00  0.00     0.037 A 
HETATM   18  C   UNL     1      44.863 -20.792   4.724  1.00  0.00     0.003 A 
HETATM   19  C   UNL     1      44.277 -19.970   5.684  1.00  0.00     0.009 A 
BRANCH  16  20
HETATM   20  O   UNL     1      43.862 -19.237   1.610  1.00  0.00    -0.356 OA
HETATM   21  C   UNL     1      43.702 -17.909   1.127  1.00  0.00     0.210 C 
ENDBRANCH  16  20
ENDBRANCH  12  14
ENDBRANCH   9  12
ENDBRANCH   1   8
BRANCH   4  22
HETATM   22  C   UNL     1      40.816 -13.321   1.482  1.00  0.00     0.257 C 
HETATM   23  N   UNL     1      40.415 -14.316   0.628  1.00  0.00    -0.352 N 
HETATM   24  H   UNL     1      39.932 -15.118   1.034  1.00  0.00     0.163 HD
HETATM   25  O   UNL     1      41.298 -12.258   1.105  1.00  0.00    -0.267 OA
BRANCH  23  26
HETATM   26  C   UNL     1      40.318 -14.163  -0.822  1.00  0.00     0.084 C 
HETATM   27  C   UNL     1      41.076 -15.325  -1.474  1.00  0.00     0.025 C 
HETATM   28  C   UNL     1      40.974 -15.429  -2.994  1.00  0.00     0.002 C 
HETATM   29  C   UNL     1      39.607 -15.923  -3.454  1.00  0.00     0.000 C 
HETATM   30  C   UNL     1      38.556 -14.832  -3.637  1.00  0.00     0.000 C 
HETATM   31  C   UNL     1      38.600 -13.665  -2.657  1.00  0.00     0.002 C 
HETATM   32  C   UNL     1      38.833 -14.061  -1.203  1.00  0.00     0.025 C 
ENDBRANCH  23  26
ENDBRANCH   4  22
BRANCH   6  33
HETATM   33  C   UNL     1      39.348 -11.736   5.874  1.00  0.00     0.089 A 
HETATM   34  C   UNL     1      39.504 -11.727   7.373  1.00  0.00     0.028 A 
HETATM   35  C   UNL     1      40.319 -10.791   6.534  1.00  0.00     0.028 A 
ENDBRANCH   6  33
TORSDOF 7
ENDMDL
MODEL 3
REMARK VINA RESULT:      -9.1      4.292      8.168
REMARK  7 active torsions:
REMARK  status: ('A' for Active; 'I' for Inactive)
REMARK    1  A    between atoms: C_2  and  N_3 
REMARK    2  A    between atoms: C_2  and  C_26 
REMARK       I    between atoms: N_3  and  C_4 
REMARK    3  A    between atoms: C_4  and  C_5 
REMARK    4  A    between atoms: C_8  and  C_9 
REMARK       I    between atoms: C_9  and  N_10 
REMARK    5  A    between atoms: N_10  and  C_11 
REMARK    6  A    between atoms: N_20  and  C_21 
REMARK    7  A    between atoms: C_28  and  O_29 
ROOT
HETATM    1  C   UNL     1      40.311 -11.871   5.827  1.00  0.00     0.098 A 
HETATM    2  C   UNL     1      41.486 -12.706   5.435  1.00  0.00     0.206 A 
HETATM    3  O   UNL     1      42.392 -12.932   6.240  1.00  0.00    -0.286 OA
HETATM    4  C   UNL     1      41.553 -13.250   4.044  1.00  0.00     0.098 A 
HETATM    5  C   UNL     1      40.539 -12.931   3.221  1.00  0.00     0.112 A 
HETATM    6  N   UNL     1      39.456 -12.163   3.598  1.00  0.00    -0.360 N 
HETATM    7  C   UNL     1      39.390 -11.642   4.875  1.00  0.00     0.112 A 
ENDROOT
BRANCH   1   8
HETATM    8  C   UNL     1      40.115 -11.278   7.181  1.00  0.00     0.257 C 
HETATM    9  N   UNL     1      41.230 -10.697   7.725  1.00  0.00    -0.348 N 
HETATM   10  H   UNL     1      42.106 -10.756   7.206  1.00  0.00     0.163 HD
HETATM   11  O   UNL     1      39.031 -11.318   7.754  1.00  0.00    -0.267 OA
BRANCH   9  12
HETATM   12  C   UNL     1      41.269 -10.084   9.041  1.00  0.00     0.114 C 
HETATM   13  C   UNL     1      41.114  -8.563   8.967  1.00  0.00     0.037 C 
BRANCH  12  14
HETATM   14  C   UNL     1      42.564 -10.458   9.746  1.00  0.00    -0.033 A 
HETATM   15  C   UNL     1      43.461 -11.362   9.146  1.00  0.00     0.046 A 
HETATM   16  C   UNL     1      44.655 -11.710   9.783  1.00  0.00     0.068 A 
HETATM   17  C   UNL     1      44.966 -11.143  11.020  1.00  0.00     0.037 A 
HETATM   18  C   UNL     1      44.089 -10.247  11.629  1.00  0.00     0.003 A 
HETATM   19  C   UNL     1      42.893  -9.912  10.999  1.00  0.00     0.009 A 
BRANCH  16  20
HETATM   20  O   UNL     1      45.600 -12.579   9.306  1.00  0.00    -0.356 OA
HETATM   21  C   UNL     1      45.429 -13.048   7.975  1.00  0.00     0.210 C 
ENDBRANCH  16  20
ENDBRANCH  12  14
ENDBRANCH   9  12
ENDBRANCH   1   8
BRANCH   4  22
HETATM   22  C   UNL     1      42.661 -14.108   3.533  1.00  0.00     0.257 C 
HETATM   23  N   UNL     1      42.611 -15.416   3.944  1.00  0.00    -0.352 N 
HETATM   24  H   UNL     1      41.788 -15.713   4.469  1.00  0.00     0.163 HD
HETATM   25  O   UNL     1      43.535 -13.662   2.798  1.00  0.00    -0.267 OA
BRANCH  23  26
HETATM   26  C   UNL     1      43.458 -16.477   3.406  1.00  0.00     0.084 C 
HETATM   27  C   UNL     1      43.601 -17.562   4.480  1.00  0.00     0.025 C 
HETATM   28  C   UNL     1      44.337 -18.833   4.061  1.00  0.00     0.002 C 
HETATM   29  C   UNL     1      43.502 -19.711   3.135  1.00  0.00     0.000 C 
HETATM   30  C   UNL     1      43.615 -19.372   1.652  1.00  0.00     0.000 C 
HETATM   31  C   UNL     1      43.764 -17.897   1.294  1.00  0.00     0.002 C 
HETATM   32  C   UNL     1      42.854 -16.955   2.076  1.00  0.00     0.025 C 
ENDBRANCH  23  26
ENDBRANCH   4  22
BRANCH   6  33
HETATM   33  C   UNL     1      38.502 -11.711   2.576  1.00  0.00     0.089 A 
HETATM   34  C   UNL     1      37.677 -10.464   2.764  1.00  0.00     0.028 A 
HETATM   35  C   UNL     1      38.755 -10.494   1.724  1.00  0.00     0.028 A 
ENDBRANCH   6  33
TORSDOF 7
ENDMDL
MODEL 4
REMARK VINA RESULT:      -9.0      2.370      8.406
REMARK  7 active torsions:
REMARK  status: ('A' for Active; 'I' for Inactive)
REMARK    1  A    between atoms: C_2  and  N_3 
REMARK    2  A    between atoms: C_2  and  C_26 
REMARK       I    between atoms: N_3  and  C_4 
REMARK    3  A    between atoms: C_4  and  C_5 
REMARK    4  A    between atoms: C_8  and  C_9 
REMARK       I    between atoms: C_9  and  N_10 
REMARK    5  A    between atoms: N_10  and  C_11 
REMARK    6  A    between atoms: N_20  and  C_21 
REMARK    7  A    between atoms: C_28  and  O_29 
ROOT
HETATM    1  C   UNL     1      41.548 -14.229   4.238  1.00  0.00     0.098 A 
HETATM    2  C   UNL     1      41.564 -14.372   2.750  1.00  0.00     0.206 A 
HETATM    3  O   UNL     1      41.799 -15.464   2.228  1.00  0.00    -0.286 OA
HETATM    4  C   UNL     1      41.306 -13.166   1.907  1.00  0.00     0.098 A 
HETATM    5  C   UNL     1      41.089 -12.009   2.556  1.00  0.00     0.112 A 
HETATM    6  N   UNL     1      41.071 -11.892   3.931  1.00  0.00    -0.360 N 
HETATM    7  C   UNL     1      41.322 -12.996   4.722  1.00  0.00     0.112 A 
ENDROOT
BRANCH   1   8
HETATM    8  C   UNL     1      41.777 -15.351   5.193  1.00  0.00     0.257 C 
HETATM    9  N   UNL     1      42.912 -16.082   4.965  1.00  0.00    -0.348 N 
HETATM   10  H   UNL     1      43.477 -15.851   4.148  1.00  0.00     0.163 HD
HETATM   11  O   UNL     1      40.996 -15.590   6.109  1.00  0.00    -0.267 OA
BRANCH   9  12
HETATM   12  C   UNL     1      43.314 -17.232   5.757  1.00  0.00     0.114 C 
HETATM   13  C   UNL     1      44.404 -16.873   6.770  1.00  0.00     0.037 C 
BRANCH  12  14
HETATM   14  C   UNL     1      43.780 -18.353   4.840  1.00  0.00    -0.033 A 
HETATM   15  C   UNL     1      44.331 -19.529   5.383  1.00  0.00     0.046 A 
HETATM   16  C   UNL     1      44.760 -20.566   4.551  1.00  0.00     0.068 A 
HETATM   17  C   UNL     1      44.624 -20.438   3.167  1.00  0.00     0.037 A 
HETATM   18  C   UNL     1      44.081 -19.281   2.612  1.00  0.00     0.003 A 
HETATM   19  C   UNL     1      43.667 -18.242   3.443  1.00  0.00     0.009 A 
BRANCH  16  20
HETATM   20  O   UNL     1      45.316 -21.749   4.957  1.00  0.00    -0.356 OA
HETATM   21  C   UNL     1      44.737 -22.942   4.446  1.00  0.00     0.210 C 
ENDBRANCH  16  20
ENDBRANCH  12  14
ENDBRANCH   9  12
ENDBRANCH   1   8
BRANCH   4  22
HETATM   22  C   UNL     1      41.279 -13.177   0.416  1.00  0.00     0.257 C 
HETATM   23  N   UNL     1      40.296 -13.961  -0.135  1.00  0.00    -0.352 N 
HETATM   24  H   UNL     1      39.619 -14.382   0.501  1.00  0.00     0.163 HD
HETATM   25  O   UNL     1      42.077 -12.525  -0.249  1.00  0.00    -0.267 OA
BRANCH  23  26
HETATM   26  C   UNL     1      39.946 -13.961  -1.553  1.00  0.00     0.084 C 
HETATM   27  C   UNL     1      40.635 -15.161  -2.213  1.00  0.00     0.025 C 
HETATM   28  C   UNL     1      40.279 -15.424  -3.675  1.00  0.00     0.002 C 
HETATM   29  C   UNL     1      38.878 -16.003  -3.839  1.00  0.00     0.000 C 
HETATM   30  C   UNL     1      37.761 -14.968  -3.938  1.00  0.00     0.000 C 
HETATM   31  C   UNL     1      37.918 -13.705  -3.098  1.00  0.00     0.002 C 
HETATM   32  C   UNL     1      38.414 -13.942  -1.676  1.00  0.00     0.025 C 
ENDBRANCH  23  26
ENDBRANCH   4  22
BRANCH   6  33
HETATM   33  C   UNL     1      41.017 -10.556   4.541  1.00  0.00     0.089 A 
HETATM   34  C   UNL     1      40.583  -9.347   3.753  1.00  0.00     0.028 A 
HETATM   35  C   UNL     1      39.712  -9.870   4.855  1.00  0.00     0.028 A 
ENDBRANCH   6  33
TORSDOF 7
ENDMDL
MODEL 5
REMARK VINA RESULT:      -8.9      1.654      2.112
REMARK  7 active torsions:
REMARK  status: ('A' for Active; 'I' for Inactive)
REMARK    1  A    between atoms: C_2  and  N_3 
REMARK    2  A    between atoms: C_2  and  C_26 
REMARK       I    between atoms: N_3  and  C_4 
REMARK    3  A    between atoms: C_4  and  C_5 
REMARK    4  A    between atoms: C_8  and  C_9 
REMARK       I    between atoms: C_9  and  N_10 
REMARK    5  A    between atoms: N_10  and  C_11 
REMARK    6  A    between atoms: N_20  and  C_21 
REMARK    7  A    between atoms: C_28  and  O_29 
ROOT
HETATM    1  C   UNL     1      40.051 -14.791   1.025  1.00  0.00     0.098 A 
HETATM    2  C   UNL     1      41.242 -15.686   0.915  1.00  0.00     0.206 A 
HETATM    3  O   UNL     1      41.609 -16.109  -0.184  1.00  0.00    -0.286 OA
HETATM    4  C   UNL     1      41.972 -16.073   2.161  1.00  0.00     0.098 A 
HETATM    5  C   UNL     1      41.487 -15.592   3.319  1.00  0.00     0.112 A 
HETATM    6  N   UNL     1      40.389 -14.761   3.406  1.00  0.00    -0.360 N 
HETATM    7  C   UNL     1      39.697 -14.409   2.264  1.00  0.00     0.112 A 
ENDROOT
BRANCH   1   8
HETATM    8  C   UNL     1      39.242 -14.321  -0.136  1.00  0.00     0.257 C 
HETATM    9  N   UNL     1      39.931 -14.213  -1.315  1.00  0.00    -0.348 N 
HETATM   10  H   UNL     1      40.933 -14.402  -1.306  1.00  0.00     0.163 HD
HETATM   11  O   UNL     1      38.049 -14.053  -0.028  1.00  0.00    -0.267 OA
BRANCH   9  12
HETATM   12  C   UNL     1      39.345 -13.751  -2.561  1.00  0.00     0.114 C 
HETATM   13  C   UNL     1      39.024 -14.912  -3.506  1.00  0.00     0.037 C 
BRANCH  12  14
HETATM   14  C   UNL     1      40.280 -12.756  -3.233  1.00  0.00    -0.033 A 
HETATM   15  C   UNL     1      39.755 -11.712  -4.018  1.00  0.00     0.046 A 
HETATM   16  C   UNL     1      40.604 -10.790  -4.637  1.00  0.00     0.068 A 
HETATM   17  C   UNL     1      41.985 -10.899  -4.459  1.00  0.00     0.037 A 
HETATM   18  C   UNL     1      42.521 -11.926  -3.686  1.00  0.00     0.003 A 
HETATM   19  C   UNL     1      41.673 -12.853  -3.081  1.00  0.00     0.009 A 
BRANCH  16  20
HETATM   20  O   UNL     1      40.217  -9.741  -5.427  1.00  0.00    -0.356 OA
HETATM   21  C   UNL     1      40.162  -9.977  -6.828  1.00  0.00     0.210 C 
ENDBRANCH  16  20
ENDBRANCH  12  14
ENDBRANCH   9  12
ENDBRANCH   1   8
BRANCH   4  22
HETATM   22  C   UNL     1      43.181 -16.945   2.186  1.00  0.00     0.257 C 
HETATM   23  N   UNL     1      43.029 -18.118   2.881  1.00  0.00    -0.352 N 
HETATM   24  H   UNL     1      42.097 -18.341   3.229  1.00  0.00     0.163 HD
HETATM   25  O   UNL     1      44.220 -16.623   1.619  1.00  0.00    -0.267 OA
BRANCH  23  26
HETATM   26  C   UNL     1      43.997 -19.213   2.863  1.00  0.00     0.084 C 
HETATM   27  C   UNL     1      44.445 -19.474   4.306  1.00  0.00     0.025 C 
HETATM   28  C   UNL     1      45.353 -20.683   4.522  1.00  0.00     0.002 C 
HETATM   29  C   UNL     1      44.603 -22.005   4.403  1.00  0.00     0.000 C 
HETATM   30  C   UNL     1      44.499 -22.561   2.986  1.00  0.00     0.000 C 
HETATM   31  C   UNL     1      44.339 -21.546   1.859  1.00  0.00     0.002 C 
HETATM   32  C   UNL     1      43.357 -20.416   2.153  1.00  0.00     0.025 C 
ENDBRANCH  23  26
ENDBRANCH   4  22
BRANCH   6  33
HETATM   33  C   UNL     1      39.824 -14.448   4.726  1.00  0.00     0.089 A 
HETATM   34  C   UNL     1      40.586 -14.727   5.996  1.00  0.00     0.028 A 
HETATM   35  C   UNL     1      40.341 -13.311   5.570  1.00  0.00     0.028 A 
ENDBRANCH   6  33
TORSDOF 7
ENDMDL
MODEL 6
REMARK VINA RESULT:      -8.8      4.409      8.408
REMARK  7 active torsions:
REMARK  status: ('A' for Active; 'I' for Inactive)
REMARK    1  A    between atoms: C_2  and  N_3 
REMARK    2  A    between atoms: C_2  and  C_26 
REMARK       I    between atoms: N_3  and  C_4 
REMARK    3  A    between atoms: C_4  and  C_5 
REMARK    4  A    between atoms: C_8  and  C_9 
REMARK       I    between atoms: C_9  and  N_10 
REMARK    5  A    between atoms: N_10  and  C_11 
REMARK    6  A    between atoms: N_20  and  C_21 
REMARK    7  A    between atoms: C_28  and  O_29 
ROOT
HETATM    1  C   UNL     1      43.534 -13.716   6.480  1.00  0.00     0.098 A 
HETATM    2  C   UNL     1      43.369 -15.170   6.175  1.00  0.00     0.206 A 
HETATM    3  O   UNL     1      44.022 -16.017   6.788  1.00  0.00    -0.286 OA
HETATM    4  C   UNL     1      42.411 -15.578   5.102  1.00  0.00     0.098 A 
HETATM    5  C   UNL     1      41.763 -14.589   4.463  1.00  0.00     0.112 A 
HETATM    6  N   UNL     1      41.921 -13.250   4.759  1.00  0.00    -0.360 N 
HETATM    7  C   UNL     1      42.814 -12.859   5.737  1.00  0.00     0.112 A 
ENDROOT
BRANCH   1   8
HETATM    8  C   UNL     1      44.445 -13.176   7.530  1.00  0.00     0.257 C 
HETATM    9  N   UNL     1      43.825 -12.468   8.524  1.00  0.00    -0.348 N 
HETATM   10  H   UNL     1      42.820 -12.316   8.453  1.00  0.00     0.163 HD
HETATM   11  O   UNL     1      45.658 -13.357   7.490  1.00  0.00    -0.267 OA
BRANCH   9  12
HETATM   12  C   UNL     1      44.523 -11.834   9.630  1.00  0.00     0.114 C 
HETATM   13  C   UNL     1      44.962 -12.852  10.686  1.00  0.00     0.037 C 
BRANCH  12  14
HETATM   14  C   UNL     1      43.640 -10.763  10.252  1.00  0.00    -0.033 A 
HETATM   15  C   UNL     1      42.534 -10.258   9.542  1.00  0.00     0.046 A 
HETATM   16  C   UNL     1      41.713  -9.277  10.105  1.00  0.00     0.068 A 
HETATM   17  C   UNL     1      41.989  -8.805  11.390  1.00  0.00     0.037 A 
HETATM   18  C   UNL     1      43.079  -9.292  12.106  1.00  0.00     0.003 A 
HETATM   19  C   UNL     1      43.904 -10.262  11.538  1.00  0.00     0.009 A 
BRANCH  16  20
HETATM   20  O   UNL     1      40.619  -8.705   9.514  1.00  0.00    -0.356 OA
HETATM   21  C   UNL     1      39.377  -9.377   9.674  1.00  0.00     0.210 C 
ENDBRANCH  16  20
ENDBRANCH  12  14
ENDBRANCH   9  12
ENDBRANCH   1   8
BRANCH   4  22
HETATM   22  C   UNL     1      42.144 -16.992   4.713  1.00  0.00     0.257 C 
HETATM   23  N   UNL     1      43.234 -17.671   4.232  1.00  0.00    -0.352 N 
HETATM   24  H   UNL     1      44.137 -17.200   4.272  1.00  0.00     0.163 HD
HETATM   25  O   UNL     1      41.030 -17.493   4.828  1.00  0.00    -0.267 OA
BRANCH  23  26
HETATM   26  C   UNL     1      43.261 -19.112   3.991  1.00  0.00     0.084 C 
HETATM   27  C   UNL     1      43.120 -19.345   2.482  1.00  0.00     0.025 C 
HETATM   28  C   UNL     1      43.270 -20.788   2.004  1.00  0.00     0.002 C 
HETATM   29  C   UNL     1      44.716 -21.270   2.050  1.00  0.00     0.000 C 
HETATM   30  C   UNL     1      45.157 -21.855   3.388  1.00  0.00     0.000 C 
HETATM   31  C   UNL     1      44.579 -21.211   4.644  1.00  0.00     0.002 C 
HETATM   32  C   UNL     1      44.541 -19.686   4.620  1.00  0.00     0.025 C 
ENDBRANCH  23  26
ENDBRANCH   4  22
BRANCH   6  33
HETATM   33  C   UNL     1      41.317 -12.240   3.878  1.00  0.00     0.089 A 
HETATM   34  C   UNL     1      40.034 -12.509   3.134  1.00  0.00     0.028 A 
HETATM   35  C   UNL     1      40.053 -11.506   4.248  1.00  0.00     0.028 A 
ENDBRANCH   6  33
TORSDOF 7
ENDMDL
MODEL 7
REMARK VINA RESULT:      -8.8      2.169      3.455
REMARK  7 active torsions:
REMARK  status: ('A' for Active; 'I' for Inactive)
REMARK    1  A    between atoms: C_2  and  N_3 
REMARK    2  A    between atoms: C_2  and  C_26 
REMARK       I    between atoms: N_3  and  C_4 
REMARK    3  A    between atoms: C_4  and  C_5 
REMARK    4  A    between atoms: C_8  and  C_9 
REMARK       I    between atoms: C_9  and  N_10 
REMARK    5  A    between atoms: N_10  and  C_11 
REMARK    6  A    between atoms: N_20  and  C_21 
REMARK    7  A    between atoms: C_28  and  O_29 
ROOT
HETATM    1  C   UNL     1      40.718 -14.644   1.561  1.00  0.00     0.098 A 
HETATM    2  C   UNL     1      41.748 -15.700   1.322  1.00  0.00     0.206 A 
HETATM    3  O   UNL     1      41.867 -16.220   0.211  1.00  0.00    -0.286 OA
HETATM    4  C   UNL     1      42.621 -16.125   2.459  1.00  0.00     0.098 A 
HETATM    5  C   UNL     1      42.405 -15.528   3.644  1.00  0.00     0.112 A 
HETATM    6  N   UNL     1      41.453 -14.550   3.848  1.00  0.00    -0.360 N 
HETATM    7  C   UNL     1      40.630 -14.159   2.811  1.00  0.00     0.112 A 
ENDROOT
BRANCH   1   8
HETATM    8  C   UNL     1      39.792 -14.122   0.514  1.00  0.00     0.257 C 
HETATM    9  N   UNL     1      40.400 -13.442  -0.508  1.00  0.00    -0.348 N 
HETATM   10  H   UNL     1      41.407 -13.296  -0.457  1.00  0.00     0.163 HD
HETATM   11  O   UNL     1      38.579 -14.293   0.580  1.00  0.00    -0.267 OA
BRANCH   9  12
HETATM   12  C   UNL     1      39.687 -12.829  -1.615  1.00  0.00     0.114 C 
HETATM   13  C   UNL     1      38.510 -11.977  -1.134  1.00  0.00     0.037 C 
BRANCH  12  14
HETATM   14  C   UNL     1      39.211 -13.905  -2.581  1.00  0.00    -0.033 A 
HETATM   15  C   UNL     1      37.922 -13.832  -3.143  1.00  0.00     0.046 A 
HETATM   16  C   UNL     1      37.477 -14.812  -4.034  1.00  0.00     0.068 A 
HETATM   17  C   UNL     1      38.327 -15.865  -4.379  1.00  0.00     0.037 A 
HETATM   18  C   UNL     1      39.605 -15.953  -3.832  1.00  0.00     0.003 A 
HETATM   19  C   UNL     1      40.042 -14.982  -2.934  1.00  0.00     0.009 A 
BRANCH  16  20
HETATM   20  O   UNL     1      36.249 -14.855  -4.637  1.00  0.00    -0.356 OA
HETATM   21  C   UNL     1      35.695 -13.615  -5.058  1.00  0.00     0.210 C 
ENDBRANCH  16  20
ENDBRANCH  12  14
ENDBRANCH   9  12
ENDBRANCH   1   8
BRANCH   4  22
HETATM   22  C   UNL     1      43.695 -17.154   2.350  1.00  0.00     0.257 C 
HETATM   23  N   UNL     1      43.625 -18.158   3.282  1.00  0.00    -0.352 N 
HETATM   24  H   UNL     1      42.810 -18.175   3.895  1.00  0.00     0.163 HD
HETATM   25  O   UNL     1      44.561 -17.093   1.483  1.00  0.00    -0.267 OA
BRANCH  23  26
HETATM   26  C   UNL     1      44.434 -19.374   3.240  1.00  0.00     0.084 C 
HETATM   27  C   UNL     1      44.693 -19.824   4.683  1.00  0.00     0.025 C 
HETATM   28  C   UNL     1      45.404 -21.164   4.854  1.00  0.00     0.002 C 
HETATM   29  C   UNL     1      44.499 -22.349   4.535  1.00  0.00     0.000 C 
HETATM   30  C   UNL     1      44.467 -22.757   3.065  1.00  0.00     0.000 C 
HETATM   31  C   UNL     1      44.561 -21.634   2.038  1.00  0.00     0.002 C 
HETATM   32  C   UNL     1      43.715 -20.406   2.356  1.00  0.00     0.025 C 
ENDBRANCH  23  26
ENDBRANCH   4  22
BRANCH   6  33
HETATM   33  C   UNL     1      41.164 -14.099   5.217  1.00  0.00     0.089 A 
HETATM   34  C   UNL     1      39.823 -13.520   5.590  1.00  0.00     0.028 A 
HETATM   35  C   UNL     1      40.234 -14.856   6.131  1.00  0.00     0.028 A 
ENDBRANCH   6  33
TORSDOF 7
ENDMDL
MODEL 8
REMARK VINA RESULT:      -8.7      2.221      8.106
REMARK  7 active torsions:
REMARK  status: ('A' for Active; 'I' for Inactive)
REMARK    1  A    between atoms: C_2  and  N_3 
REMARK    2  A    between atoms: C_2  and  C_26 
REMARK       I    between atoms: N_3  and  C_4 
REMARK    3  A    between atoms: C_4  and  C_5 
REMARK    4  A    between atoms: C_8  and  C_9 
REMARK       I    between atoms: C_9  and  N_10 
REMARK    5  A    between atoms: N_10  and  C_11 
REMARK    6  A    between atoms: N_20  and  C_21 
REMARK    7  A    between atoms: C_28  and  O_29 
ROOT
HETATM    1  C   UNL     1      40.481 -14.546   5.177  1.00  0.00     0.098 A 
HETATM    2  C   UNL     1      40.172 -14.386   3.723  1.00  0.00     0.206 A 
HETATM    3  O   UNL     1      40.455 -15.277   2.920  1.00  0.00    -0.286 OA
HETATM    4  C   UNL     1      39.529 -13.119   3.258  1.00  0.00     0.098 A 
HETATM    5  C   UNL     1      39.282 -12.187   4.195  1.00  0.00     0.112 A 
HETATM    6  N   UNL     1      39.568 -12.351   5.536  1.00  0.00    -0.360 N 
HETATM    7  C   UNL     1      40.175 -13.510   5.976  1.00  0.00     0.112 A 
ENDROOT
BRANCH   1   8
HETATM    8  C   UNL     1      41.109 -15.760   5.773  1.00  0.00     0.257 C 
HETATM    9  N   UNL     1      42.386 -16.018   5.351  1.00  0.00    -0.348 N 
HETATM   10  H   UNL     1      42.789 -15.412   4.637  1.00  0.00     0.163 HD
HETATM   11  O   UNL     1      40.512 -16.468   6.579  1.00  0.00    -0.267 OA
BRANCH   9  12
HETATM   12  C   UNL     1      43.173 -17.160   5.785  1.00  0.00     0.114 C 
HETATM   13  C   UNL     1      44.402 -16.733   6.591  1.00  0.00     0.037 C 
BRANCH  12  14
HETATM   14  C   UNL     1      43.584 -17.991   4.578  1.00  0.00    -0.033 A 
HETATM   15  C   UNL     1      43.915 -19.350   4.735  1.00  0.00     0.046 A 
HETATM   16  C   UNL     1      44.290 -20.124   3.633  1.00  0.00     0.068 A 
HETATM   17  C   UNL     1      44.323 -19.542   2.364  1.00  0.00     0.037 A 
HETATM   18  C   UNL     1      44.000 -18.199   2.191  1.00  0.00     0.003 A 
HETATM   19  C   UNL     1      43.638 -17.426   3.292  1.00  0.00     0.009 A 
BRANCH  16  20
HETATM   20  O   UNL     1      44.640 -21.447   3.658  1.00  0.00    -0.356 OA
HETATM   21  C   UNL     1      45.037 -21.983   4.914  1.00  0.00     0.210 C 
ENDBRANCH  16  20
ENDBRANCH  12  14
ENDBRANCH   9  12
ENDBRANCH   1   8
BRANCH   4  22
HETATM   22  C   UNL     1      39.156 -12.841   1.841  1.00  0.00     0.257 C 
HETATM   23  N   UNL     1      40.203 -12.871   0.955  1.00  0.00    -0.352 N 
HETATM   24  H   UNL     1      41.111 -13.171   1.310  1.00  0.00     0.163 HD
HETATM   25  O   UNL     1      37.997 -12.612   1.513  1.00  0.00    -0.267 OA
BRANCH  23  26
HETATM   26  C   UNL     1      40.049 -12.839  -0.497  1.00  0.00     0.084 C 
HETATM   27  C   UNL     1      41.231 -12.058  -1.084  1.00  0.00     0.025 C 
HETATM   28  C   UNL     1      41.333 -12.033  -2.607  1.00  0.00     0.002 C 
HETATM   29  C   UNL     1      41.792 -13.368  -3.183  1.00  0.00     0.000 C 
HETATM   30  C   UNL     1      40.674 -14.370  -3.453  1.00  0.00     0.000 C 
HETATM   31  C   UNL     1      39.507 -14.380  -2.472  1.00  0.00     0.002 C 
HETATM   32  C   UNL     1      39.908 -14.283  -1.003  1.00  0.00     0.025 C 
ENDBRANCH  23  26
ENDBRANCH   4  22
BRANCH   6  33
HETATM   33  C   UNL     1      39.439 -11.205   6.446  1.00  0.00     0.089 A 
HETATM   34  C   UNL     1      40.228 -11.123   7.727  1.00  0.00     0.028 A 
HETATM   35  C   UNL     1      40.532 -10.179   6.604  1.00  0.00     0.028 A 
ENDBRANCH   6  33
TORSDOF 7
ENDMDL
MODEL 9
REMARK VINA RESULT:      -8.7      4.433      9.425
REMARK  7 active torsions:
REMARK  status: ('A' for Active; 'I' for Inactive)
REMARK    1  A    between atoms: C_2  and  N_3 
REMARK    2  A    between atoms: C_2  and  C_26 
REMARK       I    between atoms: N_3  and  C_4 
REMARK    3  A    between atoms: C_4  and  C_5 
REMARK    4  A    between atoms: C_8  and  C_9 
REMARK       I    between atoms: C_9  and  N_10 
REMARK    5  A    between atoms: N_10  and  C_11 
REMARK    6  A    between atoms: N_20  and  C_21 
REMARK    7  A    between atoms: C_28  and  O_29 
ROOT
HETATM    1  C   UNL     1      44.140 -14.255   6.760  1.00  0.00     0.098 A 
HETATM    2  C   UNL     1      43.164 -13.857   5.700  1.00  0.00     0.206 A 
HETATM    3  O   UNL     1      42.854 -12.674   5.545  1.00  0.00    -0.286 OA
HETATM    4  C   UNL     1      42.559 -14.921   4.842  1.00  0.00     0.098 A 
HETATM    5  C   UNL     1      42.928 -16.187   5.098  1.00  0.00     0.112 A 
HETATM    6  N   UNL     1      43.835 -16.540   6.077  1.00  0.00    -0.360 N 
HETATM    7  C   UNL     1      44.391 -15.569   6.887  1.00  0.00     0.112 A 
ENDROOT
BRANCH   1   8
HETATM    8  C   UNL     1      44.824 -13.296   7.675  1.00  0.00     0.257 C 
HETATM    9  N   UNL     1      44.008 -12.688   8.591  1.00  0.00    -0.348 N 
HETATM   10  H   UNL     1      43.008 -12.885   8.551  1.00  0.00     0.163 HD
HETATM   11  O   UNL     1      46.029 -13.076   7.598  1.00  0.00    -0.267 OA
BRANCH   9  12
HETATM   12  C   UNL     1      44.461 -11.703   9.559  1.00  0.00     0.114 C 
HETATM   13  C   UNL     1      44.949 -12.358  10.853  1.00  0.00     0.037 C 
BRANCH  12  14
HETATM   14  C   UNL     1      43.343 -10.711   9.847  1.00  0.00    -0.033 A 
HETATM   15  C   UNL     1      42.313 -10.514   8.909  1.00  0.00     0.046 A 
HETATM   16  C   UNL     1      41.279  -9.609   9.164  1.00  0.00     0.068 A 
HETATM   17  C   UNL     1      41.265  -8.905  10.370  1.00  0.00     0.037 A 
HETATM   18  C   UNL     1      42.277  -9.087  11.310  1.00  0.00     0.003 A 
HETATM   19  C   UNL     1      43.313  -9.981  11.047  1.00  0.00     0.009 A 
BRANCH  16  20
HETATM   20  O   UNL     1      40.231  -9.326   8.331  1.00  0.00    -0.356 OA
HETATM   21  C   UNL     1      38.940  -9.740   8.759  1.00  0.00     0.210 C 
ENDBRANCH  16  20
ENDBRANCH  12  14
ENDBRANCH   9  12
ENDBRANCH   1   8
BRANCH   4  22
HETATM   22  C   UNL     1      41.587 -14.657   3.742  1.00  0.00     0.257 C 
HETATM   23  N   UNL     1      42.094 -13.940   2.688  1.00  0.00    -0.352 N 
HETATM   24  H   UNL     1      43.094 -13.738   2.694  1.00  0.00     0.163 HD
HETATM   25  O   UNL     1      40.430 -15.062   3.792  1.00  0.00    -0.267 OA
BRANCH  23  26
HETATM   26  C   UNL     1      41.398 -13.747   1.418  1.00  0.00     0.084 C 
HETATM   27  C   UNL     1      41.799 -12.376   0.860  1.00  0.00     0.025 C 
HETATM   28  C   UNL     1      41.288 -12.042  -0.540  1.00  0.00     0.002 C 
HETATM   29  C   UNL     1      42.020 -12.818  -1.629  1.00  0.00     0.000 C 
HETATM   30  C   UNL     1      41.439 -14.194  -1.940  1.00  0.00     0.000 C 
HETATM   31  C   UNL     1      40.868 -14.980  -0.765  1.00  0.00     0.002 C 
HETATM   32  C   UNL     1      41.715 -14.940   0.502  1.00  0.00     0.025 C 
ENDBRANCH  23  26
ENDBRANCH   4  22
BRANCH   6  33
HETATM   33  C   UNL     1      44.027 -17.959   6.406  1.00  0.00     0.089 A 
HETATM   34  C   UNL     1      43.515 -19.053   5.506  1.00  0.00     0.028 A 
HETATM   35  C   UNL     1      44.990 -18.836   5.648  1.00  0.00     0.028 A 
ENDBRANCH   6  33
TORSDOF 7
ENDMDL
MODEL 10
REMARK VINA RESULT:      -8.6      3.488      7.315
REMARK  7 active torsions:
REMARK  status: ('A' for Active; 'I' for Inactive)
REMARK    1  A    between atoms: C_2  and  N_3 
REMARK    2  A    between atoms: C_2  and  C_26 
REMARK       I    between atoms: N_3  and  C_4 
REMARK    3  A    between atoms: C_4  and  C_5 
REMARK    4  A    between atoms: C_8  and  C_9 
REMARK       I    between atoms: C_9  and  N_10 
REMARK    5  A    between atoms: N_10  and  C_11 
REMARK    6  A    between atoms: N_20  and  C_21 
REMARK    7  A    between atoms: C_28  and  O_29 
ROOT
HETATM    1  C   UNL     1      40.158 -12.895   5.072  1.00  0.00     0.098 A 
HETATM    2  C   UNL     1      40.949 -14.152   5.236  1.00  0.00     0.206 A 
HETATM    3  O   UNL     1      41.592 -14.359   6.267  1.00  0.00    -0.286 OA
HETATM    4  C   UNL     1      40.960 -15.148   4.121  1.00  0.00     0.098 A 
HETATM    5  C   UNL     1      40.257 -14.831   3.020  1.00  0.00     0.112 A 
HETATM    6  N   UNL     1      39.525 -13.668   2.885  1.00  0.00    -0.360 N 
HETATM    7  C   UNL     1      39.518 -12.734   3.901  1.00  0.00     0.112 A 
ENDROOT
BRANCH   1   8
HETATM    8  C   UNL     1      40.052 -11.828   6.108  1.00  0.00     0.257 C 
HETATM    9  N   UNL     1      41.208 -11.573   6.796  1.00  0.00    -0.348 N 
HETATM   10  H   UNL     1      42.024 -12.152   6.598  1.00  0.00     0.163 HD
HETATM   11  O   UNL     1      38.999 -11.233   6.319  1.00  0.00    -0.267 OA
BRANCH   9  12
HETATM   12  C   UNL     1      41.322 -10.593   7.863  1.00  0.00     0.114 C 
HETATM   13  C   UNL     1      41.359  -9.162   7.322  1.00  0.00     0.037 C 
BRANCH  12  14
HETATM   14  C   UNL     1      42.560 -10.883   8.700  1.00  0.00    -0.033 A 
HETATM   15  C   UNL     1      43.524 -11.801   8.242  1.00  0.00     0.046 A 
HETATM   16  C   UNL     1      44.667 -12.072   9.000  1.00  0.00     0.068 A 
HETATM   17  C   UNL     1      44.857 -11.413  10.216  1.00  0.00     0.037 A 
HETATM   18  C   UNL     1      43.912 -10.503  10.685  1.00  0.00     0.003 A 
HETATM   19  C   UNL     1      42.767 -10.244   9.934  1.00  0.00     0.009 A 
BRANCH  16  20
HETATM   20  O   UNL     1      45.667 -12.945   8.667  1.00  0.00    -0.356 OA
HETATM   21  C   UNL     1      45.701 -13.401   7.320  1.00  0.00     0.210 C 
ENDBRANCH  16  20
ENDBRANCH  12  14
ENDBRANCH   9  12
ENDBRANCH   1   8
BRANCH   4  22
HETATM   22  C   UNL     1      41.695 -16.445   4.164  1.00  0.00     0.257 C 
HETATM   23  N   UNL     1      42.915 -16.435   3.537  1.00  0.00    -0.352 N 
HETATM   24  H   UNL     1      43.258 -15.539   3.188  1.00  0.00     0.163 HD
HETATM   25  O   UNL     1      41.231 -17.430   4.727  1.00  0.00    -0.267 OA
BRANCH  23  26
HETATM   26  C   UNL     1      43.895 -17.514   3.632  1.00  0.00     0.084 C 
HETATM   27  C   UNL     1      44.092 -17.849   5.115  1.00  0.00     0.025 C 
HETATM   28  C   UNL     1      44.975 -19.056   5.423  1.00  0.00     0.002 C 
HETATM   29  C   UNL     1      44.286 -20.379   5.107  1.00  0.00     0.000 C 
HETATM   30  C   UNL     1      44.443 -20.857   3.667  1.00  0.00     0.000 C 
HETATM   31  C   UNL     1      44.458 -19.784   2.584  1.00  0.00     0.002 C 
HETATM   32  C   UNL     1      43.416 -18.685   2.759  1.00  0.00     0.025 C 
ENDBRANCH  23  26
ENDBRANCH   4  22
BRANCH   6  33
HETATM   33  C   UNL     1      38.951 -13.325   1.576  1.00  0.00     0.089 A 
HETATM   34  C   UNL     1      39.096 -14.240   0.388  1.00  0.00     0.028 A 
HETATM   35  C   UNL     1      37.750 -14.042   1.015  1.00  0.00     0.028 A 
ENDBRANCH   6  33
TORSDOF 7
ENDMDL
