MODEL 1
REMARK VINA RESULT:      -8.1      0.000      0.000
REMARK  7 active torsions:
REMARK  status: ('A' for Active; 'I' for Inactive)
REMARK    1  A    between atoms: C_7  and  C_8 
REMARK       I    between atoms: C_8  and  N_9 
REMARK    2  A    between atoms: N_9  and  C_10 
REMARK    3  A    between atoms: C_10  and  C_11 
REMARK    4  A    between atoms: C_11  and  O_12 
REMARK    5  A    between atoms: C_11  and  C_13 
REMARK    6  A    between atoms: C_15  and  O_16 
REMARK    7  A    between atoms: O_16  and  C_17 
ROOT
HETATM    1  C   UNL     1      43.296 -18.074   1.507  1.00  0.00     0.253 C 
HETATM    2  N   UNL     1      41.949 -17.896   1.309  1.00  0.00    -0.354 N 
HETATM    3  O   UNL     1      44.148 -17.324   1.042  1.00  0.00    -0.268 OA
HETATM    4  H   UNL     1      41.284 -18.600   1.600  1.00  0.00     0.162 HD
ENDROOT
BRANCH   2   5
HETATM    5  C   UNL     1      41.442 -16.730   0.593  1.00  0.00     0.159 C 
BRANCH   5   6
HETATM    6  C   UNL     1      40.624 -15.781   1.491  1.00  0.00     0.169 C 
BRANCH   6   7
HETATM    7  O   UNL     1      39.480 -16.482   1.998  1.00  0.00    -0.389 OA
HETATM    8  H   UNL     1      38.919 -15.799   2.405  1.00  0.00     0.210 HD
ENDBRANCH   6   7
BRANCH   6   9
HETATM    9  C   UNL     1      41.461 -15.260   2.641  1.00  0.00    -0.025 A 
HETATM   10  C   UNL     1      41.281 -15.725   3.956  1.00  0.00     0.046 A 
HETATM   11  C   UNL     1      42.076 -15.244   4.998  1.00  0.00     0.075 A 
HETATM   12  C   UNL     1      43.085 -14.320   4.720  1.00  0.00     0.037 A 
HETATM   13  C   UNL     1      43.282 -13.855   3.421  1.00  0.00     0.003 A 
HETATM   14  C   UNL     1      42.472 -14.321   2.387  1.00  0.00     0.010 A 
BRANCH  11  15
HETATM   15  O   UNL     1      41.985 -15.617   6.310  1.00  0.00    -0.290 OA
BRANCH  15  16
HETATM   16  C   UNL     1      41.603 -16.961   6.548  1.00  0.00     0.505 C 
HETATM   17  F   UNL     1      42.151 -17.378   7.717  1.00  0.00    -0.184 F 
HETATM   18  F   UNL     1      40.257 -16.971   6.730  1.00  0.00    -0.184 F 
ENDBRANCH  15  16
ENDBRANCH  11  15
ENDBRANCH   6   9
ENDBRANCH   5   6
ENDBRANCH   2   5
BRANCH   1  19
HETATM   19  C   UNL     1      43.676 -19.298   2.273  1.00  0.00     0.048 A 
HETATM   20  C   UNL     1      44.002 -20.529   1.553  1.00  0.00     0.022 A 
HETATM   21  C   UNL     1      44.384 -21.649   2.198  1.00  0.00     0.054 A 
HETATM   22  C   UNL     1      44.487 -21.637   3.614  1.00  0.00     0.157 A 
HETATM   23  N   UNL     1      44.201 -20.450   4.271  1.00  0.00    -0.291 N 
HETATM   24  N   UNL     1      44.821 -22.557   4.491  1.00  0.00    -0.130 NA
HETATM   25  C   UNL     1      44.407 -20.724   5.606  1.00  0.00     0.130 A 
HETATM   26  C   UNL     1      43.801 -19.285   3.617  1.00  0.00     0.117 A 
HETATM   27  C   UNL     1      44.229 -19.745   6.701  1.00  0.00     0.094 C 
HETATM   28  N   UNL     1      44.769 -21.984   5.740  1.00  0.00    -0.135 NA
ENDBRANCH   1  19
TORSDOF 7
ENDMDL
MODEL 2
REMARK VINA RESULT:      -8.0      3.324      6.941
REMARK  7 active torsions:
REMARK  status: ('A' for Active; 'I' for Inactive)
REMARK    1  A    between atoms: C_7  and  C_8 
REMARK       I    between atoms: C_8  and  N_9 
REMARK    2  A    between atoms: N_9  and  C_10 
REMARK    3  A    between atoms: C_10  and  C_11 
REMARK    4  A    between atoms: C_11  and  O_12 
REMARK    5  A    between atoms: C_11  and  C_13 
REMARK    6  A    between atoms: C_15  and  O_16 
REMARK    7  A    between atoms: O_16  and  C_17 
ROOT
HETATM    1  C   UNL     1      41.558 -17.146   4.841  1.00  0.00     0.253 C 
HETATM    2  N   UNL     1      42.367 -16.542   5.772  1.00  0.00    -0.354 N 
HETATM    3  O   UNL     1      40.874 -18.134   5.085  1.00  0.00    -0.268 OA
HETATM    4  H   UNL     1      43.009 -15.809   5.504  1.00  0.00     0.162 HD
ENDROOT
BRANCH   2   5
HETATM    5  C   UNL     1      42.390 -17.000   7.157  1.00  0.00     0.159 C 
BRANCH   5   6
HETATM    6  C   UNL     1      43.735 -17.638   7.558  1.00  0.00     0.169 C 
BRANCH   6   7
HETATM    7  O   UNL     1      43.759 -17.831   8.979  1.00  0.00    -0.389 OA
HETATM    8  H   UNL     1      44.159 -17.022   9.342  1.00  0.00     0.210 HD
ENDBRANCH   6   7
BRANCH   6   9
HETATM    9  C   UNL     1      43.944 -18.962   6.854  1.00  0.00    -0.025 A 
HETATM   10  C   UNL     1      44.514 -19.033   5.570  1.00  0.00     0.046 A 
HETATM   11  C   UNL     1      44.715 -20.267   4.946  1.00  0.00     0.075 A 
HETATM   12  C   UNL     1      44.382 -21.441   5.625  1.00  0.00     0.037 A 
HETATM   13  C   UNL     1      43.824 -21.387   6.902  1.00  0.00     0.003 A 
HETATM   14  C   UNL     1      43.604 -20.154   7.512  1.00  0.00     0.010 A 
BRANCH  11  15
HETATM   15  O   UNL     1      45.250 -20.456   3.702  1.00  0.00    -0.290 OA
BRANCH  15  16
HETATM   16  C   UNL     1      44.346 -20.884   2.697  1.00  0.00     0.505 C 
HETATM   17  F   UNL     1      44.050 -19.834   1.890  1.00  0.00    -0.184 F 
HETATM   18  F   UNL     1      45.002 -21.788   1.925  1.00  0.00    -0.184 F 
ENDBRANCH  15  16
ENDBRANCH  11  15
ENDBRANCH   6   9
ENDBRANCH   5   6
ENDBRANCH   2   5
BRANCH   1  19
HETATM   19  C   UNL     1      41.617 -16.565   3.467  1.00  0.00     0.048 A 
HETATM   20  C   UNL     1      42.796 -16.801   2.632  1.00  0.00     0.022 A 
HETATM   21  C   UNL     1      42.881 -16.327   1.374  1.00  0.00     0.054 A 
HETATM   22  C   UNL     1      41.796 -15.588   0.832  1.00  0.00     0.157 A 
HETATM   23  N   UNL     1      40.679 -15.404   1.632  1.00  0.00    -0.291 N 
HETATM   24  N   UNL     1      41.604 -15.014  -0.334  1.00  0.00    -0.130 NA
HETATM   25  C   UNL     1      39.796 -14.690   0.850  1.00  0.00     0.130 A 
HETATM   26  C   UNL     1      40.579 -15.885   2.938  1.00  0.00     0.117 A 
HETATM   27  C   UNL     1      38.448 -14.261   1.284  1.00  0.00     0.094 C 
HETATM   28  N   UNL     1      40.350 -14.449  -0.321  1.00  0.00    -0.135 NA
ENDBRANCH   1  19
TORSDOF 7
ENDMDL
MODEL 3
REMARK VINA RESULT:      -8.0      2.599      3.972
REMARK  7 active torsions:
REMARK  status: ('A' for Active; 'I' for Inactive)
REMARK    1  A    between atoms: C_7  and  C_8 
REMARK       I    between atoms: C_8  and  N_9 
REMARK    2  A    between atoms: N_9  and  C_10 
REMARK    3  A    between atoms: C_10  and  C_11 
REMARK    4  A    between atoms: C_11  and  O_12 
REMARK    5  A    between atoms: C_11  and  C_13 
REMARK    6  A    between atoms: C_15  and  O_16 
REMARK    7  A    between atoms: O_16  and  C_17 
ROOT
HETATM    1  C   UNL     1      43.032 -17.443   5.047  1.00  0.00     0.253 C 
HETATM    2  N   UNL     1      41.710 -17.281   5.383  1.00  0.00    -0.354 N 
HETATM    3  O   UNL     1      43.916 -16.677   5.412  1.00  0.00    -0.268 OA
HETATM    4  H   UNL     1      40.993 -17.856   4.964  1.00  0.00     0.162 HD
ENDROOT
BRANCH   2   5
HETATM    5  C   UNL     1      41.290 -16.214   6.286  1.00  0.00     0.159 C 
BRANCH   5   6
HETATM    6  C   UNL     1      40.398 -15.160   5.599  1.00  0.00     0.169 C 
BRANCH   6   7
HETATM    7  O   UNL     1      40.218 -14.047   6.485  1.00  0.00    -0.389 OA
HETATM    8  H   UNL     1      39.490 -14.304   7.077  1.00  0.00     0.210 HD
ENDBRANCH   6   7
BRANCH   6   9
HETATM    9  C   UNL     1      41.012 -14.690   4.297  1.00  0.00    -0.025 A 
HETATM   10  C   UNL     1      40.533 -15.136   3.052  1.00  0.00     0.046 A 
HETATM   11  C   UNL     1      41.102 -14.674   1.862  1.00  0.00     0.075 A 
HETATM   12  C   UNL     1      42.129 -13.730   1.915  1.00  0.00     0.037 A 
HETATM   13  C   UNL     1      42.609 -13.271   3.141  1.00  0.00     0.003 A 
HETATM   14  C   UNL     1      42.055 -13.751   4.326  1.00  0.00     0.010 A 
BRANCH  11  15
HETATM   15  O   UNL     1      40.726 -15.043   0.601  1.00  0.00    -0.290 OA
BRANCH  15  16
HETATM   16  C   UNL     1      41.459 -16.109   0.022  1.00  0.00     0.505 C 
HETATM   17  F   UNL     1      40.972 -17.287   0.488  1.00  0.00    -0.184 F 
HETATM   18  F   UNL     1      41.210 -16.091  -1.312  1.00  0.00    -0.184 F 
ENDBRANCH  15  16
ENDBRANCH  11  15
ENDBRANCH   6   9
ENDBRANCH   5   6
ENDBRANCH   2   5
BRANCH   1  19
HETATM   19  C   UNL     1      43.324 -18.586   4.132  1.00  0.00     0.048 A 
HETATM   20  C   UNL     1      43.084 -18.441   2.695  1.00  0.00     0.022 A 
HETATM   21  C   UNL     1      43.366 -19.431   1.826  1.00  0.00     0.054 A 
HETATM   22  C   UNL     1      43.922 -20.645   2.307  1.00  0.00     0.157 A 
HETATM   23  N   UNL     1      44.167 -20.747   3.668  1.00  0.00    -0.291 N 
HETATM   24  N   UNL     1      44.284 -21.759   1.710  1.00  0.00    -0.130 NA
HETATM   25  C   UNL     1      44.720 -21.999   3.838  1.00  0.00     0.130 A 
HETATM   26  C   UNL     1      43.877 -19.732   4.581  1.00  0.00     0.117 A 
HETATM   27  C   UNL     1      45.154 -22.555   5.138  1.00  0.00     0.094 C 
HETATM   28  N   UNL     1      44.782 -22.607   2.671  1.00  0.00    -0.135 NA
ENDBRANCH   1  19
TORSDOF 7
ENDMDL
MODEL 4
REMARK VINA RESULT:      -7.9      6.200      9.080
REMARK  7 active torsions:
REMARK  status: ('A' for Active; 'I' for Inactive)
REMARK    1  A    between atoms: C_7  and  C_8 
REMARK       I    between atoms: C_8  and  N_9 
REMARK    2  A    between atoms: N_9  and  C_10 
REMARK    3  A    between atoms: C_10  and  C_11 
REMARK    4  A    between atoms: C_11  and  O_12 
REMARK    5  A    between atoms: C_11  and  C_13 
REMARK    6  A    between atoms: C_15  and  O_16 
REMARK    7  A    between atoms: O_16  and  C_17 
ROOT
HETATM    1  C   UNL     1      44.957 -13.118   7.972  1.00  0.00     0.253 C 
HETATM    2  N   UNL     1      44.052 -14.103   7.661  1.00  0.00    -0.354 N 
HETATM    3  O   UNL     1      46.092 -13.078   7.513  1.00  0.00    -0.268 OA
HETATM    4  H   UNL     1      43.172 -14.175   8.152  1.00  0.00     0.162 HD
ENDROOT
BRANCH   2   5
HETATM    5  C   UNL     1      44.371 -15.131   6.675  1.00  0.00     0.159 C 
BRANCH   5   6
HETATM    6  C   UNL     1      43.557 -16.426   6.871  1.00  0.00     0.169 C 
BRANCH   6   7
HETATM    7  O   UNL     1      42.165 -16.095   6.971  1.00  0.00    -0.389 OA
HETATM    8  H   UNL     1      41.759 -16.441   6.158  1.00  0.00     0.210 HD
ENDBRANCH   6   7
BRANCH   6   9
HETATM    9  C   UNL     1      43.777 -17.390   5.724  1.00  0.00    -0.025 A 
HETATM   10  C   UNL     1      44.565 -18.546   5.872  1.00  0.00     0.046 A 
HETATM   11  C   UNL     1      44.740 -19.431   4.806  1.00  0.00     0.075 A 
HETATM   12  C   UNL     1      44.092 -19.182   3.595  1.00  0.00     0.037 A 
HETATM   13  C   UNL     1      43.301 -18.045   3.435  1.00  0.00     0.003 A 
HETATM   14  C   UNL     1      43.147 -17.152   4.493  1.00  0.00     0.010 A 
BRANCH  11  15
HETATM   15  O   UNL     1      45.486 -20.576   4.833  1.00  0.00    -0.290 OA
BRANCH  15  16
HETATM   16  C   UNL     1      44.772 -21.777   5.076  1.00  0.00     0.505 C 
HETATM   17  F   UNL     1      45.656 -22.796   5.220  1.00  0.00    -0.184 F 
HETATM   18  F   UNL     1      44.148 -21.638   6.274  1.00  0.00    -0.184 F 
ENDBRANCH  15  16
ENDBRANCH  11  15
ENDBRANCH   6   9
ENDBRANCH   5   6
ENDBRANCH   2   5
BRANCH   1  19
HETATM   19  C   UNL     1      44.493 -12.118   8.981  1.00  0.00     0.048 A 
HETATM   20  C   UNL     1      45.337 -11.815  10.137  1.00  0.00     0.022 A 
HETATM   21  C   UNL     1      44.978 -10.895  11.055  1.00  0.00     0.054 A 
HETATM   22  C   UNL     1      43.757 -10.190  10.895  1.00  0.00     0.157 A 
HETATM   23  N   UNL     1      42.990 -10.475   9.775  1.00  0.00    -0.291 N 
HETATM   24  N   UNL     1      43.161  -9.265  11.614  1.00  0.00    -0.130 NA
HETATM   25  C   UNL     1      41.898  -9.637   9.870  1.00  0.00     0.130 A 
HETATM   26  C   UNL     1      43.346 -11.427   8.820  1.00  0.00     0.117 A 
HETATM   27  C   UNL     1      40.797  -9.580   8.884  1.00  0.00     0.094 C 
HETATM   28  N   UNL     1      41.995  -8.920  10.971  1.00  0.00    -0.135 NA
ENDBRANCH   1  19
TORSDOF 7
ENDMDL
MODEL 5
REMARK VINA RESULT:      -7.7      3.066      4.514
REMARK  7 active torsions:
REMARK  status: ('A' for Active; 'I' for Inactive)
REMARK    1  A    between atoms: C_7  and  C_8 
REMARK       I    between atoms: C_8  and  N_9 
REMARK    2  A    between atoms: N_9  and  C_10 
REMARK    3  A    between atoms: C_10  and  C_11 
REMARK    4  A    between atoms: C_11  and  O_12 
REMARK    5  A    between atoms: C_11  and  C_13 
REMARK    6  A    between atoms: C_15  and  O_16 
REMARK    7  A    between atoms: O_16  and  C_17 
ROOT
HETATM    1  C   UNL     1      43.636 -17.246   4.867  1.00  0.00     0.253 C 
HETATM    2  N   UNL     1      42.969 -16.177   4.320  1.00  0.00    -0.354 N 
HETATM    3  O   UNL     1      44.178 -17.208   5.966  1.00  0.00    -0.268 OA
HETATM    4  H   UNL     1      42.643 -16.202   3.363  1.00  0.00     0.162 HD
ENDROOT
BRANCH   2   5
HETATM    5  C   UNL     1      42.791 -14.938   5.070  1.00  0.00     0.159 C 
BRANCH   5   6
HETATM    6  C   UNL     1      42.787 -13.685   4.172  1.00  0.00     0.169 C 
BRANCH   6   7
HETATM    7  O   UNL     1      44.098 -13.499   3.619  1.00  0.00    -0.389 OA
HETATM    8  H   UNL     1      44.636 -14.222   3.983  1.00  0.00     0.210 HD
ENDBRANCH   6   7
BRANCH   6   9
HETATM    9  C   UNL     1      41.770 -13.814   3.057  1.00  0.00    -0.025 A 
HETATM   10  C   UNL     1      42.161 -14.022   1.722  1.00  0.00     0.046 A 
HETATM   11  C   UNL     1      41.205 -14.157   0.712  1.00  0.00     0.075 A 
HETATM   12  C   UNL     1      39.849 -14.124   1.042  1.00  0.00     0.037 A 
HETATM   13  C   UNL     1      39.446 -13.928   2.363  1.00  0.00     0.003 A 
HETATM   14  C   UNL     1      40.402 -13.771   3.364  1.00  0.00     0.010 A 
BRANCH  11  15
HETATM   15  O   UNL     1      41.467 -14.352  -0.615  1.00  0.00    -0.290 OA
BRANCH  15  16
HETATM   16  C   UNL     1      40.982 -15.563  -1.171  1.00  0.00     0.505 C 
HETATM   17  F   UNL     1      41.363 -15.638  -2.471  1.00  0.00    -0.184 F 
HETATM   18  F   UNL     1      41.610 -16.581  -0.528  1.00  0.00    -0.184 F 
ENDBRANCH  15  16
ENDBRANCH  11  15
ENDBRANCH   6   9
ENDBRANCH   5   6
ENDBRANCH   2   5
BRANCH   1  19
HETATM   19  C   UNL     1      43.727 -18.457   3.998  1.00  0.00     0.048 A 
HETATM   20  C   UNL     1      43.408 -18.350   2.574  1.00  0.00     0.022 A 
HETATM   21  C   UNL     1      43.510 -19.406   1.743  1.00  0.00     0.054 A 
HETATM   22  C   UNL     1      43.948 -20.656   2.254  1.00  0.00     0.157 A 
HETATM   23  N   UNL     1      44.272 -20.724   3.601  1.00  0.00    -0.291 N 
HETATM   24  N   UNL     1      44.134 -21.831   1.697  1.00  0.00    -0.130 NA
HETATM   25  C   UNL     1      44.682 -22.025   3.803  1.00  0.00     0.130 A 
HETATM   26  C   UNL     1      44.168 -19.640   4.474  1.00  0.00     0.117 A 
HETATM   27  C   UNL     1      45.135 -22.570   5.102  1.00  0.00     0.094 C 
HETATM   28  N   UNL     1      44.592 -22.689   2.669  1.00  0.00    -0.135 NA
ENDBRANCH   1  19
TORSDOF 7
ENDMDL
MODEL 6
REMARK VINA RESULT:      -7.7      6.462      9.352
REMARK  7 active torsions:
REMARK  status: ('A' for Active; 'I' for Inactive)
REMARK    1  A    between atoms: C_7  and  C_8 
REMARK       I    between atoms: C_8  and  N_9 
REMARK    2  A    between atoms: N_9  and  C_10 
REMARK    3  A    between atoms: C_10  and  C_11 
REMARK    4  A    between atoms: C_11  and  O_12 
REMARK    5  A    between atoms: C_11  and  C_13 
REMARK    6  A    between atoms: C_15  and  O_16 
REMARK    7  A    between atoms: O_16  and  C_17 
ROOT
HETATM    1  C   UNL     1      44.873 -12.690   8.472  1.00  0.00     0.253 C 
HETATM    2  N   UNL     1      44.038 -13.366   7.617  1.00  0.00    -0.354 N 
HETATM    3  O   UNL     1      46.078 -12.903   8.541  1.00  0.00    -0.268 OA
HETATM    4  H   UNL     1      43.034 -13.254   7.674  1.00  0.00     0.162 HD
ENDROOT
BRANCH   2   5
HETATM    5  C   UNL     1      44.564 -14.334   6.660  1.00  0.00     0.159 C 
BRANCH   5   6
HETATM    6  C   UNL     1      44.291 -15.795   7.069  1.00  0.00     0.169 C 
BRANCH   6   7
HETATM    7  O   UNL     1      43.626 -15.811   8.339  1.00  0.00    -0.389 OA
HETATM    8  H   UNL     1      42.883 -15.190   8.249  1.00  0.00     0.210 HD
ENDBRANCH   6   7
BRANCH   6   9
HETATM    9  C   UNL     1      43.444 -16.504   6.033  1.00  0.00    -0.025 A 
HETATM   10  C   UNL     1      43.952 -17.566   5.265  1.00  0.00     0.046 A 
HETATM   11  C   UNL     1      43.147 -18.219   4.328  1.00  0.00     0.075 A 
HETATM   12  C   UNL     1      41.812 -17.833   4.185  1.00  0.00     0.037 A 
HETATM   13  C   UNL     1      41.291 -16.787   4.945  1.00  0.00     0.003 A 
HETATM   14  C   UNL     1      42.103 -16.124   5.863  1.00  0.00     0.010 A 
BRANCH  11  15
HETATM   15  O   UNL     1      43.534 -19.253   3.524  1.00  0.00    -0.290 OA
BRANCH  15  16
HETATM   16  C   UNL     1      42.992 -19.257   2.214  1.00  0.00     0.505 C 
HETATM   17  F   UNL     1      43.881 -18.686   1.363  1.00  0.00    -0.184 F 
HETATM   18  F   UNL     1      42.874 -20.555   1.831  1.00  0.00    -0.184 F 
ENDBRANCH  15  16
ENDBRANCH  11  15
ENDBRANCH   6   9
ENDBRANCH   5   6
ENDBRANCH   2   5
BRANCH   1  19
HETATM   19  C   UNL     1      44.204 -11.715   9.384  1.00  0.00     0.048 A 
HETATM   20  C   UNL     1      44.783 -11.441  10.700  1.00  0.00     0.022 A 
HETATM   21  C   UNL     1      44.236 -10.544  11.543  1.00  0.00     0.054 A 
HETATM   22  C   UNL     1      43.074  -9.832  11.146  1.00  0.00     0.157 A 
HETATM   23  N   UNL     1      42.561 -10.088   9.883  1.00  0.00    -0.291 N 
HETATM   24  N   UNL     1      42.337  -8.924  11.745  1.00  0.00    -0.130 NA
HETATM   25  C   UNL     1      41.472  -9.250   9.765  1.00  0.00     0.130 A 
HETATM   26  C   UNL     1      43.115 -11.017   9.001  1.00  0.00     0.117 A 
HETATM   27  C   UNL     1      40.604  -9.166   8.570  1.00  0.00     0.094 C 
HETATM   28  N   UNL     1      41.332  -8.561  10.879  1.00  0.00    -0.135 NA
ENDBRANCH   1  19
TORSDOF 7
ENDMDL
MODEL 7
REMARK VINA RESULT:      -7.7      2.370      3.636
REMARK  7 active torsions:
REMARK  status: ('A' for Active; 'I' for Inactive)
REMARK    1  A    between atoms: C_7  and  C_8 
REMARK       I    between atoms: C_8  and  N_9 
REMARK    2  A    between atoms: N_9  and  C_10 
REMARK    3  A    between atoms: C_10  and  C_11 
REMARK    4  A    between atoms: C_11  and  O_12 
REMARK    5  A    between atoms: C_11  and  C_13 
REMARK    6  A    between atoms: C_15  and  O_16 
REMARK    7  A    between atoms: O_16  and  C_17 
ROOT
HETATM    1  C   UNL     1      43.249 -17.106   3.152  1.00  0.00     0.253 C 
HETATM    2  N   UNL     1      41.940 -16.878   3.499  1.00  0.00    -0.354 N 
HETATM    3  O   UNL     1      43.932 -16.295   2.538  1.00  0.00    -0.268 OA
HETATM    4  H   UNL     1      41.371 -17.615   3.893  1.00  0.00     0.162 HD
ENDROOT
BRANCH   2   5
HETATM    5  C   UNL     1      41.304 -15.593   3.228  1.00  0.00     0.159 C 
BRANCH   5   6
HETATM    6  C   UNL     1      41.113 -14.736   4.496  1.00  0.00     0.169 C 
BRANCH   6   7
HETATM    7  O   UNL     1      39.768 -14.889   4.969  1.00  0.00    -0.389 OA
HETATM    8  H   UNL     1      39.379 -13.999   4.931  1.00  0.00     0.210 HD
ENDBRANCH   6   7
BRANCH   6   9
HETATM    9  C   UNL     1      42.090 -15.139   5.580  1.00  0.00    -0.025 A 
HETATM   10  C   UNL     1      43.252 -14.390   5.843  1.00  0.00     0.046 A 
HETATM   11  C   UNL     1      44.130 -14.769   6.860  1.00  0.00     0.075 A 
HETATM   12  C   UNL     1      43.828 -15.881   7.648  1.00  0.00     0.037 A 
HETATM   13  C   UNL     1      42.676 -16.629   7.407  1.00  0.00     0.003 A 
HETATM   14  C   UNL     1      41.813 -16.261   6.376  1.00  0.00     0.010 A 
BRANCH  11  15
HETATM   15  O   UNL     1      45.288 -14.126   7.197  1.00  0.00    -0.290 OA
BRANCH  15  16
HETATM   16  C   UNL     1      45.138 -12.928   7.940  1.00  0.00     0.505 C 
HETATM   17  F   UNL     1      44.392 -13.181   9.045  1.00  0.00    -0.184 F 
HETATM   18  F   UNL     1      46.371 -12.572   8.384  1.00  0.00    -0.184 F 
ENDBRANCH  15  16
ENDBRANCH  11  15
ENDBRANCH   6   9
ENDBRANCH   5   6
ENDBRANCH   2   5
BRANCH   1  19
HETATM   19  C   UNL     1      43.780 -18.457   3.506  1.00  0.00     0.048 A 
HETATM   20  C   UNL     1      44.281 -18.703   4.859  1.00  0.00     0.022 A 
HETATM   21  C   UNL     1      44.738 -19.913   5.237  1.00  0.00     0.054 A 
HETATM   22  C   UNL     1      44.723 -20.986   4.306  1.00  0.00     0.157 A 
HETATM   23  N   UNL     1      44.216 -20.734   3.040  1.00  0.00    -0.291 N 
HETATM   24  N   UNL     1      45.100 -22.242   4.388  1.00  0.00    -0.130 NA
HETATM   25  C   UNL     1      44.301 -21.939   2.377  1.00  0.00     0.130 A 
HETATM   26  C   UNL     1      43.744 -19.485   2.634  1.00  0.00     0.117 A 
HETATM   27  C   UNL     1      43.867 -22.161   0.980  1.00  0.00     0.094 C 
HETATM   28  N   UNL     1      44.836 -22.839   3.177  1.00  0.00    -0.135 NA
ENDBRANCH   1  19
TORSDOF 7
ENDMDL
MODEL 8
REMARK VINA RESULT:      -7.6      1.607      2.334
REMARK  7 active torsions:
REMARK  status: ('A' for Active; 'I' for Inactive)
REMARK    1  A    between atoms: C_7  and  C_8 
REMARK       I    between atoms: C_8  and  N_9 
REMARK    2  A    between atoms: N_9  and  C_10 
REMARK    3  A    between atoms: C_10  and  C_11 
REMARK    4  A    between atoms: C_11  and  O_12 
REMARK    5  A    between atoms: C_11  and  C_13 
REMARK    6  A    between atoms: C_15  and  O_16 
REMARK    7  A    between atoms: O_16  and  C_17 
ROOT
HETATM    1  C   UNL     1      41.805 -17.244   1.441  1.00  0.00     0.253 C 
HETATM    2  N   UNL     1      42.182 -15.942   1.222  1.00  0.00    -0.354 N 
HETATM    3  O   UNL     1      40.783 -17.735   0.977  1.00  0.00    -0.268 OA
HETATM    4  H   UNL     1      42.962 -15.536   1.721  1.00  0.00     0.162 HD
ENDROOT
BRANCH   2   5
HETATM    5  C   UNL     1      41.414 -15.077   0.332  1.00  0.00     0.159 C 
BRANCH   5   6
HETATM    6  C   UNL     1      40.288 -14.314   1.058  1.00  0.00     0.169 C 
BRANCH   6   7
HETATM    7  O   UNL     1      39.108 -15.129   1.083  1.00  0.00    -0.389 OA
HETATM    8  H   UNL     1      38.837 -15.161   2.016  1.00  0.00     0.210 HD
ENDBRANCH   6   7
BRANCH   6   9
HETATM    9  C   UNL     1      40.695 -13.953   2.471  1.00  0.00    -0.025 A 
HETATM   10  C   UNL     1      40.289 -14.722   3.577  1.00  0.00     0.046 A 
HETATM   11  C   UNL     1      40.691 -14.381   4.870  1.00  0.00     0.075 A 
HETATM   12  C   UNL     1      41.537 -13.287   5.059  1.00  0.00     0.037 A 
HETATM   13  C   UNL     1      41.956 -12.519   3.972  1.00  0.00     0.003 A 
HETATM   14  C   UNL     1      41.534 -12.849   2.686  1.00  0.00     0.010 A 
BRANCH  11  15
HETATM   15  O   UNL     1      40.352 -15.048   6.014  1.00  0.00    -0.290 OA
BRANCH  15  16
HETATM   16  C   UNL     1      40.884 -16.355   6.151  1.00  0.00     0.505 C 
HETATM   17  F   UNL     1      41.930 -16.319   7.015  1.00  0.00    -0.184 F 
HETATM   18  F   UNL     1      39.928 -17.119   6.738  1.00  0.00    -0.184 F 
ENDBRANCH  15  16
ENDBRANCH  11  15
ENDBRANCH   6   9
ENDBRANCH   5   6
ENDBRANCH   2   5
BRANCH   1  19
HETATM   19  C   UNL     1      42.692 -18.022   2.358  1.00  0.00     0.048 A 
HETATM   20  C   UNL     1      43.047 -17.466   3.664  1.00  0.00     0.022 A 
HETATM   21  C   UNL     1      43.814 -18.145   4.539  1.00  0.00     0.054 A 
HETATM   22  C   UNL     1      44.285 -19.440   4.196  1.00  0.00     0.157 A 
HETATM   23  N   UNL     1      43.911 -19.956   2.965  1.00  0.00    -0.291 N 
HETATM   24  N   UNL     1      45.036 -20.312   4.830  1.00  0.00    -0.130 NA
HETATM   25  C   UNL     1      44.480 -21.211   2.917  1.00  0.00     0.130 A 
HETATM   26  C   UNL     1      43.120 -19.263   2.047  1.00  0.00     0.117 A 
HETATM   27  C   UNL     1      44.348 -22.151   1.783  1.00  0.00     0.094 C 
HETATM   28  N   UNL     1      45.159 -21.422   4.027  1.00  0.00    -0.135 NA
ENDBRANCH   1  19
TORSDOF 7
ENDMDL
MODEL 9
REMARK VINA RESULT:      -7.6      3.637      7.662
REMARK  7 active torsions:
REMARK  status: ('A' for Active; 'I' for Inactive)
REMARK    1  A    between atoms: C_7  and  C_8 
REMARK       I    between atoms: C_8  and  N_9 
REMARK    2  A    between atoms: N_9  and  C_10 
REMARK    3  A    between atoms: C_10  and  C_11 
REMARK    4  A    between atoms: C_11  and  O_12 
REMARK    5  A    between atoms: C_11  and  C_13 
REMARK    6  A    between atoms: C_15  and  O_16 
REMARK    7  A    between atoms: O_16  and  C_17 
ROOT
HETATM    1  C   UNL     1      40.665 -16.414   2.289  1.00  0.00     0.253 C 
HETATM    2  N   UNL     1      40.696 -15.988   3.595  1.00  0.00    -0.354 N 
HETATM    3  O   UNL     1      41.203 -17.447   1.907  1.00  0.00    -0.268 OA
HETATM    4  H   UNL     1      40.351 -15.073   3.851  1.00  0.00     0.162 HD
ENDROOT
BRANCH   2   5
HETATM    5  C   UNL     1      41.310 -16.805   4.637  1.00  0.00     0.159 C 
BRANCH   5   6
HETATM    6  C   UNL     1      42.851 -16.750   4.615  1.00  0.00     0.169 C 
BRANCH   6   7
HETATM    7  O   UNL     1      43.310 -15.974   5.730  1.00  0.00    -0.389 OA
HETATM    8  H   UNL     1      43.528 -16.621   6.422  1.00  0.00     0.210 HD
ENDBRANCH   6   7
BRANCH   6   9
HETATM    9  C   UNL     1      43.449 -18.140   4.672  1.00  0.00    -0.025 A 
HETATM   10  C   UNL     1      43.871 -18.811   3.510  1.00  0.00     0.046 A 
HETATM   11  C   UNL     1      44.438 -20.085   3.588  1.00  0.00     0.075 A 
HETATM   12  C   UNL     1      44.620 -20.679   4.838  1.00  0.00     0.037 A 
HETATM   13  C   UNL     1      44.215 -20.024   6.000  1.00  0.00     0.003 A 
HETATM   14  C   UNL     1      43.629 -18.762   5.917  1.00  0.00     0.010 A 
BRANCH  11  15
HETATM   15  O   UNL     1      44.874 -20.831   2.529  1.00  0.00    -0.290 OA
BRANCH  15  16
HETATM   16  C   UNL     1      43.955 -21.783   2.020  1.00  0.00     0.505 C 
HETATM   17  F   UNL     1      42.765 -21.173   1.794  1.00  0.00    -0.184 F 
HETATM   18  F   UNL     1      44.418 -22.182   0.807  1.00  0.00    -0.184 F 
ENDBRANCH  15  16
ENDBRANCH  11  15
ENDBRANCH   6   9
ENDBRANCH   5   6
ENDBRANCH   2   5
BRANCH   1  19
HETATM   19  C   UNL     1      39.988 -15.491   1.330  1.00  0.00     0.048 A 
HETATM   20  C   UNL     1      38.696 -14.901   1.685  1.00  0.00     0.022 A 
HETATM   21  C   UNL     1      38.063 -14.036   0.869  1.00  0.00     0.054 A 
HETATM   22  C   UNL     1      38.665 -13.673  -0.365  1.00  0.00     0.157 A 
HETATM   23  N   UNL     1      39.902 -14.224  -0.665  1.00  0.00    -0.291 N 
HETATM   24  N   UNL     1      38.289 -12.877  -1.340  1.00  0.00    -0.130 NA
HETATM   25  C   UNL     1      40.246 -13.683  -1.886  1.00  0.00     0.130 A 
HETATM   26  C   UNL     1      40.567 -15.124   0.169  1.00  0.00     0.117 A 
HETATM   27  C   UNL     1      41.501 -13.977  -2.611  1.00  0.00     0.094 C 
HETATM   28  N   UNL     1      39.280 -12.885  -2.294  1.00  0.00    -0.135 NA
ENDBRANCH   1  19
TORSDOF 7
ENDMDL
MODEL 10
REMARK VINA RESULT:      -7.6      3.166      4.529
REMARK  7 active torsions:
REMARK  status: ('A' for Active; 'I' for Inactive)
REMARK    1  A    between atoms: C_7  and  C_8 
REMARK       I    between atoms: C_8  and  N_9 
REMARK    2  A    between atoms: N_9  and  C_10 
REMARK    3  A    between atoms: C_10  and  C_11 
REMARK    4  A    between atoms: C_11  and  O_12 
REMARK    5  A    between atoms: C_11  and  C_13 
REMARK    6  A    between atoms: C_15  and  O_16 
REMARK    7  A    between atoms: O_16  and  C_17 
ROOT
HETATM    1  C   UNL     1      43.126 -17.319   4.908  1.00  0.00     0.253 C 
HETATM    2  N   UNL     1      42.379 -16.312   4.348  1.00  0.00    -0.354 N 
HETATM    3  O   UNL     1      43.616 -17.247   6.029  1.00  0.00    -0.268 OA
HETATM    4  H   UNL     1      42.096 -16.352   3.378  1.00  0.00     0.162 HD
ENDROOT
BRANCH   2   5
HETATM    5  C   UNL     1      42.046 -15.111   5.108  1.00  0.00     0.159 C 
BRANCH   5   6
HETATM    6  C   UNL     1      40.529 -14.931   5.315  1.00  0.00     0.169 C 
BRANCH   6   7
HETATM    7  O   UNL     1      40.291 -14.429   6.637  1.00  0.00    -0.389 OA
HETATM    8  H   UNL     1      40.055 -15.208   7.170  1.00  0.00     0.210 HD
ENDBRANCH   6   7
BRANCH   6   9
HETATM    9  C   UNL     1      39.946 -13.981   4.290  1.00  0.00    -0.025 A 
HETATM   10  C   UNL     1      39.793 -14.352   2.942  1.00  0.00     0.046 A 
HETATM   11  C   UNL     1      39.236 -13.466   2.017  1.00  0.00     0.075 A 
HETATM   12  C   UNL     1      38.791 -12.214   2.448  1.00  0.00     0.037 A 
HETATM   13  C   UNL     1      38.928 -11.835   3.782  1.00  0.00     0.003 A 
HETATM   14  C   UNL     1      39.505 -12.712   4.698  1.00  0.00     0.010 A 
BRANCH  11  15
HETATM   15  O   UNL     1      39.047 -13.714   0.686  1.00  0.00    -0.290 OA
BRANCH  15  16
HETATM   16  C   UNL     1      37.700 -13.742   0.245  1.00  0.00     0.505 C 
HETATM   17  F   UNL     1      37.657 -14.231  -1.020  1.00  0.00    -0.184 F 
HETATM   18  F   UNL     1      37.040 -14.637   1.025  1.00  0.00    -0.184 F 
ENDBRANCH  15  16
ENDBRANCH  11  15
ENDBRANCH   6   9
ENDBRANCH   5   6
ENDBRANCH   2   5
BRANCH   1  19
HETATM   19  C   UNL     1      43.374 -18.499   4.027  1.00  0.00     0.048 A 
HETATM   20  C   UNL     1      43.104 -18.399   2.592  1.00  0.00     0.022 A 
HETATM   21  C   UNL     1      43.345 -19.424   1.752  1.00  0.00     0.054 A 
HETATM   22  C   UNL     1      43.887 -20.632   2.263  1.00  0.00     0.157 A 
HETATM   23  N   UNL     1      44.162 -20.692   3.621  1.00  0.00    -0.291 N 
HETATM   24  N   UNL     1      44.213 -21.773   1.697  1.00  0.00    -0.130 NA
HETATM   25  C   UNL     1      44.693 -21.948   3.821  1.00  0.00     0.130 A 
HETATM   26  C   UNL     1      43.914 -19.640   4.504  1.00  0.00     0.117 A 
HETATM   27  C   UNL     1      45.147 -22.468   5.130  1.00  0.00     0.094 C 
HETATM   28  N   UNL     1      44.717 -22.597   2.675  1.00  0.00    -0.135 NA
ENDBRANCH   1  19
TORSDOF 7
ENDMDL
