MODEL 1
REMARK VINA RESULT:      -8.7      0.000      0.000
REMARK  8 active torsions:
REMARK  status: ('A' for Active; 'I' for Inactive)
REMARK    1  A    between atoms: C_5  and  S_6 
REMARK    2  A    between atoms: S_6  and  C_7 
REMARK    3  A    between atoms: C_7  and  C_8 
REMARK       I    between atoms: C_8  and  N_9 
REMARK    4  A    between atoms: N_9  and  N_10 
REMARK       I    between atoms: N_10  and  C_11 
REMARK    5  A    between atoms: C_11  and  C_12 
REMARK    6  A    between atoms: C_15  and  O_16 
REMARK    7  A    between atoms: C_23  and  C_24 
REMARK    8  A    between atoms: C_24  and  C_25 
ROOT
HETATM    1  C   UNL     1      40.302 -12.123   5.480  1.00  0.00     0.187 C 
ENDROOT
BRANCH   1   2
HETATM    2  S   UNL     1      42.016 -12.561   5.090  1.00  0.00    -0.083 SA
BRANCH   2   3
HETATM    3  C   UNL     1      42.052 -14.229   5.527  1.00  0.00     0.167 A 
HETATM    4  N   UNL     1      42.804 -14.682   6.570  1.00  0.00    -0.337 N 
HETATM    5  C   UNL     1      42.666 -16.047   6.623  1.00  0.00     0.032 A 
HETATM    6  H   UNL     1      43.328 -14.097   7.209  1.00  0.00     0.168 HD
HETATM    7  C   UNL     1      43.340 -16.880   7.641  1.00  0.00     0.070 C 
HETATM    8  C   UNL     1      41.825 -16.358   5.565  1.00  0.00     0.063 A 
HETATM    9  N   UNL     1      41.431 -15.203   4.911  1.00  0.00    -0.227 NA
BRANCH   8  10
HETATM   10  C   UNL     1      41.319 -17.688   5.122  1.00  0.00     0.100 C 
BRANCH  10  11
HETATM   11  C   UNL     1      42.319 -18.213   4.121  1.00  0.00    -0.052 A 
HETATM   12  C   UNL     1      43.410 -18.993   4.533  1.00  0.00     0.007 A 
HETATM   13  C   UNL     1      44.330 -19.475   3.600  1.00  0.00     0.001 A 
HETATM   14  C   UNL     1      44.170 -19.183   2.245  1.00  0.00     0.000 A 
HETATM   15  C   UNL     1      43.093 -18.408   1.823  1.00  0.00     0.001 A 
HETATM   16  C   UNL     1      42.174 -17.924   2.754  1.00  0.00     0.007 A 
ENDBRANCH  10  11
ENDBRANCH   8  10
ENDBRANCH   2   3
ENDBRANCH   1   2
BRANCH   1  17
HETATM   17  C   UNL     1      40.224 -11.525   6.871  1.00  0.00     0.245 C 
HETATM   18  N   UNL     1      41.436 -11.405   7.523  1.00  0.00    -0.267 N 
HETATM   19  H   UNL     1      42.222 -12.012   7.279  1.00  0.00     0.190 HD
HETATM   20  O   UNL     1      39.163 -11.178   7.399  1.00  0.00    -0.271 OA
BRANCH  18  21
HETATM   21  N   UNL     1      41.385 -11.028   8.879  1.00  0.00    -0.263 N 
HETATM   22  C   UNL     1      42.583 -10.712   9.494  1.00  0.00     0.270 C 
HETATM   23  O   UNL     1      43.631 -10.595   8.867  1.00  0.00    -0.266 OA
HETATM   24  H   UNL     1      40.615 -11.434   9.409  1.00  0.00     0.190 HD
BRANCH  22  25
HETATM   25  C   UNL     1      42.544 -10.565  10.975  1.00  0.00     0.033 A 
HETATM   26  C   UNL     1      41.466 -11.115  11.674  1.00  0.00     0.020 A 
HETATM   27  C   UNL     1      41.393 -10.989  13.063  1.00  0.00     0.038 A 
HETATM   28  C   UNL     1      42.394 -10.321  13.773  1.00  0.00     0.068 A 
HETATM   29  C   UNL     1      43.479  -9.784  13.079  1.00  0.00     0.038 A 
HETATM   30  C   UNL     1      43.558  -9.908  11.686  1.00  0.00     0.020 A 
BRANCH  28  31
HETATM   31  O   UNL     1      42.200 -10.267  15.124  1.00  0.00    -0.356 OA
HETATM   32  C   UNL     1      42.197  -8.978  15.727  1.00  0.00     0.210 C 
ENDBRANCH  28  31
ENDBRANCH  22  25
ENDBRANCH  18  21
ENDBRANCH   1  17
TORSDOF 8
ENDMDL
MODEL 2
REMARK VINA RESULT:      -8.6      2.464      3.386
REMARK  8 active torsions:
REMARK  status: ('A' for Active; 'I' for Inactive)
REMARK    1  A    between atoms: C_5  and  S_6 
REMARK    2  A    between atoms: S_6  and  C_7 
REMARK    3  A    between atoms: C_7  and  C_8 
REMARK       I    between atoms: C_8  and  N_9 
REMARK    4  A    between atoms: N_9  and  N_10 
REMARK       I    between atoms: N_10  and  C_11 
REMARK    5  A    between atoms: C_11  and  C_12 
REMARK    6  A    between atoms: C_15  and  O_16 
REMARK    7  A    between atoms: C_23  and  C_24 
REMARK    8  A    between atoms: C_24  and  C_25 
ROOT
HETATM    1  C   UNL     1      44.331 -15.217   6.744  1.00  0.00     0.187 C 
ENDROOT
BRANCH   1   2
HETATM    2  S   UNL     1      42.838 -16.241   6.750  1.00  0.00    -0.083 SA
BRANCH   2   3
HETATM    3  C   UNL     1      42.755 -16.740   5.101  1.00  0.00     0.167 A 
HETATM    4  N   UNL     1      41.602 -16.650   4.380  1.00  0.00    -0.337 N 
HETATM    5  C   UNL     1      41.845 -17.174   3.134  1.00  0.00     0.032 A 
HETATM    6  H   UNL     1      40.742 -16.227   4.706  1.00  0.00     0.168 HD
HETATM    7  C   UNL     1      40.814 -17.236   2.078  1.00  0.00     0.070 C 
HETATM    8  C   UNL     1      43.170 -17.582   3.176  1.00  0.00     0.063 A 
HETATM    9  N   UNL     1      43.727 -17.275   4.405  1.00  0.00    -0.227 NA
BRANCH   8  10
HETATM   10  C   UNL     1      43.992 -18.228   2.113  1.00  0.00     0.100 C 
BRANCH  10  11
HETATM   11  C   UNL     1      44.149 -19.674   2.516  1.00  0.00    -0.052 A 
HETATM   12  C   UNL     1      44.710 -20.021   3.754  1.00  0.00     0.007 A 
HETATM   13  C   UNL     1      44.851 -21.362   4.118  1.00  0.00     0.001 A 
HETATM   14  C   UNL     1      44.431 -22.370   3.251  1.00  0.00     0.000 A 
HETATM   15  C   UNL     1      43.874 -22.040   2.018  1.00  0.00     0.001 A 
HETATM   16  C   UNL     1      43.734 -20.701   1.651  1.00  0.00     0.007 A 
ENDBRANCH  10  11
ENDBRANCH   8  10
ENDBRANCH   2   3
ENDBRANCH   1   2
BRANCH   1  17
HETATM   17  C   UNL     1      43.994 -13.805   7.177  1.00  0.00     0.245 C 
HETATM   18  N   UNL     1      44.511 -13.433   8.403  1.00  0.00    -0.267 N 
HETATM   19  H   UNL     1      44.735 -14.136   9.111  1.00  0.00     0.190 HD
HETATM   20  O   UNL     1      43.301 -13.038   6.502  1.00  0.00    -0.271 OA
BRANCH  18  21
HETATM   21  N   UNL     1      44.068 -12.200   8.922  1.00  0.00    -0.263 N 
HETATM   22  C   UNL     1      44.109 -12.040  10.296  1.00  0.00     0.270 C 
HETATM   23  O   UNL     1      44.656 -12.853  11.035  1.00  0.00    -0.266 OA
HETATM   24  H   UNL     1      43.364 -11.724   8.360  1.00  0.00     0.190 HD
BRANCH  22  25
HETATM   25  C   UNL     1      43.410 -10.844  10.840  1.00  0.00     0.033 A 
HETATM   26  C   UNL     1      43.816 -10.339  12.080  1.00  0.00     0.020 A 
HETATM   27  C   UNL     1      43.176  -9.223  12.625  1.00  0.00     0.038 A 
HETATM   28  C   UNL     1      42.132  -8.593  11.942  1.00  0.00     0.068 A 
HETATM   29  C   UNL     1      41.736  -9.086  10.698  1.00  0.00     0.038 A 
HETATM   30  C   UNL     1      42.374 -10.205  10.146  1.00  0.00     0.020 A 
BRANCH  28  31
HETATM   31  O   UNL     1      41.593  -7.516  12.587  1.00  0.00    -0.356 OA
HETATM   32  C   UNL     1      41.639  -7.524  14.009  1.00  0.00     0.210 C 
ENDBRANCH  28  31
ENDBRANCH  22  25
ENDBRANCH  18  21
ENDBRANCH   1  17
TORSDOF 8
ENDMDL
MODEL 3
REMARK VINA RESULT:      -8.6      1.497      2.360
REMARK  8 active torsions:
REMARK  status: ('A' for Active; 'I' for Inactive)
REMARK    1  A    between atoms: C_5  and  S_6 
REMARK    2  A    between atoms: S_6  and  C_7 
REMARK    3  A    between atoms: C_7  and  C_8 
REMARK       I    between atoms: C_8  and  N_9 
REMARK    4  A    between atoms: N_9  and  N_10 
REMARK       I    between atoms: N_10  and  C_11 
REMARK    5  A    between atoms: C_11  and  C_12 
REMARK    6  A    between atoms: C_15  and  O_16 
REMARK    7  A    between atoms: C_23  and  C_24 
REMARK    8  A    between atoms: C_24  and  C_25 
ROOT
HETATM    1  C   UNL     1      40.918 -12.474   5.600  1.00  0.00     0.187 C 
ENDROOT
BRANCH   1   2
HETATM    2  S   UNL     1      39.817 -13.898   5.398  1.00  0.00    -0.083 SA
BRANCH   2   3
HETATM    3  C   UNL     1      40.661 -14.819   4.208  1.00  0.00     0.167 A 
HETATM    4  N   UNL     1      40.008 -15.647   3.344  1.00  0.00    -0.337 N 
HETATM    5  C   UNL     1      40.953 -16.274   2.570  1.00  0.00     0.032 A 
HETATM    6  H   UNL     1      39.002 -15.736   3.269  1.00  0.00     0.168 HD
HETATM    7  C   UNL     1      40.604 -17.245   1.512  1.00  0.00     0.070 C 
HETATM    8  C   UNL     1      42.167 -15.789   3.035  1.00  0.00     0.063 A 
HETATM    9  N   UNL     1      41.958 -14.860   4.039  1.00  0.00    -0.227 NA
BRANCH   8  10
HETATM   10  C   UNL     1      43.548 -16.112   2.577  1.00  0.00     0.100 C 
BRANCH  10  11
HETATM   11  C   UNL     1      43.819 -17.532   3.012  1.00  0.00    -0.052 A 
HETATM   12  C   UNL     1      43.882 -17.871   4.372  1.00  0.00     0.007 A 
HETATM   13  C   UNL     1      44.133 -19.187   4.765  1.00  0.00     0.001 A 
HETATM   14  C   UNL     1      44.321 -20.180   3.804  1.00  0.00     0.000 A 
HETATM   15  C   UNL     1      44.264 -19.857   2.451  1.00  0.00     0.001 A 
HETATM   16  C   UNL     1      44.015 -18.542   2.056  1.00  0.00     0.007 A 
ENDBRANCH  10  11
ENDBRANCH   8  10
ENDBRANCH   2   3
ENDBRANCH   1   2
BRANCH   1  17
HETATM   17  C   UNL     1      40.693 -11.833   6.954  1.00  0.00     0.245 C 
HETATM   18  N   UNL     1      41.845 -11.492   7.636  1.00  0.00    -0.267 N 
HETATM   19  H   UNL     1      42.726 -11.977   7.448  1.00  0.00     0.190 HD
HETATM   20  O   UNL     1      39.571 -11.634   7.431  1.00  0.00    -0.271 OA
BRANCH  18  21
HETATM   21  N   UNL     1      41.683 -11.065   8.969  1.00  0.00    -0.263 N 
HETATM   22  C   UNL     1      42.831 -10.790   9.689  1.00  0.00     0.270 C 
HETATM   23  O   UNL     1      43.941 -10.750   9.165  1.00  0.00    -0.266 OA
HETATM   24  H   UNL     1      40.844 -11.411   9.432  1.00  0.00     0.190 HD
BRANCH  22  25
HETATM   25  C   UNL     1      42.657 -10.588  11.154  1.00  0.00     0.033 A 
HETATM   26  C   UNL     1      43.620  -9.848  11.846  1.00  0.00     0.020 A 
HETATM   27  C   UNL     1      43.493  -9.646  13.223  1.00  0.00     0.038 A 
HETATM   28  C   UNL     1      42.404 -10.171  13.924  1.00  0.00     0.068 A 
HETATM   29  C   UNL     1      41.434 -10.897  13.232  1.00  0.00     0.038 A 
HETATM   30  C   UNL     1      41.556 -11.102  11.851  1.00  0.00     0.020 A 
BRANCH  28  31
HETATM   31  O   UNL     1      42.402  -9.902  15.263  1.00  0.00    -0.356 OA
HETATM   32  C   UNL     1      41.242  -9.274  15.795  1.00  0.00     0.210 C 
ENDBRANCH  28  31
ENDBRANCH  22  25
ENDBRANCH  18  21
ENDBRANCH   1  17
TORSDOF 8
ENDMDL
MODEL 4
REMARK VINA RESULT:      -8.5      5.845      9.295
REMARK  8 active torsions:
REMARK  status: ('A' for Active; 'I' for Inactive)
REMARK    1  A    between atoms: C_5  and  S_6 
REMARK    2  A    between atoms: S_6  and  C_7 
REMARK    3  A    between atoms: C_7  and  C_8 
REMARK       I    between atoms: C_8  and  N_9 
REMARK    4  A    between atoms: N_9  and  N_10 
REMARK       I    between atoms: N_10  and  C_11 
REMARK    5  A    between atoms: C_11  and  C_12 
REMARK    6  A    between atoms: C_15  and  O_16 
REMARK    7  A    between atoms: C_23  and  C_24 
REMARK    8  A    between atoms: C_24  and  C_25 
ROOT
HETATM    1  C   UNL     1      40.580 -14.293  -0.128  1.00  0.00     0.187 C 
ENDROOT
BRANCH   1   2
HETATM    2  S   UNL     1      41.827 -13.004   0.125  1.00  0.00    -0.083 SA
BRANCH   2   3
HETATM    3  C   UNL     1      42.043 -13.065   1.835  1.00  0.00     0.167 A 
HETATM    4  N   UNL     1      41.198 -12.424   2.690  1.00  0.00    -0.337 N 
HETATM    5  C   UNL     1      41.667 -12.615   3.966  1.00  0.00     0.032 A 
HETATM    6  H   UNL     1      40.352 -11.937   2.418  1.00  0.00     0.168 HD
HETATM    7  C   UNL     1      40.991 -12.061   5.158  1.00  0.00     0.070 C 
HETATM    8  C   UNL     1      42.819 -13.371   3.807  1.00  0.00     0.063 A 
HETATM    9  N   UNL     1      43.019 -13.665   2.470  1.00  0.00    -0.227 NA
BRANCH   8  10
HETATM   10  C   UNL     1      43.760 -13.884   4.844  1.00  0.00     0.100 C 
BRANCH  10  11
HETATM   11  C   UNL     1      43.217 -15.221   5.286  1.00  0.00    -0.052 A 
HETATM   12  C   UNL     1      43.851 -15.959   6.297  1.00  0.00     0.007 A 
HETATM   13  C   UNL     1      43.341 -17.195   6.700  1.00  0.00     0.001 A 
HETATM   14  C   UNL     1      42.191 -17.707   6.099  1.00  0.00     0.000 A 
HETATM   15  C   UNL     1      41.553 -16.986   5.092  1.00  0.00     0.001 A 
HETATM   16  C   UNL     1      42.062 -15.752   4.687  1.00  0.00     0.007 A 
ENDBRANCH  10  11
ENDBRANCH   8  10
ENDBRANCH   2   3
ENDBRANCH   1   2
BRANCH   1  17
HETATM   17  C   UNL     1      40.878 -15.484   0.761  1.00  0.00     0.245 C 
HETATM   18  N   UNL     1      42.020 -16.188   0.428  1.00  0.00    -0.267 N 
HETATM   19  H   UNL     1      42.385 -16.169  -0.527  1.00  0.00     0.190 HD
HETATM   20  O   UNL     1      40.160 -15.819   1.708  1.00  0.00    -0.271 OA
BRANCH  18  21
HETATM   21  N   UNL     1      42.230 -17.403   1.111  1.00  0.00    -0.263 N 
HETATM   22  C   UNL     1      43.424 -17.545   1.795  1.00  0.00     0.270 C 
HETATM   23  O   UNL     1      44.204 -16.611   1.954  1.00  0.00    -0.266 OA
HETATM   24  H   UNL     1      41.757 -18.210   0.708  1.00  0.00     0.190 HD
BRANCH  22  25
HETATM   25  C   UNL     1      43.737 -18.912   2.294  1.00  0.00     0.033 A 
HETATM   26  C   UNL     1      44.331 -19.045   3.553  1.00  0.00     0.020 A 
HETATM   27  C   UNL     1      44.647 -20.312   4.049  1.00  0.00     0.038 A 
HETATM   28  C   UNL     1      44.369 -21.461   3.303  1.00  0.00     0.068 A 
HETATM   29  C   UNL     1      43.763 -21.332   2.053  1.00  0.00     0.038 A 
HETATM   30  C   UNL     1      43.443 -20.063   1.550  1.00  0.00     0.020 A 
BRANCH  28  31
HETATM   31  O   UNL     1      44.730 -22.634   3.903  1.00  0.00    -0.356 OA
HETATM   32  C   UNL     1      45.194 -22.558   5.245  1.00  0.00     0.210 C 
ENDBRANCH  28  31
ENDBRANCH  22  25
ENDBRANCH  18  21
ENDBRANCH   1  17
TORSDOF 8
ENDMDL
MODEL 5
REMARK VINA RESULT:      -8.3      2.158      2.897
REMARK  8 active torsions:
REMARK  status: ('A' for Active; 'I' for Inactive)
REMARK    1  A    between atoms: C_5  and  S_6 
REMARK    2  A    between atoms: S_6  and  C_7 
REMARK    3  A    between atoms: C_7  and  C_8 
REMARK       I    between atoms: C_8  and  N_9 
REMARK    4  A    between atoms: N_9  and  N_10 
REMARK       I    between atoms: N_10  and  C_11 
REMARK    5  A    between atoms: C_11  and  C_12 
REMARK    6  A    between atoms: C_15  and  O_16 
REMARK    7  A    between atoms: C_23  and  C_24 
REMARK    8  A    between atoms: C_24  and  C_25 
ROOT
HETATM    1  C   UNL     1      43.411 -14.332   5.807  1.00  0.00     0.187 C 
ENDROOT
BRANCH   1   2
HETATM    2  S   UNL     1      42.057 -15.530   5.923  1.00  0.00    -0.083 SA
BRANCH   2   3
HETATM    3  C   UNL     1      42.921 -17.023   5.964  1.00  0.00     0.167 A 
HETATM    4  N   UNL     1      42.672 -17.972   6.910  1.00  0.00    -0.337 N 
HETATM    5  C   UNL     1      43.553 -19.005   6.710  1.00  0.00     0.032 A 
HETATM    6  H   UNL     1      41.932 -17.926   7.601  1.00  0.00     0.168 HD
HETATM    7  C   UNL     1      43.568 -20.218   7.553  1.00  0.00     0.070 C 
HETATM    8  C   UNL     1      44.326 -18.604   5.630  1.00  0.00     0.063 A 
HETATM    9  N   UNL     1      43.894 -17.375   5.162  1.00  0.00    -0.227 NA
BRANCH   8  10
HETATM   10  C   UNL     1      45.451 -19.316   4.959  1.00  0.00     0.100 C 
BRANCH  10  11
HETATM   11  C   UNL     1      44.831 -20.164   3.875  1.00  0.00    -0.052 A 
HETATM   12  C   UNL     1      44.150 -19.575   2.800  1.00  0.00     0.007 A 
HETATM   13  C   UNL     1      43.580 -20.367   1.801  1.00  0.00     0.001 A 
HETATM   14  C   UNL     1      43.685 -21.756   1.865  1.00  0.00     0.000 A 
HETATM   15  C   UNL     1      44.355 -22.354   2.928  1.00  0.00     0.001 A 
HETATM   16  C   UNL     1      44.924 -21.565   3.928  1.00  0.00     0.007 A 
ENDBRANCH  10  11
ENDBRANCH   8  10
ENDBRANCH   2   3
ENDBRANCH   1   2
BRANCH   1  17
HETATM   17  C   UNL     1      43.129 -13.143   6.702  1.00  0.00     0.245 C 
HETATM   18  N   UNL     1      43.966 -13.025   7.795  1.00  0.00    -0.267 N 
HETATM   19  H   UNL     1      44.439 -13.846   8.182  1.00  0.00     0.190 HD
HETATM   20  O   UNL     1      42.217 -12.338   6.491  1.00  0.00    -0.271 OA
BRANCH  18  21
HETATM   21  N   UNL     1      43.622 -12.044   8.747  1.00  0.00    -0.263 N 
HETATM   22  C   UNL     1      44.281 -12.084   9.962  1.00  0.00     0.270 C 
HETATM   23  O   UNL     1      45.241 -12.822  10.165  1.00  0.00    -0.266 OA
HETATM   24  H   UNL     1      42.667 -11.696   8.679  1.00  0.00     0.190 HD
BRANCH  22  25
HETATM   25  C   UNL     1      43.733 -11.211  11.036  1.00  0.00     0.033 A 
HETATM   26  C   UNL     1      43.287 -11.807  12.220  1.00  0.00     0.020 A 
HETATM   27  C   UNL     1      42.760 -11.018  13.246  1.00  0.00     0.038 A 
HETATM   28  C   UNL     1      42.677  -9.630  13.109  1.00  0.00     0.068 A 
HETATM   29  C   UNL     1      43.135  -9.032  11.935  1.00  0.00     0.038 A 
HETATM   30  C   UNL     1      43.666  -9.817  10.903  1.00  0.00     0.020 A 
BRANCH  28  31
HETATM   31  O   UNL     1      42.140  -8.980  14.184  1.00  0.00    -0.356 OA
HETATM   32  C   UNL     1      41.989  -7.569  14.078  1.00  0.00     0.210 C 
ENDBRANCH  28  31
ENDBRANCH  22  25
ENDBRANCH  18  21
ENDBRANCH   1  17
TORSDOF 8
ENDMDL
MODEL 6
REMARK VINA RESULT:      -8.2      5.691      9.529
REMARK  8 active torsions:
REMARK  status: ('A' for Active; 'I' for Inactive)
REMARK    1  A    between atoms: C_5  and  S_6 
REMARK    2  A    between atoms: S_6  and  C_7 
REMARK    3  A    between atoms: C_7  and  C_8 
REMARK       I    between atoms: C_8  and  N_9 
REMARK    4  A    between atoms: N_9  and  N_10 
REMARK       I    between atoms: N_10  and  C_11 
REMARK    5  A    between atoms: C_11  and  C_12 
REMARK    6  A    between atoms: C_15  and  O_16 
REMARK    7  A    between atoms: C_23  and  C_24 
REMARK    8  A    between atoms: C_24  and  C_25 
ROOT
HETATM    1  C   UNL     1      43.325 -14.403   5.538  1.00  0.00     0.187 C 
ENDROOT
BRANCH   1   2
HETATM    2  S   UNL     1      42.066 -15.561   6.132  1.00  0.00    -0.083 SA
BRANCH   2   3
HETATM    3  C   UNL     1      42.933 -17.053   6.108  1.00  0.00     0.167 A 
HETATM    4  N   UNL     1      42.693 -18.038   7.018  1.00  0.00    -0.337 N 
HETATM    5  C   UNL     1      43.574 -19.061   6.770  1.00  0.00     0.032 A 
HETATM    6  H   UNL     1      41.961 -18.021   7.718  1.00  0.00     0.168 HD
HETATM    7  C   UNL     1      43.599 -20.306   7.566  1.00  0.00     0.070 C 
HETATM    8  C   UNL     1      44.336 -18.618   5.699  1.00  0.00     0.063 A 
HETATM    9  N   UNL     1      43.898 -17.373   5.283  1.00  0.00    -0.227 NA
BRANCH   8  10
HETATM   10  C   UNL     1      45.454 -19.303   4.990  1.00  0.00     0.100 C 
BRANCH  10  11
HETATM   11  C   UNL     1      44.821 -20.135   3.901  1.00  0.00    -0.052 A 
HETATM   12  C   UNL     1      44.151 -19.529   2.828  1.00  0.00     0.007 A 
HETATM   13  C   UNL     1      43.569 -20.307   1.825  1.00  0.00     0.001 A 
HETATM   14  C   UNL     1      43.652 -21.698   1.882  1.00  0.00     0.000 A 
HETATM   15  C   UNL     1      44.312 -22.312   2.943  1.00  0.00     0.001 A 
HETATM   16  C   UNL     1      44.892 -21.537   3.947  1.00  0.00     0.007 A 
ENDBRANCH  10  11
ENDBRANCH   8  10
ENDBRANCH   2   3
ENDBRANCH   1   2
BRANCH   1  17
HETATM   17  C   UNL     1      43.161 -14.178   4.049  1.00  0.00     0.245 C 
HETATM   18  N   UNL     1      41.965 -14.625   3.520  1.00  0.00    -0.267 N 
HETATM   19  H   UNL     1      41.440 -15.374   3.977  1.00  0.00     0.190 HD
HETATM   20  O   UNL     1      44.026 -13.648   3.345  1.00  0.00    -0.271 OA
BRANCH  18  21
HETATM   21  N   UNL     1      41.852 -14.602   2.116  1.00  0.00    -0.263 N 
HETATM   22  C   UNL     1      40.586 -14.424   1.587  1.00  0.00     0.270 C 
HETATM   23  O   UNL     1      39.619 -14.130   2.283  1.00  0.00    -0.266 OA
HETATM   24  H   UNL     1      42.556 -15.145   1.619  1.00  0.00     0.190 HD
BRANCH  22  25
HETATM   25  C   UNL     1      40.447 -14.653   0.122  1.00  0.00     0.033 A 
HETATM   26  C   UNL     1      39.474 -13.934  -0.578  1.00  0.00     0.020 A 
HETATM   27  C   UNL     1      39.310 -14.130  -1.952  1.00  0.00     0.038 A 
HETATM   28  C   UNL     1      40.116 -15.037  -2.644  1.00  0.00     0.068 A 
HETATM   29  C   UNL     1      41.098 -15.745  -1.951  1.00  0.00     0.038 A 
HETATM   30  C   UNL     1      41.268 -15.552  -0.573  1.00  0.00     0.020 A 
BRANCH  28  31
HETATM   31  O   UNL     1      39.850 -15.135  -3.981  1.00  0.00    -0.356 OA
HETATM   32  C   UNL     1      38.883 -16.099  -4.380  1.00  0.00     0.210 C 
ENDBRANCH  28  31
ENDBRANCH  22  25
ENDBRANCH  18  21
ENDBRANCH   1  17
TORSDOF 8
ENDMDL
MODEL 7
REMARK VINA RESULT:      -8.1      1.401      2.299
REMARK  8 active torsions:
REMARK  status: ('A' for Active; 'I' for Inactive)
REMARK    1  A    between atoms: C_5  and  S_6 
REMARK    2  A    between atoms: S_6  and  C_7 
REMARK    3  A    between atoms: C_7  and  C_8 
REMARK       I    between atoms: C_8  and  N_9 
REMARK    4  A    between atoms: N_9  and  N_10 
REMARK       I    between atoms: N_10  and  C_11 
REMARK    5  A    between atoms: C_11  and  C_12 
REMARK    6  A    between atoms: C_15  and  O_16 
REMARK    7  A    between atoms: C_23  and  C_24 
REMARK    8  A    between atoms: C_24  and  C_25 
ROOT
HETATM    1  C   UNL     1      41.150 -11.482   5.410  1.00  0.00     0.187 C 
ENDROOT
BRANCH   1   2
HETATM    2  S   UNL     1      39.792 -12.649   5.133  1.00  0.00    -0.083 SA
BRANCH   2   3
HETATM    3  C   UNL     1      40.652 -14.085   4.715  1.00  0.00     0.167 A 
HETATM    4  N   UNL     1      41.652 -14.080   3.789  1.00  0.00    -0.337 N 
HETATM    5  C   UNL     1      42.093 -15.372   3.641  1.00  0.00     0.032 A 
HETATM    6  H   UNL     1      42.023 -13.254   3.335  1.00  0.00     0.168 HD
HETATM    7  C   UNL     1      43.183 -15.744   2.715  1.00  0.00     0.070 C 
HETATM    8  C   UNL     1      41.297 -16.115   4.500  1.00  0.00     0.063 A 
HETATM    9  N   UNL     1      40.424 -15.286   5.182  1.00  0.00    -0.227 NA
BRANCH   8  10
HETATM   10  C   UNL     1      41.312 -17.582   4.766  1.00  0.00     0.100 C 
BRANCH  10  11
HETATM   11  C   UNL     1      42.476 -17.834   5.693  1.00  0.00    -0.052 A 
HETATM   12  C   UNL     1      42.432 -17.425   7.034  1.00  0.00     0.007 A 
HETATM   13  C   UNL     1      43.513 -17.663   7.885  1.00  0.00     0.001 A 
HETATM   14  C   UNL     1      44.650 -18.314   7.406  1.00  0.00     0.000 A 
HETATM   15  C   UNL     1      44.708 -18.724   6.076  1.00  0.00     0.001 A 
HETATM   16  C   UNL     1      43.629 -18.485   5.224  1.00  0.00     0.007 A 
ENDBRANCH  10  11
ENDBRANCH   8  10
ENDBRANCH   2   3
ENDBRANCH   1   2
BRANCH   1  17
HETATM   17  C   UNL     1      41.038 -10.875   6.793  1.00  0.00     0.245 C 
HETATM   18  N   UNL     1      41.912 -11.394   7.730  1.00  0.00    -0.267 N 
HETATM   19  H   UNL     1      42.292 -12.337   7.623  1.00  0.00     0.190 HD
HETATM   20  O   UNL     1      40.225  -9.992   7.081  1.00  0.00    -0.271 OA
BRANCH  18  21
HETATM   21  N   UNL     1      41.715 -10.989   9.065  1.00  0.00    -0.263 N 
HETATM   22  C   UNL     1      42.842 -10.682   9.805  1.00  0.00     0.270 C 
HETATM   23  O   UNL     1      43.957 -10.597   9.300  1.00  0.00    -0.266 OA
HETATM   24  H   UNL     1      40.882 -11.369   9.511  1.00  0.00     0.190 HD
BRANCH  22  25
HETATM   25  C   UNL     1      42.639 -10.504  11.270  1.00  0.00     0.033 A 
HETATM   26  C   UNL     1      41.491 -11.048  11.856  1.00  0.00     0.020 A 
HETATM   27  C   UNL     1      41.264 -10.892  13.226  1.00  0.00     0.038 A 
HETATM   28  C   UNL     1      42.178 -10.203  14.028  1.00  0.00     0.068 A 
HETATM   29  C   UNL     1      43.331  -9.674  13.448  1.00  0.00     0.038 A 
HETATM   30  C   UNL     1      43.565  -9.826  12.074  1.00  0.00     0.020 A 
BRANCH  28  31
HETATM   31  O   UNL     1      41.834 -10.123  15.348  1.00  0.00    -0.356 OA
HETATM   32  C   UNL     1      42.159  -8.916  16.028  1.00  0.00     0.210 C 
ENDBRANCH  28  31
ENDBRANCH  22  25
ENDBRANCH  18  21
ENDBRANCH   1  17
TORSDOF 8
ENDMDL
MODEL 8
REMARK VINA RESULT:      -7.9      5.640      9.271
REMARK  8 active torsions:
REMARK  status: ('A' for Active; 'I' for Inactive)
REMARK    1  A    between atoms: C_5  and  S_6 
REMARK    2  A    between atoms: S_6  and  C_7 
REMARK    3  A    between atoms: C_7  and  C_8 
REMARK       I    between atoms: C_8  and  N_9 
REMARK    4  A    between atoms: N_9  and  N_10 
REMARK       I    between atoms: N_10  and  C_11 
REMARK    5  A    between atoms: C_11  and  C_12 
REMARK    6  A    between atoms: C_15  and  O_16 
REMARK    7  A    between atoms: C_23  and  C_24 
REMARK    8  A    between atoms: C_24  and  C_25 
ROOT
HETATM    1  C   UNL     1      40.344 -14.106  -0.165  1.00  0.00     0.187 C 
ENDROOT
BRANCH   1   2
HETATM    2  S   UNL     1      41.636 -12.896   0.220  1.00  0.00    -0.083 SA
BRANCH   2   3
HETATM    3  C   UNL     1      41.180 -12.400   1.808  1.00  0.00     0.167 A 
HETATM    4  N   UNL     1      41.342 -11.115   2.233  1.00  0.00    -0.337 N 
HETATM    5  C   UNL     1      40.943 -11.054   3.545  1.00  0.00     0.032 A 
HETATM    6  H   UNL     1      41.659 -10.345   1.656  1.00  0.00     0.168 HD
HETATM    7  C   UNL     1      40.975  -9.805   4.334  1.00  0.00     0.070 C 
HETATM    8  C   UNL     1      40.565 -12.352   3.858  1.00  0.00     0.063 A 
HETATM    9  N   UNL     1      40.694 -13.169   2.749  1.00  0.00    -0.227 NA
BRANCH   8  10
HETATM   10  C   UNL     1      40.045 -12.898   5.145  1.00  0.00     0.100 C 
BRANCH  10  11
HETATM   11  C   UNL     1      41.023 -13.962   5.581  1.00  0.00    -0.052 A 
HETATM   12  C   UNL     1      42.376 -13.656   5.789  1.00  0.00     0.007 A 
HETATM   13  C   UNL     1      43.274 -14.646   6.194  1.00  0.00     0.001 A 
HETATM   14  C   UNL     1      42.829 -15.953   6.397  1.00  0.00     0.000 A 
HETATM   15  C   UNL     1      41.489 -16.270   6.192  1.00  0.00     0.001 A 
HETATM   16  C   UNL     1      40.591 -15.283   5.786  1.00  0.00     0.007 A 
ENDBRANCH  10  11
ENDBRANCH   8  10
ENDBRANCH   2   3
ENDBRANCH   1   2
BRANCH   1  17
HETATM   17  C   UNL     1      40.786 -15.491   0.262  1.00  0.00     0.245 C 
HETATM   18  N   UNL     1      40.505 -15.813   1.576  1.00  0.00    -0.267 N 
HETATM   19  H   UNL     1      40.394 -15.080   2.281  1.00  0.00     0.190 HD
HETATM   20  O   UNL     1      41.364 -16.279  -0.492  1.00  0.00    -0.271 OA
BRANCH  18  21
HETATM   21  N   UNL     1      41.061 -17.013   2.061  1.00  0.00    -0.263 N 
HETATM   22  C   UNL     1      42.322 -16.943   2.625  1.00  0.00     0.270 C 
HETATM   23  O   UNL     1      42.880 -15.875   2.856  1.00  0.00    -0.266 OA
HETATM   24  H   UNL     1      40.746 -17.856   1.584  1.00  0.00     0.190 HD
BRANCH  22  25
HETATM   25  C   UNL     1      42.994 -18.244   2.897  1.00  0.00     0.033 A 
HETATM   26  C   UNL     1      43.010 -19.213   1.889  1.00  0.00     0.020 A 
HETATM   27  C   UNL     1      43.624 -20.448   2.113  1.00  0.00     0.038 A 
HETATM   28  C   UNL     1      44.235 -20.730   3.338  1.00  0.00     0.068 A 
HETATM   29  C   UNL     1      44.233 -19.759   4.340  1.00  0.00     0.038 A 
HETATM   30  C   UNL     1      43.619 -18.518   4.121  1.00  0.00     0.020 A 
BRANCH  28  31
HETATM   31  O   UNL     1      44.795 -21.973   3.426  1.00  0.00    -0.356 OA
HETATM   32  C   UNL     1      45.084 -22.462   4.730  1.00  0.00     0.210 C 
ENDBRANCH  28  31
ENDBRANCH  22  25
ENDBRANCH  18  21
ENDBRANCH   1  17
TORSDOF 8
ENDMDL
MODEL 9
REMARK VINA RESULT:      -7.9      3.191     10.298
REMARK  8 active torsions:
REMARK  status: ('A' for Active; 'I' for Inactive)
REMARK    1  A    between atoms: C_5  and  S_6 
REMARK    2  A    between atoms: S_6  and  C_7 
REMARK    3  A    between atoms: C_7  and  C_8 
REMARK       I    between atoms: C_8  and  N_9 
REMARK    4  A    between atoms: N_9  and  N_10 
REMARK       I    between atoms: N_10  and  C_11 
REMARK    5  A    between atoms: C_11  and  C_12 
REMARK    6  A    between atoms: C_15  and  O_16 
REMARK    7  A    between atoms: C_23  and  C_24 
REMARK    8  A    between atoms: C_24  and  C_25 
ROOT
HETATM    1  C   UNL     1      39.626 -13.116   6.487  1.00  0.00     0.187 C 
ENDROOT
BRANCH   1   2
HETATM    2  S   UNL     1      40.480 -11.534   6.266  1.00  0.00    -0.083 SA
BRANCH   2   3
HETATM    3  C   UNL     1      39.946 -10.658   7.654  1.00  0.00     0.167 A 
HETATM    4  N   UNL     1      39.449  -9.394   7.557  1.00  0.00    -0.337 N 
HETATM    5  C   UNL     1      39.170  -8.955   8.828  1.00  0.00     0.032 A 
HETATM    6  H   UNL     1      39.279  -8.898   6.690  1.00  0.00     0.168 HD
HETATM    7  C   UNL     1      38.606  -7.618   9.107  1.00  0.00     0.070 C 
HETATM    8  C   UNL     1      39.543 -10.006   9.653  1.00  0.00     0.063 A 
HETATM    9  N   UNL     1      39.999 -11.071   8.895  1.00  0.00    -0.227 NA
BRANCH   8  10
HETATM   10  C   UNL     1      39.475 -10.109  11.138  1.00  0.00     0.100 C 
BRANCH  10  11
HETATM   11  C   UNL     1      40.901 -10.080  11.633  1.00  0.00    -0.052 A 
HETATM   12  C   UNL     1      41.463 -11.192  12.277  1.00  0.00     0.007 A 
HETATM   13  C   UNL     1      42.783 -11.157  12.731  1.00  0.00     0.001 A 
HETATM   14  C   UNL     1      43.556 -10.011  12.545  1.00  0.00     0.000 A 
HETATM   15  C   UNL     1      43.010  -8.899  11.909  1.00  0.00     0.001 A 
HETATM   16  C   UNL     1      41.690  -8.932  11.457  1.00  0.00     0.007 A 
ENDBRANCH  10  11
ENDBRANCH   8  10
ENDBRANCH   2   3
ENDBRANCH   1   2
BRANCH   1  17
HETATM   17  C   UNL     1      40.197 -14.150   5.538  1.00  0.00     0.245 C 
HETATM   18  N   UNL     1      39.901 -15.461   5.859  1.00  0.00    -0.267 N 
HETATM   19  H   UNL     1      39.686 -15.727   6.822  1.00  0.00     0.190 HD
HETATM   20  O   UNL     1      40.884 -13.859   4.554  1.00  0.00    -0.271 OA
BRANCH  18  21
HETATM   21  N   UNL     1      40.563 -16.455   5.110  1.00  0.00    -0.263 N 
HETATM   22  C   UNL     1      41.563 -17.166   5.748  1.00  0.00     0.270 C 
HETATM   23  O   UNL     1      41.769 -17.072   6.954  1.00  0.00    -0.266 OA
HETATM   24  H   UNL     1      40.599 -16.284   4.106  1.00  0.00     0.190 HD
BRANCH  22  25
HETATM   25  C   UNL     1      42.415 -18.026   4.880  1.00  0.00     0.033 A 
HETATM   26  C   UNL     1      43.399 -18.817   5.482  1.00  0.00     0.020 A 
HETATM   27  C   UNL     1      44.221 -19.630   4.698  1.00  0.00     0.038 A 
HETATM   28  C   UNL     1      44.071 -19.670   3.309  1.00  0.00     0.068 A 
HETATM   29  C   UNL     1      43.080 -18.893   2.708  1.00  0.00     0.038 A 
HETATM   30  C   UNL     1      42.251 -18.076   3.489  1.00  0.00     0.020 A 
BRANCH  28  31
HETATM   31  O   UNL     1      44.940 -20.503   2.663  1.00  0.00    -0.356 OA
HETATM   32  C   UNL     1      44.407 -21.713   2.138  1.00  0.00     0.210 C 
ENDBRANCH  28  31
ENDBRANCH  22  25
ENDBRANCH  18  21
ENDBRANCH   1  17
TORSDOF 8
ENDMDL
MODEL 10
REMARK VINA RESULT:      -7.8      7.265     10.352
REMARK  8 active torsions:
REMARK  status: ('A' for Active; 'I' for Inactive)
REMARK    1  A    between atoms: C_5  and  S_6 
REMARK    2  A    between atoms: S_6  and  C_7 
REMARK    3  A    between atoms: C_7  and  C_8 
REMARK       I    between atoms: C_8  and  N_9 
REMARK    4  A    between atoms: N_9  and  N_10 
REMARK       I    between atoms: N_10  and  C_11 
REMARK    5  A    between atoms: C_11  and  C_12 
REMARK    6  A    between atoms: C_15  and  O_16 
REMARK    7  A    between atoms: C_23  and  C_24 
REMARK    8  A    between atoms: C_24  and  C_25 
ROOT
HETATM    1  C   UNL     1      40.144 -13.952   2.040  1.00  0.00     0.187 C 
ENDROOT
BRANCH   1   2
HETATM    2  S   UNL     1      41.016 -12.382   2.274  1.00  0.00    -0.083 SA
BRANCH   2   3
HETATM    3  C   UNL     1      41.750 -12.163   0.728  1.00  0.00     0.167 A 
HETATM    4  N   UNL     1      42.318 -10.979   0.364  1.00  0.00    -0.337 N 
HETATM    5  C   UNL     1      42.757 -11.105  -0.930  1.00  0.00     0.032 A 
HETATM    6  H   UNL     1      42.429 -10.174   0.970  1.00  0.00     0.168 HD
HETATM    7  C   UNL     1      43.435 -10.010  -1.655  1.00  0.00     0.070 C 
HETATM    8  C   UNL     1      42.403 -12.395  -1.298  1.00  0.00     0.063 A 
HETATM    9  N   UNL     1      41.801 -13.047  -0.236  1.00  0.00    -0.227 NA
BRANCH   8  10
HETATM   10  C   UNL     1      42.620 -13.099  -2.594  1.00  0.00     0.100 C 
BRANCH  10  11
HETATM   11  C   UNL     1      41.311 -13.765  -2.941  1.00  0.00    -0.052 A 
HETATM   12  C   UNL     1      40.142 -13.009  -3.119  1.00  0.00     0.007 A 
HETATM   13  C   UNL     1      38.935 -13.633  -3.440  1.00  0.00     0.001 A 
HETATM   14  C   UNL     1      38.883 -15.019  -3.589  1.00  0.00     0.000 A 
HETATM   15  C   UNL     1      40.034 -15.781  -3.413  1.00  0.00     0.001 A 
HETATM   16  C   UNL     1      41.241 -15.160  -3.090  1.00  0.00     0.007 A 
ENDBRANCH  10  11
ENDBRANCH   8  10
ENDBRANCH   2   3
ENDBRANCH   1   2
BRANCH   1  17
HETATM   17  C   UNL     1      40.937 -15.084   2.660  1.00  0.00     0.245 C 
HETATM   18  N   UNL     1      41.190 -16.149   1.816  1.00  0.00    -0.267 N 
HETATM   19  H   UNL     1      40.579 -16.340   1.019  1.00  0.00     0.190 HD
HETATM   20  O   UNL     1      41.325 -15.076   3.831  1.00  0.00    -0.271 OA
BRANCH  18  21
HETATM   21  N   UNL     1      41.762 -17.294   2.404  1.00  0.00    -0.263 N 
HETATM   22  C   UNL     1      43.019 -17.670   1.966  1.00  0.00     0.270 C 
HETATM   23  O   UNL     1      43.694 -16.962   1.224  1.00  0.00    -0.266 OA
HETATM   24  H   UNL     1      41.093 -17.988   2.733  1.00  0.00     0.190 HD
BRANCH  22  25
HETATM   25  C   UNL     1      43.497 -19.009   2.407  1.00  0.00     0.033 A 
HETATM   26  C   UNL     1      44.077 -19.129   3.673  1.00  0.00     0.020 A 
HETATM   27  C   UNL     1      44.544 -20.369   4.116  1.00  0.00     0.038 A 
HETATM   28  C   UNL     1      44.431 -21.504   3.309  1.00  0.00     0.068 A 
HETATM   29  C   UNL     1      43.839 -21.390   2.051  1.00  0.00     0.038 A 
HETATM   30  C   UNL     1      43.368 -20.149   1.601  1.00  0.00     0.020 A 
BRANCH  28  31
HETATM   31  O   UNL     1      44.929 -22.651   3.861  1.00  0.00    -0.356 OA
HETATM   32  C   UNL     1      45.275 -22.607   5.241  1.00  0.00     0.210 C 
ENDBRANCH  28  31
ENDBRANCH  22  25
ENDBRANCH  18  21
ENDBRANCH   1  17
TORSDOF 8
ENDMDL
