MODEL 1
REMARK VINA RESULT:      -8.4      0.000      0.000
REMARK  8 active torsions:
REMARK  status: ('A' for Active; 'I' for Inactive)
REMARK    1  A    between atoms: C_7  and  C_8 
REMARK       I    between atoms: C_8  and  N_9 
REMARK    2  A    between atoms: N_9  and  C_10 
REMARK    3  A    between atoms: C_12  and  C_13 
REMARK       I    between atoms: C_13  and  N_14 
REMARK    4  A    between atoms: N_14  and  C_15 
REMARK    5  A    between atoms: C_15  and  C_16 
REMARK    6  A    between atoms: C_16  and  C_17 
REMARK    7  A    between atoms: C_18  and  O_19 
REMARK    8  A    between atoms: C_23  and  O_24 
ROOT
HETATM    1  C   UNL     1      44.438 -11.608   9.542  1.00  0.00     0.035 A 
HETATM    2  C   UNL     1      43.938 -12.597   8.690  1.00  0.00     0.046 A 
HETATM    3  C   UNL     1      44.778 -13.205   7.745  1.00  0.00     0.034 A 
HETATM    4  C   UNL     1      46.115 -12.809   7.636  1.00  0.00     0.017 A 
HETATM    5  C   UNL     1      46.620 -11.831   8.489  1.00  0.00     0.003 A 
HETATM    6  C   UNL     1      45.786 -11.240   9.441  1.00  0.00     0.029 A 
ENDROOT
BRANCH   3   7
HETATM    7  C   UNL     1      44.271 -14.244   6.813  1.00  0.00     0.251 C 
HETATM    8  N   UNL     1      43.766 -15.389   7.390  1.00  0.00    -0.357 N 
HETATM    9  H   UNL     1      43.752 -15.481   8.398  1.00  0.00     0.162 HD
HETATM   10  O   UNL     1      44.338 -14.061   5.602  1.00  0.00    -0.268 OA
BRANCH   8  11
HETATM   11  C   UNL     1      43.121 -16.419   6.596  1.00  0.00     0.127 C 
BRANCH  11  12
HETATM   12  C   UNL     1      44.104 -17.458   6.046  1.00  0.00     0.061 C 
BRANCH  12  13
HETATM   13  C   UNL     1      43.942 -17.933   4.610  1.00  0.00    -0.021 A 
HETATM   14  C   UNL     1      44.095 -19.309   4.329  1.00  0.00     0.074 A 
HETATM   15  C   UNL     1      43.948 -19.774   3.021  1.00  0.00     0.040 A 
HETATM   16  C   UNL     1      43.673 -18.882   1.984  1.00  0.00     0.039 A 
HETATM   17  C   UNL     1      43.548 -17.517   2.236  1.00  0.00     0.068 A 
HETATM   18  C   UNL     1      43.690 -17.047   3.543  1.00  0.00     0.046 A 
BRANCH  14  19
HETATM   19  O   UNL     1      44.379 -20.110   5.406  1.00  0.00    -0.355 OA
HETATM   20  C   UNL     1      44.864 -21.420   5.137  1.00  0.00     0.210 C 
ENDBRANCH  14  19
BRANCH  17  21
HETATM   21  O   UNL     1      43.291 -16.757   1.128  1.00  0.00    -0.356 OA
HETATM   22  C   UNL     1      41.950 -16.735   0.657  1.00  0.00     0.210 C 
ENDBRANCH  17  21
ENDBRANCH  12  13
ENDBRANCH  11  12
ENDBRANCH   8  11
ENDBRANCH   3   7
BRANCH   1  23
HETATM   23  N   UNL     1      43.662 -10.939  10.508  1.00  0.00    -0.322 N 
HETATM   24  C   UNL     1      43.322 -11.364  11.779  1.00  0.00     0.265 C 
HETATM   25  O   UNL     1      43.647 -12.439  12.274  1.00  0.00    -0.267 OA
HETATM   26  H   UNL     1      43.253 -10.052  10.230  1.00  0.00     0.169 HD
BRANCH  24  27
HETATM   27  C   UNL     1      42.453 -10.373  12.544  1.00  0.00     0.097 C 
HETATM   28  C   UNL     1      41.113 -10.320  12.349  1.00  0.00     0.064 C 
HETATM   29  C   UNL     1      40.347 -11.292  11.486  1.00  0.00     0.078 C 
HETATM   30  O   UNL     1      40.251  -9.408  12.940  1.00  0.00    -0.353 OA
HETATM   31  C   UNL     1      40.841  -8.219  13.466  1.00  0.00     0.185 C 
HETATM   32  C   UNL     1      41.899  -8.545  14.496  1.00  0.00     0.106 C 
HETATM   33  S   UNL     1      43.303  -9.313  13.652  1.00  0.00    -0.120 SA
ENDBRANCH  24  27
ENDBRANCH   1  23
TORSDOF 8
ENDMDL
MODEL 2
REMARK VINA RESULT:      -8.1      3.029      4.136
REMARK  8 active torsions:
REMARK  status: ('A' for Active; 'I' for Inactive)
REMARK    1  A    between atoms: C_7  and  C_8 
REMARK       I    between atoms: C_8  and  N_9 
REMARK    2  A    between atoms: N_9  and  C_10 
REMARK    3  A    between atoms: C_12  and  C_13 
REMARK       I    between atoms: C_13  and  N_14 
REMARK    4  A    between atoms: N_14  and  C_15 
REMARK    5  A    between atoms: C_15  and  C_16 
REMARK    6  A    between atoms: C_16  and  C_17 
REMARK    7  A    between atoms: C_18  and  O_19 
REMARK    8  A    between atoms: C_23  and  O_24 
ROOT
HETATM    1  C   UNL     1      41.258 -11.531   6.371  1.00  0.00     0.035 A 
HETATM    2  C   UNL     1      42.011 -12.531   5.749  1.00  0.00     0.046 A 
HETATM    3  C   UNL     1      42.065 -12.604   4.348  1.00  0.00     0.034 A 
HETATM    4  C   UNL     1      41.348 -11.691   3.569  1.00  0.00     0.017 A 
HETATM    5  C   UNL     1      40.605 -10.687   4.184  1.00  0.00     0.003 A 
HETATM    6  C   UNL     1      40.567 -10.606   5.578  1.00  0.00     0.029 A 
ENDROOT
BRANCH   3   7
HETATM    7  C   UNL     1      42.839 -13.667   3.658  1.00  0.00     0.251 C 
HETATM    8  N   UNL     1      42.108 -14.709   3.130  1.00  0.00    -0.357 N 
HETATM    9  H   UNL     1      41.100 -14.714   3.219  1.00  0.00     0.162 HD
HETATM   10  O   UNL     1      44.062 -13.595   3.606  1.00  0.00    -0.268 OA
BRANCH   8  11
HETATM   11  C   UNL     1      42.731 -15.741   2.319  1.00  0.00     0.127 C 
BRANCH  11  12
HETATM   12  C   UNL     1      42.176 -17.142   2.598  1.00  0.00     0.061 C 
BRANCH  12  13
HETATM   13  C   UNL     1      43.093 -18.182   3.224  1.00  0.00    -0.021 A 
HETATM   14  C   UNL     1      43.505 -18.004   4.564  1.00  0.00     0.074 A 
HETATM   15  C   UNL     1      44.344 -18.945   5.166  1.00  0.00     0.040 A 
HETATM   16  C   UNL     1      44.795 -20.049   4.442  1.00  0.00     0.039 A 
HETATM   17  C   UNL     1      44.424 -20.226   3.111  1.00  0.00     0.068 A 
HETATM   18  C   UNL     1      43.582 -19.290   2.505  1.00  0.00     0.046 A 
BRANCH  14  19
HETATM   19  O   UNL     1      43.025 -16.883   5.193  1.00  0.00    -0.355 OA
HETATM   20  C   UNL     1      43.845 -16.294   6.196  1.00  0.00     0.210 C 
ENDBRANCH  14  19
BRANCH  17  21
HETATM   21  O   UNL     1      44.948 -21.343   2.520  1.00  0.00    -0.356 OA
HETATM   22  C   UNL     1      44.143 -21.996   1.547  1.00  0.00     0.210 C 
ENDBRANCH  17  21
ENDBRANCH  12  13
ENDBRANCH  11  12
ENDBRANCH   8  11
ENDBRANCH   3   7
BRANCH   1  23
HETATM   23  N   UNL     1      41.139 -11.394   7.768  1.00  0.00    -0.322 N 
HETATM   24  C   UNL     1      41.586 -10.358   8.568  1.00  0.00     0.265 C 
HETATM   25  O   UNL     1      42.190  -9.368   8.168  1.00  0.00    -0.267 OA
HETATM   26  H   UNL     1      40.718 -12.170   8.268  1.00  0.00     0.169 HD
BRANCH  24  27
HETATM   27  C   UNL     1      41.286 -10.556  10.049  1.00  0.00     0.097 C 
HETATM   28  C   UNL     1      42.198 -11.121  10.879  1.00  0.00     0.064 C 
HETATM   29  C   UNL     1      43.605 -11.476  10.468  1.00  0.00     0.078 C 
HETATM   30  O   UNL     1      41.993 -11.409  12.220  1.00  0.00    -0.353 OA
HETATM   31  C   UNL     1      40.636 -11.489  12.656  1.00  0.00     0.185 C 
HETATM   32  C   UNL     1      39.897 -10.200  12.372  1.00  0.00     0.106 C 
HETATM   33  S   UNL     1      39.700 -10.034  10.582  1.00  0.00    -0.120 SA
ENDBRANCH  24  27
ENDBRANCH   1  23
TORSDOF 8
ENDMDL
MODEL 3
REMARK VINA RESULT:      -8.0      3.890      9.567
REMARK  8 active torsions:
REMARK  status: ('A' for Active; 'I' for Inactive)
REMARK    1  A    between atoms: C_7  and  C_8 
REMARK       I    between atoms: C_8  and  N_9 
REMARK    2  A    between atoms: N_9  and  C_10 
REMARK    3  A    between atoms: C_12  and  C_13 
REMARK       I    between atoms: C_13  and  N_14 
REMARK    4  A    between atoms: N_14  and  C_15 
REMARK    5  A    between atoms: C_15  and  C_16 
REMARK    6  A    between atoms: C_16  and  C_17 
REMARK    7  A    between atoms: C_18  and  O_19 
REMARK    8  A    between atoms: C_23  and  O_24 
ROOT
HETATM    1  C   UNL     1      40.707 -14.237   4.767  1.00  0.00     0.035 A 
HETATM    2  C   UNL     1      40.520 -13.365   5.842  1.00  0.00     0.046 A 
HETATM    3  C   UNL     1      39.740 -12.208   5.685  1.00  0.00     0.034 A 
HETATM    4  C   UNL     1      39.166 -11.911   4.445  1.00  0.00     0.017 A 
HETATM    5  C   UNL     1      39.342 -12.782   3.373  1.00  0.00     0.003 A 
HETATM    6  C   UNL     1      40.104 -13.941   3.537  1.00  0.00     0.029 A 
ENDROOT
BRANCH   3   7
HETATM    7  C   UNL     1      39.539 -11.252   6.804  1.00  0.00     0.251 C 
HETATM    8  N   UNL     1      39.885 -11.701   8.060  1.00  0.00    -0.357 N 
HETATM    9  H   UNL     1      40.259 -12.635   8.177  1.00  0.00     0.162 HD
HETATM   10  O   UNL     1      39.067 -10.143   6.581  1.00  0.00    -0.268 OA
BRANCH   8  11
HETATM   11  C   UNL     1      39.861 -10.821   9.215  1.00  0.00     0.127 C 
BRANCH  11  12
HETATM   12  C   UNL     1      41.193 -10.098   9.448  1.00  0.00     0.061 C 
BRANCH  12  13
HETATM   13  C   UNL     1      42.374 -10.893   9.982  1.00  0.00    -0.021 A 
HETATM   14  C   UNL     1      42.488 -11.083  11.378  1.00  0.00     0.074 A 
HETATM   15  C   UNL     1      43.562 -11.811  11.896  1.00  0.00     0.040 A 
HETATM   16  C   UNL     1      44.534 -12.333  11.044  1.00  0.00     0.039 A 
HETATM   17  C   UNL     1      44.456 -12.131   9.668  1.00  0.00     0.068 A 
HETATM   18  C   UNL     1      43.383 -11.407   9.143  1.00  0.00     0.046 A 
BRANCH  14  19
HETATM   19  O   UNL     1      41.495 -10.522  12.140  1.00  0.00    -0.355 OA
HETATM   20  C   UNL     1      40.635 -11.407  12.847  1.00  0.00     0.210 C 
ENDBRANCH  14  19
BRANCH  17  21
HETATM   21  O   UNL     1      45.482 -12.686   8.953  1.00  0.00    -0.356 OA
HETATM   22  C   UNL     1      45.139 -13.364   7.751  1.00  0.00     0.210 C 
ENDBRANCH  17  21
ENDBRANCH  12  13
ENDBRANCH  11  12
ENDBRANCH   8  11
ENDBRANCH   3   7
BRANCH   1  23
HETATM   23  N   UNL     1      41.484 -15.410   4.834  1.00  0.00    -0.322 N 
HETATM   24  C   UNL     1      42.861 -15.524   4.879  1.00  0.00     0.265 C 
HETATM   25  O   UNL     1      43.648 -14.583   4.854  1.00  0.00    -0.267 OA
HETATM   26  H   UNL     1      40.983 -16.292   4.793  1.00  0.00     0.169 HD
BRANCH  24  27
HETATM   27  C   UNL     1      43.354 -16.964   4.937  1.00  0.00     0.097 C 
HETATM   28  C   UNL     1      43.540 -17.594   6.122  1.00  0.00     0.064 C 
HETATM   29  C   UNL     1      43.163 -17.005   7.458  1.00  0.00     0.078 C 
HETATM   30  O   UNL     1      44.052 -18.874   6.281  1.00  0.00    -0.353 OA
HETATM   31  C   UNL     1      44.793 -19.406   5.182  1.00  0.00     0.185 C 
HETATM   32  C   UNL     1      43.957 -19.427   3.921  1.00  0.00     0.106 C 
HETATM   33  S   UNL     1      43.680 -17.720   3.389  1.00  0.00    -0.120 SA
ENDBRANCH  24  27
ENDBRANCH   1  23
TORSDOF 8
ENDMDL
MODEL 4
REMARK VINA RESULT:      -8.0      1.394      2.810
REMARK  8 active torsions:
REMARK  status: ('A' for Active; 'I' for Inactive)
REMARK    1  A    between atoms: C_7  and  C_8 
REMARK       I    between atoms: C_8  and  N_9 
REMARK    2  A    between atoms: N_9  and  C_10 
REMARK    3  A    between atoms: C_12  and  C_13 
REMARK       I    between atoms: C_13  and  N_14 
REMARK    4  A    between atoms: N_14  and  C_15 
REMARK    5  A    between atoms: C_15  and  C_16 
REMARK    6  A    between atoms: C_16  and  C_17 
REMARK    7  A    between atoms: C_18  and  O_19 
REMARK    8  A    between atoms: C_23  and  O_24 
ROOT
HETATM    1  C   UNL     1      44.154 -11.216   9.648  1.00  0.00     0.035 A 
HETATM    2  C   UNL     1      43.825 -12.279   8.803  1.00  0.00     0.046 A 
HETATM    3  C   UNL     1      44.826 -12.931   8.066  1.00  0.00     0.034 A 
HETATM    4  C   UNL     1      46.155 -12.504   8.158  1.00  0.00     0.017 A 
HETATM    5  C   UNL     1      46.489 -11.452   9.006  1.00  0.00     0.003 A 
HETATM    6  C   UNL     1      45.493 -10.817   9.751  1.00  0.00     0.029 A 
ENDROOT
BRANCH   3   7
HETATM    7  C   UNL     1      44.505 -14.050   7.144  1.00  0.00     0.251 C 
HETATM    8  N   UNL     1      43.986 -15.187   7.723  1.00  0.00    -0.357 N 
HETATM    9  H   UNL     1      43.838 -15.222   8.724  1.00  0.00     0.162 HD
HETATM   10  O   UNL     1      44.727 -13.934   5.944  1.00  0.00    -0.268 OA
BRANCH   8  11
HETATM   11  C   UNL     1      43.508 -16.299   6.919  1.00  0.00     0.127 C 
BRANCH  11  12
HETATM   12  C   UNL     1      44.636 -17.211   6.425  1.00  0.00     0.061 C 
BRANCH  12  13
HETATM   13  C   UNL     1      44.381 -18.107   5.222  1.00  0.00    -0.021 A 
HETATM   14  C   UNL     1      43.745 -17.554   4.088  1.00  0.00     0.074 A 
HETATM   15  C   UNL     1      43.501 -18.352   2.968  1.00  0.00     0.040 A 
HETATM   16  C   UNL     1      43.862 -19.699   2.973  1.00  0.00     0.039 A 
HETATM   17  C   UNL     1      44.462 -20.270   4.093  1.00  0.00     0.068 A 
HETATM   18  C   UNL     1      44.712 -19.476   5.214  1.00  0.00     0.046 A 
BRANCH  14  19
HETATM   19  O   UNL     1      43.413 -16.226   4.177  1.00  0.00    -0.355 OA
HETATM   20  C   UNL     1      42.830 -15.619   3.030  1.00  0.00     0.210 C 
ENDBRANCH  14  19
BRANCH  17  21
HETATM   21  O   UNL     1      44.751 -21.601   3.966  1.00  0.00    -0.356 OA
HETATM   22  C   UNL     1      45.054 -22.313   5.159  1.00  0.00     0.210 C 
ENDBRANCH  17  21
ENDBRANCH  12  13
ENDBRANCH  11  12
ENDBRANCH   8  11
ENDBRANCH   3   7
BRANCH   1  23
HETATM   23  N   UNL     1      43.212 -10.499  10.412  1.00  0.00    -0.322 N 
HETATM   24  C   UNL     1      42.656 -10.844  11.630  1.00  0.00     0.265 C 
HETATM   25  O   UNL     1      42.900 -11.874  12.251  1.00  0.00    -0.267 OA
HETATM   26  H   UNL     1      42.849  -9.644  10.002  1.00  0.00     0.169 HD
BRANCH  24  27
HETATM   27  C   UNL     1      41.656  -9.823  12.157  1.00  0.00     0.097 C 
HETATM   28  C   UNL     1      41.920  -9.091  13.267  1.00  0.00     0.064 C 
HETATM   29  C   UNL     1      43.241  -9.110  13.994  1.00  0.00     0.078 C 
HETATM   30  O   UNL     1      41.047  -8.193  13.863  1.00  0.00    -0.353 OA
HETATM   31  C   UNL     1      39.664  -8.335  13.539  1.00  0.00     0.185 C 
HETATM   32  C   UNL     1      39.441  -8.228  12.046  1.00  0.00     0.106 C 
HETATM   33  S   UNL     1      40.159  -9.687  11.254  1.00  0.00    -0.120 SA
ENDBRANCH  24  27
ENDBRANCH   1  23
TORSDOF 8
ENDMDL
MODEL 5
REMARK VINA RESULT:      -8.0      3.023      4.369
REMARK  8 active torsions:
REMARK  status: ('A' for Active; 'I' for Inactive)
REMARK    1  A    between atoms: C_7  and  C_8 
REMARK       I    between atoms: C_8  and  N_9 
REMARK    2  A    between atoms: N_9  and  C_10 
REMARK    3  A    between atoms: C_12  and  C_13 
REMARK       I    between atoms: C_13  and  N_14 
REMARK    4  A    between atoms: N_14  and  C_15 
REMARK    5  A    between atoms: C_15  and  C_16 
REMARK    6  A    between atoms: C_16  and  C_17 
REMARK    7  A    between atoms: C_18  and  O_19 
REMARK    8  A    between atoms: C_23  and  O_24 
ROOT
HETATM    1  C   UNL     1      41.122 -12.049   6.188  1.00  0.00     0.035 A 
HETATM    2  C   UNL     1      42.088 -12.860   5.586  1.00  0.00     0.046 A 
HETATM    3  C   UNL     1      42.023 -13.133   4.211  1.00  0.00     0.034 A 
HETATM    4  C   UNL     1      40.978 -12.613   3.441  1.00  0.00     0.017 A 
HETATM    5  C   UNL     1      40.019 -11.796   4.034  1.00  0.00     0.003 A 
HETATM    6  C   UNL     1      40.096 -11.512   5.399  1.00  0.00     0.029 A 
ENDROOT
BRANCH   3   7
HETATM    7  C   UNL     1      43.023 -14.008   3.548  1.00  0.00     0.251 C 
HETATM    8  N   UNL     1      42.539 -15.166   2.980  1.00  0.00    -0.357 N 
HETATM    9  H   UNL     1      41.549 -15.375   3.025  1.00  0.00     0.162 HD
HETATM   10  O   UNL     1      44.207 -13.691   3.549  1.00  0.00    -0.268 OA
BRANCH   8  11
HETATM   11  C   UNL     1      43.389 -16.039   2.190  1.00  0.00     0.127 C 
BRANCH  11  12
HETATM   12  C   UNL     1      43.023 -17.521   2.326  1.00  0.00     0.061 C 
BRANCH  12  13
HETATM   13  C   UNL     1      43.711 -18.350   3.400  1.00  0.00    -0.021 A 
HETATM   14  C   UNL     1      44.017 -19.701   3.121  1.00  0.00     0.074 A 
HETATM   15  C   UNL     1      44.651 -20.485   4.088  1.00  0.00     0.040 A 
HETATM   16  C   UNL     1      44.963 -19.946   5.336  1.00  0.00     0.039 A 
HETATM   17  C   UNL     1      44.643 -18.626   5.641  1.00  0.00     0.068 A 
HETATM   18  C   UNL     1      44.012 -17.835   4.677  1.00  0.00     0.046 A 
BRANCH  14  19
HETATM   19  O   UNL     1      43.660 -20.149   1.875  1.00  0.00    -0.355 OA
HETATM   20  C   UNL     1      43.624 -21.557   1.672  1.00  0.00     0.210 C 
ENDBRANCH  14  19
BRANCH  17  21
HETATM   21  O   UNL     1      44.995 -18.233   6.903  1.00  0.00    -0.356 OA
HETATM   22  C   UNL     1      44.136 -18.629   7.965  1.00  0.00     0.210 C 
ENDBRANCH  17  21
ENDBRANCH  12  13
ENDBRANCH  11  12
ENDBRANCH   8  11
ENDBRANCH   3   7
BRANCH   1  23
HETATM   23  N   UNL     1      41.105 -11.736   7.561  1.00  0.00    -0.322 N 
HETATM   24  C   UNL     1      41.614 -10.615   8.191  1.00  0.00     0.265 C 
HETATM   25  O   UNL     1      42.193  -9.692   7.628  1.00  0.00    -0.267 OA
HETATM   26  H   UNL     1      40.716 -12.437   8.184  1.00  0.00     0.169 HD
BRANCH  24  27
HETATM   27  C   UNL     1      41.422 -10.622   9.702  1.00  0.00     0.097 C 
HETATM   28  C   UNL     1      42.408 -11.040  10.532  1.00  0.00     0.064 C 
HETATM   29  C   UNL     1      43.799 -11.401  10.073  1.00  0.00     0.078 C 
HETATM   30  O   UNL     1      42.305 -11.152  11.911  1.00  0.00    -0.353 OA
HETATM   31  C   UNL     1      40.984 -11.215  12.449  1.00  0.00     0.185 C 
HETATM   32  C   UNL     1      40.175 -10.001  12.051  1.00  0.00     0.106 C 
HETATM   33  S   UNL     1      39.854 -10.084  10.273  1.00  0.00    -0.120 SA
ENDBRANCH  24  27
ENDBRANCH   1  23
TORSDOF 8
ENDMDL
MODEL 6
REMARK VINA RESULT:      -7.9      4.737      9.501
REMARK  8 active torsions:
REMARK  status: ('A' for Active; 'I' for Inactive)
REMARK    1  A    between atoms: C_7  and  C_8 
REMARK       I    between atoms: C_8  and  N_9 
REMARK    2  A    between atoms: N_9  and  C_10 
REMARK    3  A    between atoms: C_12  and  C_13 
REMARK       I    between atoms: C_13  and  N_14 
REMARK    4  A    between atoms: N_14  and  C_15 
REMARK    5  A    between atoms: C_15  and  C_16 
REMARK    6  A    between atoms: C_16  and  C_17 
REMARK    7  A    between atoms: C_18  and  O_19 
REMARK    8  A    between atoms: C_23  and  O_24 
ROOT
HETATM    1  C   UNL     1      43.269 -17.432   1.747  1.00  0.00     0.035 A 
HETATM    2  C   UNL     1      43.361 -17.521   3.139  1.00  0.00     0.046 A 
HETATM    3  C   UNL     1      43.730 -18.731   3.747  1.00  0.00     0.034 A 
HETATM    4  C   UNL     1      43.986 -19.860   2.963  1.00  0.00     0.017 A 
HETATM    5  C   UNL     1      43.905 -19.775   1.575  1.00  0.00     0.003 A 
HETATM    6  C   UNL     1      43.554 -18.564   0.973  1.00  0.00     0.029 A 
ENDROOT
BRANCH   3   7
HETATM    7  C   UNL     1      43.816 -18.861   5.223  1.00  0.00     0.251 C 
HETATM    8  N   UNL     1      44.624 -17.951   5.870  1.00  0.00    -0.357 N 
HETATM    9  H   UNL     1      45.112 -17.242   5.338  1.00  0.00     0.162 HD
HETATM   10  O   UNL     1      43.205 -19.758   5.793  1.00  0.00    -0.268 OA
BRANCH   8  11
HETATM   11  C   UNL     1      44.689 -17.888   7.320  1.00  0.00     0.127 C 
BRANCH  11  12
HETATM   12  C   UNL     1      43.753 -16.833   7.919  1.00  0.00     0.061 C 
BRANCH  12  13
HETATM   13  C   UNL     1      43.140 -15.790   6.998  1.00  0.00    -0.021 A 
HETATM   14  C   UNL     1      43.790 -14.543   6.859  1.00  0.00     0.074 A 
HETATM   15  C   UNL     1      43.251 -13.567   6.018  1.00  0.00     0.040 A 
HETATM   16  C   UNL     1      42.061 -13.809   5.331  1.00  0.00     0.039 A 
HETATM   17  C   UNL     1      41.390 -15.020   5.479  1.00  0.00     0.068 A 
HETATM   18  C   UNL     1      41.926 -16.002   6.316  1.00  0.00     0.046 A 
BRANCH  14  19
HETATM   19  O   UNL     1      44.945 -14.387   7.582  1.00  0.00    -0.355 OA
HETATM   20  C   UNL     1      45.280 -13.070   8.003  1.00  0.00     0.210 C 
ENDBRANCH  14  19
BRANCH  17  21
HETATM   21  O   UNL     1      40.231 -15.118   4.759  1.00  0.00    -0.356 OA
HETATM   22  C   UNL     1      39.778 -13.942   4.100  1.00  0.00     0.210 C 
ENDBRANCH  17  21
ENDBRANCH  12  13
ENDBRANCH  11  12
ENDBRANCH   8  11
ENDBRANCH   3   7
BRANCH   1  23
HETATM   23  N   UNL     1      42.893 -16.262   1.058  1.00  0.00    -0.322 N 
HETATM   24  C   UNL     1      41.629 -15.721   0.916  1.00  0.00     0.265 C 
HETATM   25  O   UNL     1      40.599 -16.204   1.376  1.00  0.00    -0.267 OA
HETATM   26  H   UNL     1      43.627 -15.773   0.556  1.00  0.00     0.169 HD
BRANCH  24  27
HETATM   27  C   UNL     1      41.601 -14.443   0.088  1.00  0.00     0.097 C 
HETATM   28  C   UNL     1      41.366 -14.478  -1.247  1.00  0.00     0.064 C 
HETATM   29  C   UNL     1      40.986 -15.726  -2.003  1.00  0.00     0.078 C 
HETATM   30  O   UNL     1      41.392 -13.381  -2.096  1.00  0.00    -0.353 OA
HETATM   31  C   UNL     1      42.088 -12.226  -1.627  1.00  0.00     0.185 C 
HETATM   32  C   UNL     1      41.517 -11.743  -0.313  1.00  0.00     0.106 C 
HETATM   33  S   UNL     1      41.913 -12.958   0.967  1.00  0.00    -0.120 SA
ENDBRANCH  24  27
ENDBRANCH   1  23
TORSDOF 8
ENDMDL
MODEL 7
REMARK VINA RESULT:      -7.9      1.811      2.242
REMARK  8 active torsions:
REMARK  status: ('A' for Active; 'I' for Inactive)
REMARK    1  A    between atoms: C_7  and  C_8 
REMARK       I    between atoms: C_8  and  N_9 
REMARK    2  A    between atoms: N_9  and  C_10 
REMARK    3  A    between atoms: C_12  and  C_13 
REMARK       I    between atoms: C_13  and  N_14 
REMARK    4  A    between atoms: N_14  and  C_15 
REMARK    5  A    between atoms: C_15  and  C_16 
REMARK    6  A    between atoms: C_16  and  C_17 
REMARK    7  A    between atoms: C_18  and  O_19 
REMARK    8  A    between atoms: C_23  and  O_24 
ROOT
HETATM    1  C   UNL     1      43.479 -10.847   9.980  1.00  0.00     0.035 A 
HETATM    2  C   UNL     1      43.502 -11.720   8.889  1.00  0.00     0.046 A 
HETATM    3  C   UNL     1      44.687 -12.389   8.546  1.00  0.00     0.034 A 
HETATM    4  C   UNL     1      45.856 -12.168   9.280  1.00  0.00     0.017 A 
HETATM    5  C   UNL     1      45.836 -11.306  10.374  1.00  0.00     0.003 A 
HETATM    6  C   UNL     1      44.651 -10.655  10.724  1.00  0.00     0.029 A 
ENDROOT
BRANCH   3   7
HETATM    7  C   UNL     1      44.748 -13.307   7.380  1.00  0.00     0.251 C 
HETATM    8  N   UNL     1      43.561 -13.897   7.005  1.00  0.00    -0.357 N 
HETATM    9  H   UNL     1      42.711 -13.689   7.514  1.00  0.00     0.162 HD
HETATM   10  O   UNL     1      45.821 -13.518   6.826  1.00  0.00    -0.268 OA
BRANCH   8  11
HETATM   11  C   UNL     1      43.461 -14.709   5.805  1.00  0.00     0.127 C 
BRANCH  11  12
HETATM   12  C   UNL     1      43.306 -16.204   6.101  1.00  0.00     0.061 C 
BRANCH  12  13
HETATM   13  C   UNL     1      43.563 -17.204   4.985  1.00  0.00    -0.021 A 
HETATM   14  C   UNL     1      44.028 -18.495   5.324  1.00  0.00     0.074 A 
HETATM   15  C   UNL     1      44.269 -19.434   4.319  1.00  0.00     0.040 A 
HETATM   16  C   UNL     1      44.075 -19.097   2.979  1.00  0.00     0.039 A 
HETATM   17  C   UNL     1      43.646 -17.820   2.623  1.00  0.00     0.068 A 
HETATM   18  C   UNL     1      43.399 -16.878   3.623  1.00  0.00     0.046 A 
BRANCH  14  19
HETATM   19  O   UNL     1      44.205 -18.733   6.663  1.00  0.00    -0.355 OA
HETATM   20  C   UNL     1      43.735 -19.975   7.174  1.00  0.00     0.210 C 
ENDBRANCH  14  19
BRANCH  17  21
HETATM   21  O   UNL     1      43.510 -17.623   1.276  1.00  0.00    -0.356 OA
HETATM   22  C   UNL     1      42.377 -16.879   0.844  1.00  0.00     0.210 C 
ENDBRANCH  17  21
ENDBRANCH  12  13
ENDBRANCH  11  12
ENDBRANCH   8  11
ENDBRANCH   3   7
BRANCH   1  23
HETATM   23  N   UNL     1      42.338 -10.126  10.384  1.00  0.00    -0.322 N 
HETATM   24  C   UNL     1      41.440 -10.438  11.388  1.00  0.00     0.265 C 
HETATM   25  O   UNL     1      41.494 -11.436  12.099  1.00  0.00    -0.267 OA
HETATM   26  H   UNL     1      42.108  -9.297   9.845  1.00  0.00     0.169 HD
BRANCH  24  27
HETATM   27  C   UNL     1      40.312  -9.424  11.536  1.00  0.00     0.097 C 
HETATM   28  C   UNL     1      40.329  -8.496  12.524  1.00  0.00     0.064 C 
HETATM   29  C   UNL     1      41.489  -8.289  13.465  1.00  0.00     0.078 C 
HETATM   30  O   UNL     1      39.320  -7.581  12.785  1.00  0.00    -0.353 OA
HETATM   31  C   UNL     1      38.030  -7.883  12.251  1.00  0.00     0.185 C 
HETATM   32  C   UNL     1      38.088  -8.048  10.748  1.00  0.00     0.106 C 
HETATM   33  S   UNL     1      39.008  -9.560  10.372  1.00  0.00    -0.120 SA
ENDBRANCH  24  27
ENDBRANCH   1  23
TORSDOF 8
ENDMDL
MODEL 8
REMARK VINA RESULT:      -7.8      3.693     10.791
REMARK  8 active torsions:
REMARK  status: ('A' for Active; 'I' for Inactive)
REMARK    1  A    between atoms: C_7  and  C_8 
REMARK       I    between atoms: C_8  and  N_9 
REMARK    2  A    between atoms: N_9  and  C_10 
REMARK    3  A    between atoms: C_12  and  C_13 
REMARK       I    between atoms: C_13  and  N_14 
REMARK    4  A    between atoms: N_14  and  C_15 
REMARK    5  A    between atoms: C_15  and  C_16 
REMARK    6  A    between atoms: C_16  and  C_17 
REMARK    7  A    between atoms: C_18  and  O_19 
REMARK    8  A    between atoms: C_23  and  O_24 
ROOT
HETATM    1  C   UNL     1      41.954 -14.586   3.924  1.00  0.00     0.035 A 
HETATM    2  C   UNL     1      41.420 -13.988   5.069  1.00  0.00     0.046 A 
HETATM    3  C   UNL     1      40.777 -12.744   4.981  1.00  0.00     0.034 A 
HETATM    4  C   UNL     1      40.689 -12.085   3.750  1.00  0.00     0.017 A 
HETATM    5  C   UNL     1      41.211 -12.681   2.605  1.00  0.00     0.003 A 
HETATM    6  C   UNL     1      41.835 -13.928   2.693  1.00  0.00     0.029 A 
ENDROOT
BRANCH   3   7
HETATM    7  C   UNL     1      40.218 -12.074   6.183  1.00  0.00     0.251 C 
HETATM    8  N   UNL     1      41.128 -11.665   7.132  1.00  0.00    -0.357 N 
HETATM    9  H   UNL     1      42.117 -11.822   6.984  1.00  0.00     0.162 HD
HETATM   10  O   UNL     1      39.005 -11.936   6.294  1.00  0.00    -0.268 OA
BRANCH   8  11
HETATM   11  C   UNL     1      40.723 -10.883   8.287  1.00  0.00     0.127 C 
BRANCH  11  12
HETATM   12  C   UNL     1      41.788  -9.878   8.738  1.00  0.00     0.061 C 
BRANCH  12  13
HETATM   13  C   UNL     1      42.323  -9.964  10.159  1.00  0.00    -0.021 A 
HETATM   14  C   UNL     1      43.657 -10.385  10.357  1.00  0.00     0.074 A 
HETATM   15  C   UNL     1      44.176 -10.471  11.651  1.00  0.00     0.040 A 
HETATM   16  C   UNL     1      43.375 -10.162  12.751  1.00  0.00     0.039 A 
HETATM   17  C   UNL     1      42.049  -9.773  12.578  1.00  0.00     0.068 A 
HETATM   18  C   UNL     1      41.526  -9.683  11.286  1.00  0.00     0.046 A 
BRANCH  14  19
HETATM   19  O   UNL     1      44.365 -10.683   9.220  1.00  0.00    -0.355 OA
HETATM   20  C   UNL     1      44.739 -12.040   9.019  1.00  0.00     0.210 C 
ENDBRANCH  14  19
BRANCH  17  21
HETATM   21  O   UNL     1      41.377  -9.513  13.741  1.00  0.00    -0.356 OA
HETATM   22  C   UNL     1      41.942 -10.025  14.941  1.00  0.00     0.210 C 
ENDBRANCH  17  21
ENDBRANCH  12  13
ENDBRANCH  11  12
ENDBRANCH   8  11
ENDBRANCH   3   7
BRANCH   1  23
HETATM   23  N   UNL     1      42.625 -15.824   3.926  1.00  0.00    -0.322 N 
HETATM   24  C   UNL     1      42.113 -17.077   3.642  1.00  0.00     0.265 C 
HETATM   25  O   UNL     1      40.945 -17.311   3.347  1.00  0.00    -0.267 OA
HETATM   26  H   UNL     1      43.597 -15.816   4.220  1.00  0.00     0.169 HD
BRANCH  24  27
HETATM   27  C   UNL     1      43.139 -18.197   3.756  1.00  0.00     0.097 C 
HETATM   28  C   UNL     1      43.808 -18.648   2.666  1.00  0.00     0.064 C 
HETATM   29  C   UNL     1      43.712 -18.018   1.299  1.00  0.00     0.078 C 
HETATM   30  O   UNL     1      44.703 -19.707   2.654  1.00  0.00    -0.353 OA
HETATM   31  C   UNL     1      44.621 -20.625   3.744  1.00  0.00     0.185 C 
HETATM   32  C   UNL     1      44.807 -19.916   5.068  1.00  0.00     0.106 C 
HETATM   33  S   UNL     1      43.365 -18.864   5.361  1.00  0.00    -0.120 SA
ENDBRANCH  24  27
ENDBRANCH   1  23
TORSDOF 8
ENDMDL
MODEL 9
REMARK VINA RESULT:      -7.8      6.073      8.698
REMARK  8 active torsions:
REMARK  status: ('A' for Active; 'I' for Inactive)
REMARK    1  A    between atoms: C_7  and  C_8 
REMARK       I    between atoms: C_8  and  N_9 
REMARK    2  A    between atoms: N_9  and  C_10 
REMARK    3  A    between atoms: C_12  and  C_13 
REMARK       I    between atoms: C_13  and  N_14 
REMARK    4  A    between atoms: N_14  and  C_15 
REMARK    5  A    between atoms: C_15  and  C_16 
REMARK    6  A    between atoms: C_16  and  C_17 
REMARK    7  A    between atoms: C_18  and  O_19 
REMARK    8  A    between atoms: C_23  and  O_24 
ROOT
HETATM    1  C   UNL     1      40.230 -13.704   3.097  1.00  0.00     0.035 A 
HETATM    2  C   UNL     1      40.676 -14.866   3.732  1.00  0.00     0.046 A 
HETATM    3  C   UNL     1      40.643 -14.962   5.132  1.00  0.00     0.034 A 
HETATM    4  C   UNL     1      40.185 -13.886   5.899  1.00  0.00     0.017 A 
HETATM    5  C   UNL     1      39.731 -12.730   5.270  1.00  0.00     0.003 A 
HETATM    6  C   UNL     1      39.748 -12.644   3.877  1.00  0.00     0.029 A 
ENDROOT
BRANCH   3   7
HETATM    7  C   UNL     1      41.129 -16.176   5.836  1.00  0.00     0.251 C 
HETATM    8  N   UNL     1      42.483 -16.422   5.765  1.00  0.00    -0.357 N 
HETATM    9  H   UNL     1      43.085 -15.786   5.257  1.00  0.00     0.162 HD
HETATM   10  O   UNL     1      40.332 -16.904   6.417  1.00  0.00    -0.268 OA
BRANCH   8  11
HETATM   11  C   UNL     1      43.100 -17.500   6.518  1.00  0.00     0.127 C 
BRANCH  11  12
HETATM   12  C   UNL     1      44.329 -18.093   5.820  1.00  0.00     0.061 C 
BRANCH  12  13
HETATM   13  C   UNL     1      44.168 -18.686   4.429  1.00  0.00    -0.021 A 
HETATM   14  C   UNL     1      44.374 -20.073   4.255  1.00  0.00     0.074 A 
HETATM   15  C   UNL     1      44.229 -20.646   2.989  1.00  0.00     0.040 A 
HETATM   16  C   UNL     1      43.904 -19.850   1.891  1.00  0.00     0.039 A 
HETATM   17  C   UNL     1      43.726 -18.476   2.036  1.00  0.00     0.068 A 
HETATM   18  C   UNL     1      43.866 -17.898   3.300  1.00  0.00     0.046 A 
BRANCH  14  19
HETATM   19  O   UNL     1      44.705 -20.774   5.387  1.00  0.00    -0.355 OA
HETATM   20  C   UNL     1      45.002 -22.157   5.235  1.00  0.00     0.210 C 
ENDBRANCH  14  19
BRANCH  17  21
HETATM   21  O   UNL     1      43.423 -17.817   0.876  1.00  0.00    -0.356 OA
HETATM   22  C   UNL     1      42.706 -16.595   0.997  1.00  0.00     0.210 C 
ENDBRANCH  17  21
ENDBRANCH  12  13
ENDBRANCH  11  12
ENDBRANCH   8  11
ENDBRANCH   3   7
BRANCH   1  23
HETATM   23  N   UNL     1      40.240 -13.519   1.701  1.00  0.00    -0.322 N 
HETATM   24  C   UNL     1      41.290 -13.110   0.899  1.00  0.00     0.265 C 
HETATM   25  O   UNL     1      42.413 -12.822   1.300  1.00  0.00    -0.267 OA
HETATM   26  H   UNL     1      39.358 -13.651   1.216  1.00  0.00     0.169 HD
BRANCH  24  27
HETATM   27  C   UNL     1      40.929 -13.011  -0.578  1.00  0.00     0.097 C 
HETATM   28  C   UNL     1      40.475 -11.851  -1.112  1.00  0.00     0.064 C 
HETATM   29  C   UNL     1      40.410 -10.545  -0.359  1.00  0.00     0.078 C 
HETATM   30  O   UNL     1      40.053 -11.680  -2.422  1.00  0.00    -0.353 OA
HETATM   31  C   UNL     1      39.699 -12.864  -3.139  1.00  0.00     0.185 C 
HETATM   32  C   UNL     1      40.853 -13.841  -3.179  1.00  0.00     0.106 C 
HETATM   33  S   UNL     1      41.117 -14.485  -1.509  1.00  0.00    -0.120 SA
ENDBRANCH  24  27
ENDBRANCH   1  23
TORSDOF 8
ENDMDL
MODEL 10
REMARK VINA RESULT:      -7.6      5.653      9.114
REMARK  8 active torsions:
REMARK  status: ('A' for Active; 'I' for Inactive)
REMARK    1  A    between atoms: C_7  and  C_8 
REMARK       I    between atoms: C_8  and  N_9 
REMARK    2  A    between atoms: N_9  and  C_10 
REMARK    3  A    between atoms: C_12  and  C_13 
REMARK       I    between atoms: C_13  and  N_14 
REMARK    4  A    between atoms: N_14  and  C_15 
REMARK    5  A    between atoms: C_15  and  C_16 
REMARK    6  A    between atoms: C_16  and  C_17 
REMARK    7  A    between atoms: C_18  and  O_19 
REMARK    8  A    between atoms: C_23  and  O_24 
ROOT
HETATM    1  C   UNL     1      40.376 -13.461   3.011  1.00  0.00     0.035 A 
HETATM    2  C   UNL     1      41.257 -14.279   3.724  1.00  0.00     0.046 A 
HETATM    3  C   UNL     1      41.277 -14.242   5.127  1.00  0.00     0.034 A 
HETATM    4  C   UNL     1      40.431 -13.368   5.818  1.00  0.00     0.017 A 
HETATM    5  C   UNL     1      39.545 -12.558   5.113  1.00  0.00     0.003 A 
HETATM    6  C   UNL     1      39.515 -12.610   3.717  1.00  0.00     0.029 A 
ENDROOT
BRANCH   3   7
HETATM    7  C   UNL     1      42.216 -15.084   5.910  1.00  0.00     0.251 C 
HETATM    8  N   UNL     1      41.957 -16.437   5.922  1.00  0.00    -0.357 N 
HETATM    9  H   UNL     1      41.165 -16.804   5.409  1.00  0.00     0.162 HD
HETATM   10  O   UNL     1      43.143 -14.560   6.517  1.00  0.00    -0.268 OA
BRANCH   8  11
HETATM   11  C   UNL     1      42.872 -17.381   6.540  1.00  0.00     0.127 C 
BRANCH  11  12
HETATM   12  C   UNL     1      44.165 -17.575   5.741  1.00  0.00     0.061 C 
BRANCH  12  13
HETATM   13  C   UNL     1      44.190 -18.610   4.626  1.00  0.00    -0.021 A 
HETATM   14  C   UNL     1      43.846 -18.204   3.317  1.00  0.00     0.074 A 
HETATM   15  C   UNL     1      43.863 -19.132   2.273  1.00  0.00     0.040 A 
HETATM   16  C   UNL     1      44.196 -20.464   2.522  1.00  0.00     0.039 A 
HETATM   17  C   UNL     1      44.509 -20.890   3.811  1.00  0.00     0.068 A 
HETATM   18  C   UNL     1      44.497 -19.966   4.858  1.00  0.00     0.046 A 
BRANCH  14  19
HETATM   19  O   UNL     1      43.518 -16.881   3.168  1.00  0.00    -0.355 OA
HETATM   20  C   UNL     1      43.666 -16.312   1.873  1.00  0.00     0.210 C 
ENDBRANCH  14  19
BRANCH  17  21
HETATM   21  O   UNL     1      44.803 -22.222   3.913  1.00  0.00    -0.356 OA
HETATM   22  C   UNL     1      45.258 -22.687   5.177  1.00  0.00     0.210 C 
ENDBRANCH  17  21
ENDBRANCH  12  13
ENDBRANCH  11  12
ENDBRANCH   8  11
ENDBRANCH   3   7
BRANCH   1  23
HETATM   23  N   UNL     1      40.300 -13.427   1.605  1.00  0.00    -0.322 N 
HETATM   24  C   UNL     1      41.272 -13.034   0.704  1.00  0.00     0.265 C 
HETATM   25  O   UNL     1      42.390 -12.628   1.005  1.00  0.00    -0.267 OA
HETATM   26  H   UNL     1      39.406 -13.670   1.191  1.00  0.00     0.169 HD
BRANCH  24  27
HETATM   27  C   UNL     1      40.828 -13.119  -0.751  1.00  0.00     0.097 C 
HETATM   28  C   UNL     1      40.871 -14.292  -1.429  1.00  0.00     0.064 C 
HETATM   29  C   UNL     1      41.221 -15.617  -0.800  1.00  0.00     0.078 C 
HETATM   30  O   UNL     1      40.559 -14.456  -2.770  1.00  0.00    -0.353 OA
HETATM   31  C   UNL     1      40.579 -13.280  -3.580  1.00  0.00     0.185 C 
HETATM   32  C   UNL     1      39.632 -12.231  -3.040  1.00  0.00     0.106 C 
HETATM   33  S   UNL     1      40.293 -11.614  -1.473  1.00  0.00    -0.120 SA
ENDBRANCH  24  27
ENDBRANCH   1  23
TORSDOF 8
ENDMDL
