MODEL 1
REMARK VINA RESULT:      -9.0      0.000      0.000
REMARK  10 active torsions:
REMARK  status: ('A' for Active; 'I' for Inactive)
REMARK    1  A    between atoms: N_2  and  C_4 
REMARK    2  A    between atoms: C_4  and  C_5 
REMARK    3  A    between atoms: N_6  and  C_7 
REMARK    4  A    between atoms: C_11  and  N_12 
REMARK    5  A    between atoms: C_15  and  C_16 
REMARK       I    between atoms: C_16  and  N_17 
REMARK    6  A    between atoms: N_17  and  N_18 
REMARK    7  A    between atoms: C_19  and  C_20 
REMARK    8  A    between atoms: C_23  and  O_24 
REMARK    9  A    between atoms: O_24  and  C_25 
REMARK   10  A    between atoms: C_25  and  C_26 
ROOT
HETATM    1  C   UNL     1      40.957 -11.251   6.437  1.00  0.00     0.293 C 
HETATM    2  N   UNL     1      41.373 -12.543   6.716  1.00  0.00    -0.242 N 
HETATM    3  O   UNL     1      41.100 -10.645   5.379  1.00  0.00    -0.264 OA
HETATM    4  H   UNL     1      41.037 -12.970   7.579  1.00  0.00     0.192 HD
ENDROOT
BRANCH   1   5
HETATM    5  C   UNL     1      40.289 -10.597   7.559  1.00  0.00     0.170 A 
HETATM    6  C   UNL     1      40.874 -10.140   8.732  1.00  0.00     0.096 A 
HETATM    7  N   UNL     1      39.803  -9.674   9.492  1.00  0.00    -0.215 N 
HETATM    8  N   UNL     1      38.672  -9.753   8.745  1.00  0.00     0.012 NA
HETATM    9  N   UNL     1      38.951 -10.337   7.593  1.00  0.00    -0.152 NA
BRANCH   6  10
HETATM   10  C   UNL     1      42.302 -10.046   9.116  1.00  0.00     0.295 C 
BRANCH  10  11
HETATM   11  N   UNL     1      42.903 -11.320   9.654  1.00  0.00    -0.073 N 
HETATM   12  C   UNL     1      43.156 -11.215  11.135  1.00  0.00     0.269 C 
HETATM   13  H   UNL     1      42.187 -12.054   9.546  1.00  0.00     0.279 HD
HETATM   14  C   UNL     1      44.147 -11.757   8.932  1.00  0.00     0.269 C 
ENDBRANCH  10  11
ENDBRANCH   6  10
BRANCH   7  15
HETATM   15  C   UNL     1      39.799  -9.238  10.839  1.00  0.00     0.225 A 
HETATM   16  N   UNL     1      39.932  -7.937  11.118  1.00  0.00    -0.081 NA
HETATM   17  O   UNL     1      39.907  -7.898  12.517  1.00  0.00    -0.103 OA
HETATM   18  N   UNL     1      39.791  -9.172  13.052  1.00  0.00    -0.083 NA
HETATM   19  C   UNL     1      39.727 -10.003  12.015  1.00  0.00     0.201 A 
BRANCH  19  20
HETATM   20  N   UNL     1      39.608 -11.336  12.112  1.00  0.00    -0.379 N 
HETATM   21  H   UNL     1      39.500 -11.778  13.020  1.00  0.00     0.158 HD
HETATM   22  H   UNL     1      39.780 -11.981  11.343  1.00  0.00     0.158 HD
ENDBRANCH  19  20
ENDBRANCH   7  15
ENDBRANCH   1   5
BRANCH   2  23
HETATM   23  N   UNL     1      41.841 -13.451   5.800  1.00  0.00    -0.184 NA
HETATM   24  C   UNL     1      41.111 -14.483   5.513  1.00  0.00     0.150 C 
BRANCH  24  25
HETATM   25  C   UNL     1      41.583 -15.547   4.605  1.00  0.00    -0.017 A 
HETATM   26  C   UNL     1      42.385 -15.257   3.499  1.00  0.00     0.016 A 
HETATM   27  C   UNL     1      42.838 -16.292   2.672  1.00  0.00     0.037 A 
HETATM   28  C   UNL     1      42.497 -17.616   2.956  1.00  0.00     0.069 A 
HETATM   29  C   UNL     1      41.686 -17.894   4.061  1.00  0.00     0.037 A 
HETATM   30  C   UNL     1      41.226 -16.867   4.885  1.00  0.00     0.016 A 
BRANCH  28  31
HETATM   31  O   UNL     1      42.880 -18.719   2.249  1.00  0.00    -0.347 OA
BRANCH  31  32
HETATM   32  C   UNL     1      44.269 -19.041   2.232  1.00  0.00     0.219 C 
BRANCH  32  33
HETATM   33  C   UNL     1      44.470 -20.251   3.102  1.00  0.00     0.026 A 
HETATM   34  C   UNL     1      44.707 -20.165   4.482  1.00  0.00     0.045 A 
HETATM   35 CL   UNL     1      44.821 -18.642   5.292  1.00  0.00    -0.084 Cl
HETATM   36  C   UNL     1      44.863 -21.322   5.255  1.00  0.00     0.024 A 
HETATM   37  C   UNL     1      44.776 -22.582   4.663  1.00  0.00     0.005 A 
HETATM   38  C   UNL     1      44.531 -22.683   3.297  1.00  0.00     0.043 A 
HETATM   39  C   UNL     1      44.378 -21.526   2.535  1.00  0.00     0.126 A 
HETATM   40  F   UNL     1      44.141 -21.658   1.222  1.00  0.00    -0.205 F 
ENDBRANCH  32  33
ENDBRANCH  31  32
ENDBRANCH  28  31
ENDBRANCH  24  25
ENDBRANCH   2  23
TORSDOF 10
ENDMDL
MODEL 2
REMARK VINA RESULT:      -7.9      4.391      5.746
REMARK  10 active torsions:
REMARK  status: ('A' for Active; 'I' for Inactive)
REMARK    1  A    between atoms: N_2  and  C_4 
REMARK    2  A    between atoms: C_4  and  C_5 
REMARK    3  A    between atoms: N_6  and  C_7 
REMARK    4  A    between atoms: C_11  and  N_12 
REMARK    5  A    between atoms: C_15  and  C_16 
REMARK       I    between atoms: C_16  and  N_17 
REMARK    6  A    between atoms: N_17  and  N_18 
REMARK    7  A    between atoms: C_19  and  C_20 
REMARK    8  A    between atoms: C_23  and  O_24 
REMARK    9  A    between atoms: O_24  and  C_25 
REMARK   10  A    between atoms: C_25  and  C_26 
ROOT
HETATM    1  C   UNL     1      41.263 -11.193   6.856  1.00  0.00     0.293 C 
HETATM    2  N   UNL     1      41.334 -12.554   6.605  1.00  0.00    -0.242 N 
HETATM    3  O   UNL     1      41.543 -10.286   6.078  1.00  0.00    -0.264 OA
HETATM    4  H   UNL     1      40.913 -13.183   7.288  1.00  0.00     0.192 HD
ENDROOT
BRANCH   1   5
HETATM    5  C   UNL     1      40.805 -10.872   8.205  1.00  0.00     0.170 A 
HETATM    6  C   UNL     1      41.584 -10.736   9.345  1.00  0.00     0.096 A 
HETATM    7  N   UNL     1      40.664 -10.505  10.367  1.00  0.00    -0.215 N 
HETATM    8  N   UNL     1      39.426 -10.399   9.820  1.00  0.00     0.012 NA
HETATM    9  N   UNL     1      39.497 -10.650   8.524  1.00  0.00    -0.152 NA
BRANCH   6  10
HETATM   10  C   UNL     1      43.058 -10.727   9.502  1.00  0.00     0.295 C 
BRANCH  10  11
HETATM   11  N   UNL     1      43.680 -12.075   9.762  1.00  0.00    -0.073 N 
HETATM   12  C   UNL     1      44.119 -12.201  11.197  1.00  0.00     0.269 C 
HETATM   13  H   UNL     1      42.933 -12.775   9.638  1.00  0.00     0.279 HD
HETATM   14  C   UNL     1      44.809 -12.412   8.829  1.00  0.00     0.269 C 
ENDBRANCH  10  11
ENDBRANCH   6  10
BRANCH   7  15
HETATM   15  C   UNL     1      40.890 -10.444  11.762  1.00  0.00     0.225 A 
HETATM   16  N   UNL     1      41.614  -9.444  12.277  1.00  0.00    -0.081 NA
HETATM   17  O   UNL     1      41.639  -9.729  13.647  1.00  0.00    -0.103 OA
HETATM   18  N   UNL     1      40.960 -10.905  13.927  1.00  0.00    -0.083 NA
HETATM   19  C   UNL     1      40.497 -11.351  12.761  1.00  0.00     0.201 A 
BRANCH  19  20
HETATM   20  N   UNL     1      39.779 -12.473  12.604  1.00  0.00    -0.379 N 
HETATM   21  H   UNL     1      40.213 -13.312  12.229  1.00  0.00     0.158 HD
HETATM   22  H   UNL     1      38.765 -12.516  12.680  1.00  0.00     0.158 HD
ENDBRANCH  19  20
ENDBRANCH   7  15
ENDBRANCH   1   5
BRANCH   2  23
HETATM   23  N   UNL     1      41.538 -13.134   5.378  1.00  0.00    -0.184 NA
HETATM   24  C   UNL     1      40.592 -13.073   4.493  1.00  0.00     0.150 C 
BRANCH  24  25
HETATM   25  C   UNL     1      40.701 -13.746   3.184  1.00  0.00    -0.017 A 
HETATM   26  C   UNL     1      40.027 -14.940   2.921  1.00  0.00     0.016 A 
HETATM   27  C   UNL     1      40.131 -15.540   1.659  1.00  0.00     0.037 A 
HETATM   28  C   UNL     1      40.899 -14.940   0.660  1.00  0.00     0.069 A 
HETATM   29  C   UNL     1      41.578 -13.749   0.937  1.00  0.00     0.037 A 
HETATM   30  C   UNL     1      41.484 -13.150   2.193  1.00  0.00     0.016 A 
BRANCH  28  31
HETATM   31  O   UNL     1      41.074 -15.403  -0.612  1.00  0.00    -0.347 OA
BRANCH  31  32
HETATM   32  C   UNL     1      41.120 -14.440  -1.664  1.00  0.00     0.219 C 
BRANCH  32  33
HETATM   33  C   UNL     1      39.814 -14.508  -2.405  1.00  0.00     0.026 A 
HETATM   34  C   UNL     1      38.792 -13.563  -2.233  1.00  0.00     0.045 A 
HETATM   35 CL   UNL     1      38.945 -12.249  -1.120  1.00  0.00    -0.084 Cl
HETATM   36  C   UNL     1      37.601 -13.655  -2.966  1.00  0.00     0.024 A 
HETATM   37  C   UNL     1      37.418 -14.687  -3.885  1.00  0.00     0.005 A 
HETATM   38  C   UNL     1      38.427 -15.627  -4.072  1.00  0.00     0.043 A 
HETATM   39  C   UNL     1      39.608 -15.528  -3.339  1.00  0.00     0.126 A 
HETATM   40  F   UNL     1      40.562 -16.448  -3.544  1.00  0.00    -0.205 F 
ENDBRANCH  32  33
ENDBRANCH  31  32
ENDBRANCH  28  31
ENDBRANCH  24  25
ENDBRANCH   2  23
TORSDOF 10
ENDMDL
MODEL 3
REMARK VINA RESULT:      -7.8      5.769     11.956
REMARK  10 active torsions:
REMARK  status: ('A' for Active; 'I' for Inactive)
REMARK    1  A    between atoms: N_2  and  C_4 
REMARK    2  A    between atoms: C_4  and  C_5 
REMARK    3  A    between atoms: N_6  and  C_7 
REMARK    4  A    between atoms: C_11  and  N_12 
REMARK    5  A    between atoms: C_15  and  C_16 
REMARK       I    between atoms: C_16  and  N_17 
REMARK    6  A    between atoms: N_17  and  N_18 
REMARK    7  A    between atoms: C_19  and  C_20 
REMARK    8  A    between atoms: C_23  and  O_24 
REMARK    9  A    between atoms: O_24  and  C_25 
REMARK   10  A    between atoms: C_25  and  C_26 
ROOT
HETATM    1  C   UNL     1      42.291 -12.852   2.281  1.00  0.00     0.293 C 
HETATM    2  N   UNL     1      41.611 -11.891   3.012  1.00  0.00    -0.242 N 
HETATM    3  O   UNL     1      43.148 -13.625   2.700  1.00  0.00    -0.264 OA
HETATM    4  H   UNL     1      40.813 -11.439   2.569  1.00  0.00     0.192 HD
ENDROOT
BRANCH   1   5
HETATM    5  C   UNL     1      41.907 -12.895   0.873  1.00  0.00     0.170 A 
HETATM    6  C   UNL     1      40.946 -13.710   0.290  1.00  0.00     0.096 A 
HETATM    7  N   UNL     1      41.023 -13.416  -1.070  1.00  0.00    -0.215 N 
HETATM    8  N   UNL     1      41.904 -12.397  -1.245  1.00  0.00     0.012 NA
HETATM    9  N   UNL     1      42.464 -12.100  -0.086  1.00  0.00    -0.152 NA
BRANCH   6  10
HETATM   10  C   UNL     1      39.964 -14.628   0.914  1.00  0.00     0.295 C 
BRANCH  10  11
HETATM   11  N   UNL     1      40.464 -16.032   1.148  1.00  0.00    -0.073 N 
HETATM   12  C   UNL     1      40.747 -16.268   2.608  1.00  0.00     0.269 C 
HETATM   13  H   UNL     1      39.687 -16.667   0.909  1.00  0.00     0.279 HD
HETATM   14  C   UNL     1      41.655 -16.399   0.309  1.00  0.00     0.269 C 
ENDBRANCH  10  11
ENDBRANCH   6  10
BRANCH   7  15
HETATM   15  C   UNL     1      40.377 -14.061  -2.151  1.00  0.00     0.225 A 
HETATM   16  N   UNL     1      39.042 -14.081  -2.215  1.00  0.00    -0.081 NA
HETATM   17  O   UNL     1      38.780 -14.811  -3.379  1.00  0.00    -0.103 OA
HETATM   18  N   UNL     1      39.955 -15.242  -3.977  1.00  0.00    -0.083 NA
HETATM   19  C   UNL     1      40.945 -14.780  -3.216  1.00  0.00     0.201 A 
BRANCH  19  20
HETATM   20  N   UNL     1      42.249 -14.981  -3.458  1.00  0.00    -0.379 N 
HETATM   21  H   UNL     1      42.578 -15.886  -3.783  1.00  0.00     0.158 HD
HETATM   22  H   UNL     1      42.987 -14.334  -3.184  1.00  0.00     0.158 HD
ENDBRANCH  19  20
ENDBRANCH   7  15
ENDBRANCH   1   5
BRANCH   2  23
HETATM   23  N   UNL     1      41.626 -11.764   4.378  1.00  0.00    -0.184 NA
HETATM   24  C   UNL     1      40.534 -11.416   4.985  1.00  0.00     0.150 C 
BRANCH  24  25
HETATM   25  C   UNL     1      40.491 -11.174   6.440  1.00  0.00    -0.017 A 
HETATM   26  C   UNL     1      39.451 -11.669   7.231  1.00  0.00     0.016 A 
HETATM   27  C   UNL     1      39.453 -11.443   8.613  1.00  0.00     0.037 A 
HETATM   28  C   UNL     1      40.499 -10.733   9.204  1.00  0.00     0.069 A 
HETATM   29  C   UNL     1      41.530 -10.234   8.403  1.00  0.00     0.037 A 
HETATM   30  C   UNL     1      41.531 -10.449   7.025  1.00  0.00     0.016 A 
BRANCH  28  31
HETATM   31  O   UNL     1      40.637 -10.456  10.534  1.00  0.00    -0.347 OA
BRANCH  31  32
HETATM   32  C   UNL     1      41.012  -9.128  10.895  1.00  0.00     0.219 C 
BRANCH  32  33
HETATM   33  C   UNL     1      41.499  -9.160  12.317  1.00  0.00     0.026 A 
HETATM   34  C   UNL     1      42.809  -9.522  12.664  1.00  0.00     0.045 A 
HETATM   35 CL   UNL     1      43.968  -9.997  11.473  1.00  0.00    -0.084 Cl
HETATM   36  C   UNL     1      43.223  -9.514  14.002  1.00  0.00     0.024 A 
HETATM   37  C   UNL     1      42.338  -9.135  15.011  1.00  0.00     0.005 A 
HETATM   38  C   UNL     1      41.039  -8.763  14.680  1.00  0.00     0.043 A 
HETATM   39  C   UNL     1      40.635  -8.776  13.347  1.00  0.00     0.126 A 
HETATM   40  F   UNL     1      39.376  -8.410  13.061  1.00  0.00    -0.205 F 
ENDBRANCH  32  33
ENDBRANCH  31  32
ENDBRANCH  28  31
ENDBRANCH  24  25
ENDBRANCH   2  23
TORSDOF 10
ENDMDL
MODEL 4
REMARK VINA RESULT:      -7.8      1.662      2.186
REMARK  10 active torsions:
REMARK  status: ('A' for Active; 'I' for Inactive)
REMARK    1  A    between atoms: N_2  and  C_4 
REMARK    2  A    between atoms: C_4  and  C_5 
REMARK    3  A    between atoms: N_6  and  C_7 
REMARK    4  A    between atoms: C_11  and  N_12 
REMARK    5  A    between atoms: C_15  and  C_16 
REMARK       I    between atoms: C_16  and  N_17 
REMARK    6  A    between atoms: N_17  and  N_18 
REMARK    7  A    between atoms: C_19  and  C_20 
REMARK    8  A    between atoms: C_23  and  O_24 
REMARK    9  A    between atoms: O_24  and  C_25 
REMARK   10  A    between atoms: C_25  and  C_26 
ROOT
HETATM    1  C   UNL     1      42.066 -10.609   8.406  1.00  0.00     0.293 C 
HETATM    2  N   UNL     1      41.230 -11.401   7.634  1.00  0.00    -0.242 N 
HETATM    3  O   UNL     1      43.288 -10.692   8.487  1.00  0.00    -0.264 OA
HETATM    4  H   UNL     1      40.258 -11.108   7.541  1.00  0.00     0.192 HD
ENDROOT
BRANCH   1   5
HETATM    5  C   UNL     1      41.357  -9.595   9.182  1.00  0.00     0.170 A 
HETATM    6  C   UNL     1      40.948  -9.685  10.505  1.00  0.00     0.096 A 
HETATM    7  N   UNL     1      40.259  -8.496  10.735  1.00  0.00    -0.215 N 
HETATM    8  N   UNL     1      40.369  -7.710   9.632  1.00  0.00     0.012 NA
HETATM    9  N   UNL     1      41.000  -8.377   8.682  1.00  0.00    -0.152 NA
BRANCH   6  10
HETATM   10  C   UNL     1      41.225 -10.725  11.524  1.00  0.00     0.295 C 
BRANCH  10  11
HETATM   11  N   UNL     1      42.470 -10.500  12.343  1.00  0.00    -0.073 N 
HETATM   12  C   UNL     1      43.592 -11.389  11.877  1.00  0.00     0.269 C 
HETATM   13  H   UNL     1      42.781  -9.536  12.151  1.00  0.00     0.279 HD
HETATM   14  C   UNL     1      42.256 -10.645  13.824  1.00  0.00     0.269 C 
ENDBRANCH  10  11
ENDBRANCH   6  10
BRANCH   7  15
HETATM   15  C   UNL     1      39.499  -8.119  11.867  1.00  0.00     0.225 A 
HETATM   16  N   UNL     1      38.167  -8.237  11.844  1.00  0.00    -0.081 NA
HETATM   17  O   UNL     1      37.774  -7.756  13.098  1.00  0.00    -0.103 OA
HETATM   18  N   UNL     1      38.867  -7.331  13.838  1.00  0.00    -0.083 NA
HETATM   19  C   UNL     1      39.936  -7.552  13.076  1.00  0.00     0.201 A 
BRANCH  19  20
HETATM   20  N   UNL     1      41.199  -7.276  13.435  1.00  0.00    -0.379 N 
HETATM   21  H   UNL     1      41.978  -7.641  12.894  1.00  0.00     0.158 HD
HETATM   22  H   UNL     1      41.459  -6.850  14.322  1.00  0.00     0.158 HD
ENDBRANCH  19  20
ENDBRANCH   7  15
ENDBRANCH   1   5
BRANCH   2  23
HETATM   23  N   UNL     1      41.632 -12.288   6.668  1.00  0.00    -0.184 NA
HETATM   24  C   UNL     1      40.914 -13.346   6.454  1.00  0.00     0.150 C 
BRANCH  24  25
HETATM   25  C   UNL     1      41.325 -14.390   5.494  1.00  0.00    -0.017 A 
HETATM   26  C   UNL     1      42.309 -14.148   4.533  1.00  0.00     0.016 A 
HETATM   27  C   UNL     1      42.695 -15.167   3.654  1.00  0.00     0.037 A 
HETATM   28  C   UNL     1      42.106 -16.430   3.744  1.00  0.00     0.069 A 
HETATM   29  C   UNL     1      41.115 -16.659   4.703  1.00  0.00     0.037 A 
HETATM   30  C   UNL     1      40.721 -15.646   5.578  1.00  0.00     0.016 A 
BRANCH  28  31
HETATM   31  O   UNL     1      42.396 -17.514   2.967  1.00  0.00    -0.347 OA
BRANCH  31  32
HETATM   32  C   UNL     1      43.770 -17.770   2.681  1.00  0.00     0.219 C 
BRANCH  32  33
HETATM   33  C   UNL     1      44.128 -19.093   3.300  1.00  0.00     0.026 A 
HETATM   34  C   UNL     1      44.434 -19.237   4.661  1.00  0.00     0.045 A 
HETATM   35 CL   UNL     1      44.453 -17.884   5.738  1.00  0.00    -0.084 Cl
HETATM   36  C   UNL     1      44.737 -20.495   5.197  1.00  0.00     0.024 A 
HETATM   37  C   UNL     1      44.733 -21.627   4.384  1.00  0.00     0.005 A 
HETATM   38  C   UNL     1      44.422 -21.500   3.033  1.00  0.00     0.043 A 
HETATM   39  C   UNL     1      44.122 -20.245   2.508  1.00  0.00     0.126 A 
HETATM   40  F   UNL     1      43.825 -20.157   1.203  1.00  0.00    -0.205 F 
ENDBRANCH  32  33
ENDBRANCH  31  32
ENDBRANCH  28  31
ENDBRANCH  24  25
ENDBRANCH   2  23
TORSDOF 10
ENDMDL
MODEL 5
REMARK VINA RESULT:      -7.7      2.053      2.715
REMARK  10 active torsions:
REMARK  status: ('A' for Active; 'I' for Inactive)
REMARK    1  A    between atoms: N_2  and  C_4 
REMARK    2  A    between atoms: C_4  and  C_5 
REMARK    3  A    between atoms: N_6  and  C_7 
REMARK    4  A    between atoms: C_11  and  N_12 
REMARK    5  A    between atoms: C_15  and  C_16 
REMARK       I    between atoms: C_16  and  N_17 
REMARK    6  A    between atoms: N_17  and  N_18 
REMARK    7  A    between atoms: C_19  and  C_20 
REMARK    8  A    between atoms: C_23  and  O_24 
REMARK    9  A    between atoms: O_24  and  C_25 
REMARK   10  A    between atoms: C_25  and  C_26 
ROOT
HETATM    1  C   UNL     1      40.173  -9.994   7.701  1.00  0.00     0.293 C 
HETATM    2  N   UNL     1      41.205 -10.061   6.778  1.00  0.00    -0.242 N 
HETATM    3  O   UNL     1      39.081 -10.551   7.624  1.00  0.00    -0.264 OA
HETATM    4  H   UNL     1      42.110  -9.683   7.055  1.00  0.00     0.192 HD
ENDROOT
BRANCH   1   5
HETATM    5  C   UNL     1      40.478  -9.157   8.858  1.00  0.00     0.170 A 
HETATM    6  C   UNL     1      40.686  -9.576  10.165  1.00  0.00     0.096 A 
HETATM    7  N   UNL     1      40.861  -8.394  10.882  1.00  0.00    -0.215 N 
HETATM    8  N   UNL     1      40.869  -7.354  10.010  1.00  0.00     0.012 NA
HETATM    9  N   UNL     1      40.606  -7.801   8.794  1.00  0.00    -0.152 NA
BRANCH   6  10
HETATM   10  C   UNL     1      40.806 -10.943  10.724  1.00  0.00     0.295 C 
BRANCH  10  11
HETATM   11  N   UNL     1      42.211 -11.487  10.783  1.00  0.00    -0.073 N 
HETATM   12  C   UNL     1      42.726 -11.503  12.198  1.00  0.00     0.269 C 
HETATM   13  H   UNL     1      42.159 -12.476  10.495  1.00  0.00     0.279 HD
HETATM   14  C   UNL     1      43.175 -10.777   9.875  1.00  0.00     0.269 C 
ENDBRANCH  10  11
ENDBRANCH   6  10
BRANCH   7  15
HETATM   15  C   UNL     1      40.958  -8.217  12.283  1.00  0.00     0.225 A 
HETATM   16  N   UNL     1      42.157  -8.066  12.855  1.00  0.00    -0.081 NA
HETATM   17  O   UNL     1      41.858  -7.945  14.216  1.00  0.00    -0.103 OA
HETATM   18  N   UNL     1      40.495  -8.055  14.443  1.00  0.00    -0.083 NA
HETATM   19  C   UNL     1      39.936  -8.227  13.247  1.00  0.00     0.201 A 
BRANCH  19  20
HETATM   20  N   UNL     1      38.619  -8.374  13.034  1.00  0.00    -0.379 N 
HETATM   21  H   UNL     1      38.280  -9.066  12.371  1.00  0.00     0.158 HD
HETATM   22  H   UNL     1      37.911  -7.725  13.371  1.00  0.00     0.158 HD
ENDBRANCH  19  20
ENDBRANCH   7  15
ENDBRANCH   1   5
BRANCH   2  23
HETATM   23  N   UNL     1      41.272 -10.919   5.710  1.00  0.00    -0.184 NA
HETATM   24  C   UNL     1      41.720 -12.120   5.901  1.00  0.00     0.150 C 
BRANCH  24  25
HETATM   25  C   UNL     1      41.904 -13.072   4.787  1.00  0.00    -0.017 A 
HETATM   26  C   UNL     1      43.175 -13.514   4.409  1.00  0.00     0.016 A 
HETATM   27  C   UNL     1      43.313 -14.438   3.366  1.00  0.00     0.037 A 
HETATM   28  C   UNL     1      42.182 -14.926   2.709  1.00  0.00     0.069 A 
HETATM   29  C   UNL     1      40.916 -14.471   3.089  1.00  0.00     0.037 A 
HETATM   30  C   UNL     1      40.771 -13.546   4.123  1.00  0.00     0.016 A 
BRANCH  28  31
HETATM   31  O   UNL     1      42.169 -15.837   1.692  1.00  0.00    -0.347 OA
BRANCH  31  32
HETATM   32  C   UNL     1      41.539 -17.093   1.940  1.00  0.00     0.219 C 
BRANCH  32  33
HETATM   33  C   UNL     1      42.522 -17.961   2.675  1.00  0.00     0.026 A 
HETATM   34  C   UNL     1      42.432 -18.216   4.051  1.00  0.00     0.045 A 
HETATM   35 CL   UNL     1      41.186 -17.518   5.026  1.00  0.00    -0.084 Cl
HETATM   36  C   UNL     1      43.358 -19.053   4.686  1.00  0.00     0.024 A 
HETATM   37  C   UNL     1      44.383 -19.652   3.956  1.00  0.00     0.005 A 
HETATM   38  C   UNL     1      44.480 -19.416   2.588  1.00  0.00     0.043 A 
HETATM   39  C   UNL     1      43.554 -18.582   1.964  1.00  0.00     0.126 A 
HETATM   40  F   UNL     1      43.674 -18.376   0.644  1.00  0.00    -0.205 F 
ENDBRANCH  32  33
ENDBRANCH  31  32
ENDBRANCH  28  31
ENDBRANCH  24  25
ENDBRANCH   2  23
TORSDOF 10
ENDMDL
MODEL 6
REMARK VINA RESULT:      -7.6      7.832     10.837
REMARK  10 active torsions:
REMARK  status: ('A' for Active; 'I' for Inactive)
REMARK    1  A    between atoms: N_2  and  C_4 
REMARK    2  A    between atoms: C_4  and  C_5 
REMARK    3  A    between atoms: N_6  and  C_7 
REMARK    4  A    between atoms: C_11  and  N_12 
REMARK    5  A    between atoms: C_15  and  C_16 
REMARK       I    between atoms: C_16  and  N_17 
REMARK    6  A    between atoms: N_17  and  N_18 
REMARK    7  A    between atoms: C_19  and  C_20 
REMARK    8  A    between atoms: C_23  and  O_24 
REMARK    9  A    between atoms: O_24  and  C_25 
REMARK   10  A    between atoms: C_25  and  C_26 
ROOT
HETATM    1  C   UNL     1      40.852 -13.237  -3.228  1.00  0.00     0.293 C 
HETATM    2  N   UNL     1      41.243 -12.999  -1.921  1.00  0.00    -0.242 N 
HETATM    3  O   UNL     1      40.990 -14.282  -3.858  1.00  0.00    -0.264 OA
HETATM    4  H   UNL     1      40.914 -12.141  -1.479  1.00  0.00     0.192 HD
ENDROOT
BRANCH   1   5
HETATM    5  C   UNL     1      40.221 -12.087  -3.868  1.00  0.00     0.170 A 
HETATM    6  C   UNL     1      38.861 -11.849  -4.014  1.00  0.00     0.096 A 
HETATM    7  N   UNL     1      38.794 -10.669  -4.752  1.00  0.00    -0.215 N 
HETATM    8  N   UNL     1      40.053 -10.190  -4.921  1.00  0.00     0.012 NA
HETATM    9  N   UNL     1      40.920 -11.053  -4.420  1.00  0.00    -0.152 NA
BRANCH   6  10
HETATM   10  C   UNL     1      37.697 -12.580  -3.460  1.00  0.00     0.295 C 
BRANCH  10  11
HETATM   11  N   UNL     1      37.152 -13.674  -4.344  1.00  0.00    -0.073 N 
HETATM   12  C   UNL     1      35.734 -13.378  -4.757  1.00  0.00     0.269 C 
HETATM   13  H   UNL     1      37.704 -13.655  -5.214  1.00  0.00     0.279 HD
HETATM   14  C   UNL     1      37.254 -15.047  -3.742  1.00  0.00     0.269 C 
ENDBRANCH  10  11
ENDBRANCH   6  10
BRANCH   7  15
HETATM   15  C   UNL     1      37.658 -10.044  -5.319  1.00  0.00     0.225 A 
HETATM   16  N   UNL     1      36.939  -9.181  -4.593  1.00  0.00    -0.081 NA
HETATM   17  O   UNL     1      35.910  -8.801  -5.461  1.00  0.00    -0.103 OA
HETATM   18  N   UNL     1      36.008  -9.461  -6.676  1.00  0.00    -0.083 NA
HETATM   19  C   UNL     1      37.088 -10.234  -6.590  1.00  0.00     0.201 A 
BRANCH  19  20
HETATM   20  N   UNL     1      37.532 -11.038  -7.568  1.00  0.00    -0.379 N 
HETATM   21  H   UNL     1      37.780 -10.654  -8.476  1.00  0.00     0.158 HD
HETATM   22  H   UNL     1      37.491 -12.055  -7.533  1.00  0.00     0.158 HD
ENDBRANCH  19  20
ENDBRANCH   7  15
ENDBRANCH   1   5
BRANCH   2  23
HETATM   23  N   UNL     1      41.674 -13.946  -1.027  1.00  0.00    -0.184 NA
HETATM   24  C   UNL     1      40.793 -14.602  -0.338  1.00  0.00     0.150 C 
BRANCH  24  25
HETATM   25  C   UNL     1      41.180 -15.573   0.705  1.00  0.00    -0.017 A 
HETATM   26  C   UNL     1      40.306 -15.919   1.738  1.00  0.00     0.016 A 
HETATM   27  C   UNL     1      40.694 -16.863   2.697  1.00  0.00     0.037 A 
HETATM   28  C   UNL     1      41.949 -17.468   2.615  1.00  0.00     0.069 A 
HETATM   29  C   UNL     1      42.820 -17.108   1.583  1.00  0.00     0.037 A 
HETATM   30  C   UNL     1      42.443 -16.163   0.628  1.00  0.00     0.016 A 
BRANCH  28  31
HETATM   31  O   UNL     1      42.448 -18.412   3.467  1.00  0.00    -0.347 OA
BRANCH  31  32
HETATM   32  C   UNL     1      43.867 -18.516   3.577  1.00  0.00     0.219 C 
BRANCH  32  33
HETATM   33  C   UNL     1      44.203 -19.965   3.798  1.00  0.00     0.026 A 
HETATM   34  C   UNL     1      44.491 -20.493   5.065  1.00  0.00     0.045 A 
HETATM   35 CL   UNL     1      44.513 -19.502   6.481  1.00  0.00    -0.084 Cl
HETATM   36  C   UNL     1      44.775 -21.855   5.225  1.00  0.00     0.024 A 
HETATM   37  C   UNL     1      44.768 -22.710   4.123  1.00  0.00     0.005 A 
HETATM   38  C   UNL     1      44.474 -22.202   2.862  1.00  0.00     0.043 A 
HETATM   39  C   UNL     1      44.194 -20.845   2.712  1.00  0.00     0.126 A 
HETATM   40  F   UNL     1      43.913 -20.387   1.483  1.00  0.00    -0.205 F 
ENDBRANCH  32  33
ENDBRANCH  31  32
ENDBRANCH  28  31
ENDBRANCH  24  25
ENDBRANCH   2  23
TORSDOF 10
ENDMDL
MODEL 7
REMARK VINA RESULT:      -7.6      7.343     10.572
REMARK  10 active torsions:
REMARK  status: ('A' for Active; 'I' for Inactive)
REMARK    1  A    between atoms: N_2  and  C_4 
REMARK    2  A    between atoms: C_4  and  C_5 
REMARK    3  A    between atoms: N_6  and  C_7 
REMARK    4  A    between atoms: C_11  and  N_12 
REMARK    5  A    between atoms: C_15  and  C_16 
REMARK       I    between atoms: C_16  and  N_17 
REMARK    6  A    between atoms: N_17  and  N_18 
REMARK    7  A    between atoms: C_19  and  C_20 
REMARK    8  A    between atoms: C_23  and  O_24 
REMARK    9  A    between atoms: O_24  and  C_25 
REMARK   10  A    between atoms: C_25  and  C_26 
ROOT
HETATM    1  C   UNL     1      38.574 -12.385  -0.648  1.00  0.00     0.293 C 
HETATM    2  N   UNL     1      38.257 -13.371   0.273  1.00  0.00    -0.242 N 
HETATM    3  O   UNL     1      39.545 -11.633  -0.615  1.00  0.00    -0.264 OA
HETATM    4  H   UNL     1      37.515 -14.024   0.026  1.00  0.00     0.192 HD
ENDROOT
BRANCH   1   5
HETATM    5  C   UNL     1      37.615 -12.278  -1.743  1.00  0.00     0.170 A 
HETATM    6  C   UNL     1      37.361 -13.219  -2.731  1.00  0.00     0.096 A 
HETATM    7  N   UNL     1      36.428 -12.604  -3.563  1.00  0.00    -0.215 N 
HETATM    8  N   UNL     1      36.075 -11.413  -3.014  1.00  0.00     0.012 NA
HETATM    9  N   UNL     1      36.809 -11.195  -1.937  1.00  0.00    -0.152 NA
BRANCH   6  10
HETATM   10  C   UNL     1      37.854 -14.609  -2.878  1.00  0.00     0.295 C 
BRANCH  10  11
HETATM   11  N   UNL     1      38.884 -14.809  -3.961  1.00  0.00    -0.073 N 
HETATM   12  C   UNL     1      39.007 -16.265  -4.327  1.00  0.00     0.269 C 
HETATM   13  H   UNL     1      38.521 -14.341  -4.805  1.00  0.00     0.279 HD
HETATM   14  C   UNL     1      40.230 -14.228  -3.634  1.00  0.00     0.269 C 
ENDBRANCH  10  11
ENDBRANCH   6  10
BRANCH   7  15
HETATM   15  C   UNL     1      35.929 -13.046  -4.811  1.00  0.00     0.225 A 
HETATM   16  N   UNL     1      35.703 -14.348  -5.015  1.00  0.00    -0.081 NA
HETATM   17  O   UNL     1      35.250 -14.399  -6.338  1.00  0.00    -0.103 OA
HETATM   18  N   UNL     1      35.241 -13.137  -6.914  1.00  0.00    -0.083 NA
HETATM   19  C   UNL     1      35.664 -12.299  -5.971  1.00  0.00     0.201 A 
BRANCH  19  20
HETATM   20  N   UNL     1      35.797 -10.973  -6.132  1.00  0.00    -0.379 N 
HETATM   21  H   UNL     1      35.372 -10.330  -5.470  1.00  0.00     0.158 HD
HETATM   22  H   UNL     1      36.163 -10.535  -6.975  1.00  0.00     0.158 HD
ENDBRANCH  19  20
ENDBRANCH   7  15
ENDBRANCH   1   5
BRANCH   2  23
HETATM   23  N   UNL     1      39.073 -13.820   1.280  1.00  0.00    -0.184 NA
HETATM   24  C   UNL     1      39.344 -15.087   1.346  1.00  0.00     0.150 C 
BRANCH  24  25
HETATM   25  C   UNL     1      40.142 -15.659   2.449  1.00  0.00    -0.017 A 
HETATM   26  C   UNL     1      40.397 -14.935   3.615  1.00  0.00     0.016 A 
HETATM   27  C   UNL     1      41.135 -15.517   4.653  1.00  0.00     0.037 A 
HETATM   28  C   UNL     1      41.608 -16.824   4.528  1.00  0.00     0.069 A 
HETATM   29  C   UNL     1      41.355 -17.538   3.353  1.00  0.00     0.037 A 
HETATM   30  C   UNL     1      40.626 -16.962   2.312  1.00  0.00     0.016 A 
BRANCH  28  31
HETATM   31  O   UNL     1      42.322 -17.518   5.463  1.00  0.00    -0.347 OA
BRANCH  31  32
HETATM   32  C   UNL     1      43.726 -17.656   5.250  1.00  0.00     0.219 C 
BRANCH  32  33
HETATM   33  C   UNL     1      44.027 -19.123   5.117  1.00  0.00     0.026 A 
HETATM   34  C   UNL     1      44.345 -19.726   3.891  1.00  0.00     0.045 A 
HETATM   35 CL   UNL     1      44.386 -18.824   2.417  1.00  0.00    -0.084 Cl
HETATM   36  C   UNL     1      44.642 -21.093   3.821  1.00  0.00     0.024 A 
HETATM   37  C   UNL     1      44.633 -21.876   4.975  1.00  0.00     0.005 A 
HETATM   38  C   UNL     1      44.328 -21.289   6.200  1.00  0.00     0.043 A 
HETATM   39  C   UNL     1      44.033 -19.929   6.260  1.00  0.00     0.126 A 
HETATM   40  F   UNL     1      43.746 -19.394   7.456  1.00  0.00    -0.205 F 
ENDBRANCH  32  33
ENDBRANCH  31  32
ENDBRANCH  28  31
ENDBRANCH  24  25
ENDBRANCH   2  23
TORSDOF 10
ENDMDL
MODEL 8
REMARK VINA RESULT:      -7.5      5.060     11.176
REMARK  10 active torsions:
REMARK  status: ('A' for Active; 'I' for Inactive)
REMARK    1  A    between atoms: N_2  and  C_4 
REMARK    2  A    between atoms: C_4  and  C_5 
REMARK    3  A    between atoms: N_6  and  C_7 
REMARK    4  A    between atoms: C_11  and  N_12 
REMARK    5  A    between atoms: C_15  and  C_16 
REMARK       I    between atoms: C_16  and  N_17 
REMARK    6  A    between atoms: N_17  and  N_18 
REMARK    7  A    between atoms: C_19  and  C_20 
REMARK    8  A    between atoms: C_23  and  O_24 
REMARK    9  A    between atoms: O_24  and  C_25 
REMARK   10  A    between atoms: C_25  and  C_26 
ROOT
HETATM    1  C   UNL     1      43.100 -16.025   4.227  1.00  0.00     0.293 C 
HETATM    2  N   UNL     1      41.812 -15.997   4.738  1.00  0.00    -0.242 N 
HETATM    3  O   UNL     1      43.895 -15.090   4.189  1.00  0.00    -0.264 OA
HETATM    4  H   UNL     1      41.331 -16.889   4.853  1.00  0.00     0.192 HD
ENDROOT
BRANCH   1   5
HETATM    5  C   UNL     1      43.489 -17.327   3.693  1.00  0.00     0.170 A 
HETATM    6  C   UNL     1      43.483 -18.544   4.361  1.00  0.00     0.096 A 
HETATM    7  N   UNL     1      44.009 -19.446   3.438  1.00  0.00    -0.215 N 
HETATM    8  N   UNL     1      44.199 -18.801   2.259  1.00  0.00     0.012 NA
HETATM    9  N   UNL     1      43.919 -17.519   2.413  1.00  0.00    -0.152 NA
BRANCH   6  10
HETATM   10  C   UNL     1      42.964 -18.896   5.704  1.00  0.00     0.295 C 
BRANCH  10  11
HETATM   11  N   UNL     1      43.879 -18.553   6.851  1.00  0.00    -0.073 N 
HETATM   12  C   UNL     1      43.239 -17.548   7.772  1.00  0.00     0.269 C 
HETATM   13  H   UNL     1      43.989 -19.412   7.411  1.00  0.00     0.279 HD
HETATM   14  C   UNL     1      45.242 -18.087   6.422  1.00  0.00     0.269 C 
ENDBRANCH  10  11
ENDBRANCH   6  10
BRANCH   7  15
HETATM   15  C   UNL     1      44.372 -20.800   3.634  1.00  0.00     0.225 A 
HETATM   16  N   UNL     1      44.879 -21.191   4.808  1.00  0.00    -0.081 NA
HETATM   17  O   UNL     1      45.132 -22.554   4.618  1.00  0.00    -0.103 OA
HETATM   18  N   UNL     1      44.805 -22.951   3.331  1.00  0.00    -0.083 NA
HETATM   19  C   UNL     1      44.336 -21.865   2.719  1.00  0.00     0.201 A 
BRANCH  19  20
HETATM   20  N   UNL     1      43.907 -21.831   1.448  1.00  0.00    -0.379 N 
HETATM   21  H   UNL     1      43.248 -22.527   1.110  1.00  0.00     0.158 HD
HETATM   22  H   UNL     1      44.316 -21.245   0.723  1.00  0.00     0.158 HD
ENDBRANCH  19  20
ENDBRANCH   7  15
ENDBRANCH   1   5
BRANCH   2  23
HETATM   23  N   UNL     1      41.262 -14.978   5.473  1.00  0.00    -0.184 NA
HETATM   24  C   UNL     1      41.051 -13.836   4.897  1.00  0.00     0.150 C 
BRANCH  24  25
HETATM   25  C   UNL     1      40.545 -12.666   5.642  1.00  0.00    -0.017 A 
HETATM   26  C   UNL     1      40.848 -11.362   5.244  1.00  0.00     0.016 A 
HETATM   27  C   UNL     1      40.330 -10.274   5.958  1.00  0.00     0.037 A 
HETATM   28  C   UNL     1      39.502 -10.490   7.060  1.00  0.00     0.069 A 
HETATM   29  C   UNL     1      39.211 -11.799   7.456  1.00  0.00     0.037 A 
HETATM   30  C   UNL     1      39.729 -12.887   6.754  1.00  0.00     0.016 A 
BRANCH  28  31
HETATM   31  O   UNL     1      38.917  -9.528   7.832  1.00  0.00    -0.347 OA
BRANCH  31  32
HETATM   32  C   UNL     1      39.775  -8.692   8.607  1.00  0.00     0.219 C 
BRANCH  32  33
HETATM   33  C   UNL     1      40.265  -9.498   9.778  1.00  0.00     0.026 A 
HETATM   34  C   UNL     1      39.466  -9.774  10.897  1.00  0.00     0.045 A 
HETATM   35 CL   UNL     1      37.850  -9.175  11.033  1.00  0.00    -0.084 Cl
HETATM   36  C   UNL     1      39.959 -10.551  11.954  1.00  0.00     0.024 A 
HETATM   37  C   UNL     1      41.252 -11.070  11.903  1.00  0.00     0.005 A 
HETATM   38  C   UNL     1      42.052 -10.812  10.794  1.00  0.00     0.043 A 
HETATM   39  C   UNL     1      41.554 -10.038   9.748  1.00  0.00     0.126 A 
HETATM   40  F   UNL     1      42.350  -9.809   8.693  1.00  0.00    -0.205 F 
ENDBRANCH  32  33
ENDBRANCH  31  32
ENDBRANCH  28  31
ENDBRANCH  24  25
ENDBRANCH   2  23
TORSDOF 10
ENDMDL
MODEL 9
REMARK VINA RESULT:      -7.3      5.216     11.616
REMARK  10 active torsions:
REMARK  status: ('A' for Active; 'I' for Inactive)
REMARK    1  A    between atoms: N_2  and  C_4 
REMARK    2  A    between atoms: C_4  and  C_5 
REMARK    3  A    between atoms: N_6  and  C_7 
REMARK    4  A    between atoms: C_11  and  N_12 
REMARK    5  A    between atoms: C_15  and  C_16 
REMARK       I    between atoms: C_16  and  N_17 
REMARK    6  A    between atoms: N_17  and  N_18 
REMARK    7  A    between atoms: C_19  and  C_20 
REMARK    8  A    between atoms: C_23  and  O_24 
REMARK    9  A    between atoms: O_24  and  C_25 
REMARK   10  A    between atoms: C_25  and  C_26 
ROOT
HETATM    1  C   UNL     1      43.064 -16.054   4.545  1.00  0.00     0.293 C 
HETATM    2  N   UNL     1      43.900 -15.627   5.564  1.00  0.00    -0.242 N 
HETATM    3  O   UNL     1      42.044 -15.498   4.149  1.00  0.00    -0.264 OA
HETATM    4  H   UNL     1      44.796 -16.101   5.669  1.00  0.00     0.192 HD
ENDROOT
BRANCH   1   5
HETATM    5  C   UNL     1      43.494 -17.303   3.922  1.00  0.00     0.170 A 
HETATM    6  C   UNL     1      43.463 -18.573   4.479  1.00  0.00     0.096 A 
HETATM    7  N   UNL     1      44.048 -19.389   3.513  1.00  0.00    -0.215 N 
HETATM    8  N   UNL     1      44.298 -18.642   2.407  1.00  0.00     0.012 NA
HETATM    9  N   UNL     1      43.998 -17.379   2.656  1.00  0.00    -0.152 NA
BRANCH   6  10
HETATM   10  C   UNL     1      42.872 -19.045   5.754  1.00  0.00     0.295 C 
BRANCH  10  11
HETATM   11  N   UNL     1      43.864 -19.291   6.863  1.00  0.00    -0.073 N 
HETATM   12  C   UNL     1      43.604 -20.612   7.537  1.00  0.00     0.269 C 
HETATM   13  H   UNL     1      44.789 -19.383   6.419  1.00  0.00     0.279 HD
HETATM   14  C   UNL     1      43.929 -18.182   7.875  1.00  0.00     0.269 C 
ENDBRANCH  10  11
ENDBRANCH   6  10
BRANCH   7  15
HETATM   15  C   UNL     1      44.412 -20.753   3.610  1.00  0.00     0.225 A 
HETATM   16  N   UNL     1      45.117 -21.181   4.662  1.00  0.00    -0.081 NA
HETATM   17  O   UNL     1      45.303 -22.543   4.400  1.00  0.00    -0.103 OA
HETATM   18  N   UNL     1      44.736 -22.903   3.186  1.00  0.00    -0.083 NA
HETATM   19  C   UNL     1      44.187 -21.795   2.694  1.00  0.00     0.201 A 
BRANCH  19  20
HETATM   20  N   UNL     1      43.532 -21.722   1.525  1.00  0.00    -0.379 N 
HETATM   21  H   UNL     1      42.578 -21.374   1.491  1.00  0.00     0.158 HD
HETATM   22  H   UNL     1      43.861 -22.147   0.660  1.00  0.00     0.158 HD
ENDBRANCH  19  20
ENDBRANCH   7  15
ENDBRANCH   1   5
BRANCH   2  23
HETATM   23  N   UNL     1      43.851 -14.403   6.182  1.00  0.00    -0.184 NA
HETATM   24  C   UNL     1      44.457 -14.252   7.318  1.00  0.00     0.150 C 
BRANCH  24  25
HETATM   25  C   UNL     1      44.377 -12.993   8.085  1.00  0.00    -0.017 A 
HETATM   26  C   UNL     1      43.242 -12.180   8.036  1.00  0.00     0.016 A 
HETATM   27  C   UNL     1      43.189 -11.005   8.796  1.00  0.00     0.037 A 
HETATM   28  C   UNL     1      44.264 -10.649   9.612  1.00  0.00     0.069 A 
HETATM   29  C   UNL     1      45.399 -11.465   9.647  1.00  0.00     0.037 A 
HETATM   30  C   UNL     1      45.462 -12.633   8.888  1.00  0.00     0.016 A 
BRANCH  28  31
HETATM   31  O   UNL     1      44.340  -9.548  10.414  1.00  0.00    -0.347 OA
BRANCH  31  32
HETATM   32  C   UNL     1      44.159  -9.739  11.816  1.00  0.00     0.219 C 
BRANCH  32  33
HETATM   33  C   UNL     1      42.709 -10.057  12.052  1.00  0.00     0.026 A 
HETATM   34  C   UNL     1      42.256 -11.343  12.382  1.00  0.00     0.045 A 
HETATM   35 CL   UNL     1      43.339 -12.683  12.513  1.00  0.00    -0.084 Cl
HETATM   36  C   UNL     1      40.896 -11.584  12.616  1.00  0.00     0.024 A 
HETATM   37  C   UNL     1      39.971 -10.544  12.533  1.00  0.00     0.005 A 
HETATM   38  C   UNL     1      40.408  -9.262  12.216  1.00  0.00     0.043 A 
HETATM   39  C   UNL     1      41.762  -9.030  11.984  1.00  0.00     0.126 A 
HETATM   40  F   UNL     1      42.151  -7.782  11.682  1.00  0.00    -0.205 F 
ENDBRANCH  32  33
ENDBRANCH  31  32
ENDBRANCH  28  31
ENDBRANCH  24  25
ENDBRANCH   2  23
TORSDOF 10
ENDMDL
MODEL 10
REMARK VINA RESULT:      -7.3      7.618     10.607
REMARK  10 active torsions:
REMARK  status: ('A' for Active; 'I' for Inactive)
REMARK    1  A    between atoms: N_2  and  C_4 
REMARK    2  A    between atoms: C_4  and  C_5 
REMARK    3  A    between atoms: N_6  and  C_7 
REMARK    4  A    between atoms: C_11  and  N_12 
REMARK    5  A    between atoms: C_15  and  C_16 
REMARK       I    between atoms: C_16  and  N_17 
REMARK    6  A    between atoms: N_17  and  N_18 
REMARK    7  A    between atoms: C_19  and  C_20 
REMARK    8  A    between atoms: C_23  and  O_24 
REMARK    9  A    between atoms: O_24  and  C_25 
REMARK   10  A    between atoms: C_25  and  C_26 
ROOT
HETATM    1  C   UNL     1      39.236 -14.038  -1.876  1.00  0.00     0.293 C 
HETATM    2  N   UNL     1      38.733 -14.395  -0.635  1.00  0.00    -0.242 N 
HETATM    3  O   UNL     1      40.388 -13.699  -2.133  1.00  0.00    -0.264 OA
HETATM    4  H   UNL     1      37.803 -14.812  -0.605  1.00  0.00     0.192 HD
ENDROOT
BRANCH   1   5
HETATM    5  C   UNL     1      38.242 -14.088  -2.945  1.00  0.00     0.170 A 
HETATM    6  C   UNL     1      37.419 -13.056  -3.373  1.00  0.00     0.096 A 
HETATM    7  N   UNL     1      36.616 -13.639  -4.352  1.00  0.00    -0.215 N 
HETATM    8  N   UNL     1      37.037 -14.914  -4.557  1.00  0.00     0.012 NA
HETATM    9  N   UNL     1      37.993 -15.202  -3.692  1.00  0.00    -0.152 NA
BRANCH   6  10
HETATM   10  C   UNL     1      37.405 -11.623  -2.997  1.00  0.00     0.295 C 
BRANCH  10  11
HETATM   11  N   UNL     1      36.722 -11.314  -1.689  1.00  0.00    -0.073 N 
HETATM   12  C   UNL     1      35.647 -10.275  -1.873  1.00  0.00     0.269 C 
HETATM   13  H   UNL     1      36.231 -12.173  -1.400  1.00  0.00     0.279 HD
HETATM   14  C   UNL     1      37.666 -10.913  -0.591  1.00  0.00     0.269 C 
ENDBRANCH  10  11
ENDBRANCH   6  10
BRANCH   7  15
HETATM   15  C   UNL     1      35.495 -13.090  -5.019  1.00  0.00     0.225 A 
HETATM   16  N   UNL     1      34.261 -13.470  -4.673  1.00  0.00    -0.081 NA
HETATM   17  O   UNL     1      33.439 -12.750  -5.547  1.00  0.00    -0.103 OA
HETATM   18  N   UNL     1      34.190 -11.977  -6.420  1.00  0.00    -0.083 NA
HETATM   19  C   UNL     1      35.464 -12.188  -6.096  1.00  0.00     0.201 A 
BRANCH  19  20
HETATM   20  N   UNL     1      36.511 -11.618  -6.710  1.00  0.00    -0.379 N 
HETATM   21  H   UNL     1      36.410 -10.715  -7.167  1.00  0.00     0.158 HD
HETATM   22  H   UNL     1      37.389 -12.096  -6.903  1.00  0.00     0.158 HD
ENDBRANCH  19  20
ENDBRANCH   7  15
ENDBRANCH   1   5
BRANCH   2  23
HETATM   23  N   UNL     1      39.476 -14.627   0.495  1.00  0.00    -0.184 NA
HETATM   24  C   UNL     1      40.099 -15.758   0.612  1.00  0.00     0.150 C 
BRANCH  24  25
HETATM   25  C   UNL     1      40.846 -16.117   1.834  1.00  0.00    -0.017 A 
HETATM   26  C   UNL     1      40.491 -15.600   3.082  1.00  0.00     0.016 A 
HETATM   27  C   UNL     1      41.205 -15.980   4.226  1.00  0.00     0.037 A 
HETATM   28  C   UNL     1      42.263 -16.885   4.122  1.00  0.00     0.069 A 
HETATM   29  C   UNL     1      42.615 -17.390   2.867  1.00  0.00     0.037 A 
HETATM   30  C   UNL     1      41.913 -17.010   1.722  1.00  0.00     0.016 A 
BRANCH  28  31
HETATM   31  O   UNL     1      43.029 -17.354   5.150  1.00  0.00    -0.347 OA
BRANCH  31  32
HETATM   32  C   UNL     1      44.332 -17.840   4.833  1.00  0.00     0.219 C 
BRANCH  32  33
HETATM   33  C   UNL     1      44.369 -19.305   5.168  1.00  0.00     0.026 A 
HETATM   34  C   UNL     1      44.018 -19.805   6.430  1.00  0.00     0.045 A 
HETATM   35 CL   UNL     1      43.543 -18.761   7.723  1.00  0.00    -0.084 Cl
HETATM   36  C   UNL     1      44.044 -21.182   6.687  1.00  0.00     0.024 A 
HETATM   37  C   UNL     1      44.413 -22.079   5.685  1.00  0.00     0.005 A 
HETATM   38  C   UNL     1      44.754 -21.597   4.424  1.00  0.00     0.043 A 
HETATM   39  C   UNL     1      44.726 -20.226   4.178  1.00  0.00     0.126 A 
HETATM   40  F   UNL     1      45.058 -19.794   2.952  1.00  0.00    -0.205 F 
ENDBRANCH  32  33
ENDBRANCH  31  32
ENDBRANCH  28  31
ENDBRANCH  24  25
ENDBRANCH   2  23
TORSDOF 10
ENDMDL
