MODEL 1
REMARK VINA RESULT:      -8.9      0.000      0.000
REMARK  7 active torsions:
REMARK  status: ('A' for Active; 'I' for Inactive)
REMARK    1  A    between atoms: C_3  and  N_4 
REMARK       I    between atoms: N_4  and  C_5 
REMARK       I    between atoms: C_5  and  N_6 
REMARK       I    between atoms: N_6  and  C_7 
REMARK    2  A    between atoms: C_7  and  C_8 
REMARK    3  A    between atoms: C_8  and  S_9 
REMARK    4  A    between atoms: S_9  and  C_10 
REMARK    5  A    between atoms: N_11  and  C_12 
REMARK    6  A    between atoms: C_19  and  C_20 
REMARK    7  A    between atoms: C_20  and  N_21 
ROOT
HETATM    1  C   UNL     1      42.385 -13.688   2.996  1.00  0.00     0.196 A 
HETATM    2  N   UNL     1      41.895 -14.691   2.179  1.00  0.00    -0.274 N 
HETATM    3  C   UNL     1      40.845 -14.083   1.505  1.00  0.00     0.161 A 
HETATM    4  N   UNL     1      40.745 -12.820   1.871  1.00  0.00    -0.132 NA
HETATM    5  N   UNL     1      41.718 -12.573   2.798  1.00  0.00    -0.122 NA
ENDROOT
BRANCH   1   6
HETATM    6  S   UNL     1      43.792 -13.836   3.991  1.00  0.00    -0.080 SA
BRANCH   6   7
HETATM    7  C   UNL     1      43.050 -13.910   5.650  1.00  0.00     0.185 C 
BRANCH   7   8
HETATM    8  C   UNL     1      44.087 -14.195   6.734  1.00  0.00     0.235 C 
HETATM    9  N   UNL     1      44.489 -15.503   6.932  1.00  0.00    -0.278 N 
HETATM   10  C   UNL     1      43.972 -16.669   6.385  1.00  0.00     0.327 C 
HETATM   11  H   UNL     1      45.196 -15.594   7.643  1.00  0.00     0.173 HD
HETATM   12  N   UNL     1      44.733 -17.767   6.725  1.00  0.00    -0.306 N 
HETATM   13  O   UNL     1      42.971 -16.683   5.682  1.00  0.00    -0.247 OA
HETATM   14  H   UNL     1      45.416 -17.672   7.467  1.00  0.00     0.171 HD
HETATM   15  O   UNL     1      44.580 -13.327   7.461  1.00  0.00    -0.272 OA
BRANCH  12  16
HETATM   16  C   UNL     1      44.621 -19.080   6.213  1.00  0.00     0.075 A 
HETATM   17  C   UNL     1      45.106 -19.487   4.969  1.00  0.00     0.033 A 
HETATM   18  C   UNL     1      44.979 -20.823   4.569  1.00  0.00     0.002 A 
HETATM   19  C   UNL     1      44.365 -21.759   5.402  1.00  0.00     0.003 A 
HETATM   20  C   UNL     1      43.878 -21.363   6.645  1.00  0.00     0.044 A 
HETATM   21  C   UNL     1      44.013 -20.036   7.038  1.00  0.00     0.143 A 
HETATM   22  F   UNL     1      43.550 -19.662   8.242  1.00  0.00    -0.204 F 
ENDBRANCH  12  16
ENDBRANCH   7   8
ENDBRANCH   6   7
ENDBRANCH   1   6
BRANCH   2  23
HETATM   23  C   UNL     1      42.316 -16.038   2.057  1.00  0.00     0.043 A 
HETATM   24  C   UNL     1      43.403 -16.368   1.234  1.00  0.00     0.033 A 
HETATM   25  C   UNL     1      43.817 -17.697   1.134  1.00  0.00     0.044 A 
HETATM   26  C   UNL     1      43.145 -18.685   1.842  1.00  0.00     0.116 A 
HETATM   27  F   UNL     1      43.544 -19.959   1.743  1.00  0.00    -0.206 F 
HETATM   28  C   UNL     1      42.059 -18.371   2.652  1.00  0.00     0.044 A 
HETATM   29  C   UNL     1      41.639 -17.044   2.762  1.00  0.00     0.033 A 
ENDBRANCH   2  23
BRANCH   3  30
HETATM   30  C   UNL     1      39.836 -14.777   0.662  1.00  0.00     0.315 C 
BRANCH  30  31
HETATM   31  N   UNL     1      40.070 -14.512  -0.822  1.00  0.00    -0.064 N 
HETATM   32  H   UNL     1      40.701 -13.692  -0.839  1.00  0.00     0.280 HD
HETATM   33  C   UNL     1      40.824 -15.641  -1.483  1.00  0.00     0.235 C 
HETATM   34  C   UNL     1      41.139 -15.273  -2.925  1.00  0.00     0.028 C 
HETATM   35  C   UNL     1      39.879 -14.901  -3.697  1.00  0.00     0.003 C 
HETATM   36  C   UNL     1      39.115 -13.788  -2.990  1.00  0.00     0.028 C 
HETATM   37  C   UNL     1      38.802 -14.149  -1.545  1.00  0.00     0.235 C 
ENDBRANCH  30  31
ENDBRANCH   3  30
TORSDOF 7
ENDMDL
MODEL 2
REMARK VINA RESULT:      -8.6      3.206      4.642
REMARK  7 active torsions:
REMARK  status: ('A' for Active; 'I' for Inactive)
REMARK    1  A    between atoms: C_3  and  N_4 
REMARK       I    between atoms: N_4  and  C_5 
REMARK       I    between atoms: C_5  and  N_6 
REMARK       I    between atoms: N_6  and  C_7 
REMARK    2  A    between atoms: C_7  and  C_8 
REMARK    3  A    between atoms: C_8  and  S_9 
REMARK    4  A    between atoms: S_9  and  C_10 
REMARK    5  A    between atoms: N_11  and  C_12 
REMARK    6  A    between atoms: C_19  and  C_20 
REMARK    7  A    between atoms: C_20  and  N_21 
ROOT
HETATM    1  C   UNL     1      40.137 -13.621   0.832  1.00  0.00     0.196 A 
HETATM    2  N   UNL     1      39.976 -13.273  -0.496  1.00  0.00    -0.274 N 
HETATM    3  C   UNL     1      40.058 -11.888  -0.487  1.00  0.00     0.161 A 
HETATM    4  N   UNL     1      40.282 -11.458   0.739  1.00  0.00    -0.132 NA
HETATM    5  N   UNL     1      40.340 -12.547   1.562  1.00  0.00    -0.122 NA
ENDROOT
BRANCH   1   6
HETATM    6  S   UNL     1      40.244 -15.247   1.414  1.00  0.00    -0.080 SA
BRANCH   6   7
HETATM    7  C   UNL     1      41.139 -15.008   2.979  1.00  0.00     0.185 C 
BRANCH   7   8
HETATM    8  C   UNL     1      42.637 -14.811   2.762  1.00  0.00     0.235 C 
HETATM    9  N   UNL     1      43.453 -15.926   2.752  1.00  0.00    -0.278 N 
HETATM   10  C   UNL     1      43.140 -17.241   3.068  1.00  0.00     0.327 C 
HETATM   11  H   UNL     1      44.419 -15.707   2.572  1.00  0.00     0.173 HD
HETATM   12  N   UNL     1      44.195 -18.089   2.805  1.00  0.00    -0.306 N 
HETATM   13  O   UNL     1      42.049 -17.574   3.511  1.00  0.00    -0.247 OA
HETATM   14  H   UNL     1      45.108 -17.687   2.632  1.00  0.00     0.171 HD
HETATM   15  O   UNL     1      43.172 -13.707   2.612  1.00  0.00    -0.272 OA
BRANCH  12  16
HETATM   16  C   UNL     1      44.187 -19.502   2.831  1.00  0.00     0.075 A 
HETATM   17  C   UNL     1      43.717 -20.309   1.794  1.00  0.00     0.033 A 
HETATM   18  C   UNL     1      43.788 -21.704   1.901  1.00  0.00     0.002 A 
HETATM   19  C   UNL     1      44.322 -22.302   3.043  1.00  0.00     0.003 A 
HETATM   20  C   UNL     1      44.793 -21.506   4.084  1.00  0.00     0.044 A 
HETATM   21  C   UNL     1      44.725 -20.122   3.967  1.00  0.00     0.143 A 
HETATM   22  F   UNL     1      45.190 -19.359   4.971  1.00  0.00    -0.204 F 
ENDBRANCH  12  16
ENDBRANCH   7   8
ENDBRANCH   6   7
ENDBRANCH   1   6
BRANCH   2  23
HETATM   23  C   UNL     1      39.745 -14.103  -1.622  1.00  0.00     0.043 A 
HETATM   24  C   UNL     1      40.784 -14.881  -2.152  1.00  0.00     0.033 A 
HETATM   25  C   UNL     1      40.540 -15.705  -3.252  1.00  0.00     0.044 A 
HETATM   26  C   UNL     1      39.272 -15.743  -3.818  1.00  0.00     0.116 A 
HETATM   27  F   UNL     1      39.041 -16.533  -4.874  1.00  0.00    -0.206 F 
HETATM   28  C   UNL     1      38.237 -14.967  -3.308  1.00  0.00     0.044 A 
HETATM   29  C   UNL     1      38.470 -14.141  -2.206  1.00  0.00     0.033 A 
ENDBRANCH   2  23
BRANCH   3  30
HETATM   30  C   UNL     1      39.733 -10.990  -1.627  1.00  0.00     0.315 C 
BRANCH  30  31
HETATM   31  N   UNL     1      40.960 -10.716  -2.490  1.00  0.00    -0.064 N 
HETATM   32  H   UNL     1      41.751 -11.088  -1.936  1.00  0.00     0.280 HD
HETATM   33  C   UNL     1      40.933 -11.510  -3.775  1.00  0.00     0.235 C 
HETATM   34  C   UNL     1      42.232 -11.296  -4.538  1.00  0.00     0.028 C 
HETATM   35  C   UNL     1      42.499  -9.817  -4.788  1.00  0.00     0.003 C 
HETATM   36  C   UNL     1      42.481  -9.032  -3.482  1.00  0.00     0.028 C 
HETATM   37  C   UNL     1      41.187  -9.246  -2.712  1.00  0.00     0.235 C 
ENDBRANCH  30  31
ENDBRANCH   3  30
TORSDOF 7
ENDMDL
MODEL 3
REMARK VINA RESULT:      -8.6      2.918      4.356
REMARK  7 active torsions:
REMARK  status: ('A' for Active; 'I' for Inactive)
REMARK    1  A    between atoms: C_3  and  N_4 
REMARK       I    between atoms: N_4  and  C_5 
REMARK       I    between atoms: C_5  and  N_6 
REMARK       I    between atoms: N_6  and  C_7 
REMARK    2  A    between atoms: C_7  and  C_8 
REMARK    3  A    between atoms: C_8  and  S_9 
REMARK    4  A    between atoms: S_9  and  C_10 
REMARK    5  A    between atoms: N_11  and  C_12 
REMARK    6  A    between atoms: C_19  and  C_20 
REMARK    7  A    between atoms: C_20  and  N_21 
ROOT
HETATM    1  C   UNL     1      40.660 -15.082   2.999  1.00  0.00     0.196 A 
HETATM    2  N   UNL     1      40.550 -14.282   1.876  1.00  0.00    -0.274 N 
HETATM    3  C   UNL     1      40.969 -15.107   0.841  1.00  0.00     0.161 A 
HETATM    4  N   UNL     1      41.269 -16.303   1.311  1.00  0.00    -0.132 NA
HETATM    5  N   UNL     1      41.064 -16.286   2.662  1.00  0.00    -0.122 NA
ENDROOT
BRANCH   1   6
HETATM    6  S   UNL     1      40.154 -14.617   4.587  1.00  0.00    -0.080 SA
BRANCH   6   7
HETATM    7  C   UNL     1      41.091 -15.787   5.617  1.00  0.00     0.185 C 
BRANCH   7   8
HETATM    8  C   UNL     1      42.588 -15.485   5.616  1.00  0.00     0.235 C 
HETATM    9  N   UNL     1      43.459 -16.483   5.223  1.00  0.00    -0.278 N 
HETATM   10  C   UNL     1      43.196 -17.820   4.959  1.00  0.00     0.327 C 
HETATM   11  H   UNL     1      44.422 -16.188   5.223  1.00  0.00     0.173 HD
HETATM   12  N   UNL     1      44.308 -18.465   4.461  1.00  0.00    -0.306 N 
HETATM   13  O   UNL     1      42.099 -18.328   5.143  1.00  0.00    -0.247 OA
HETATM   14  H   UNL     1      45.209 -18.007   4.536  1.00  0.00     0.171 HD
HETATM   15  O   UNL     1      43.073 -14.404   5.964  1.00  0.00    -0.272 OA
BRANCH  12  16
HETATM   16  C   UNL     1      44.372 -19.768   3.916  1.00  0.00     0.075 A 
HETATM   17  C   UNL     1      44.756 -20.905   4.628  1.00  0.00     0.033 A 
HETATM   18  C   UNL     1      44.750 -22.160   4.005  1.00  0.00     0.002 A 
HETATM   19  C   UNL     1      44.366 -22.288   2.670  1.00  0.00     0.003 A 
HETATM   20  C   UNL     1      43.981 -21.160   1.950  1.00  0.00     0.044 A 
HETATM   21  C   UNL     1      43.984 -19.918   2.578  1.00  0.00     0.143 A 
HETATM   22  F   UNL     1      43.603 -18.835   1.881  1.00  0.00    -0.204 F 
ENDBRANCH  12  16
ENDBRANCH   7   8
ENDBRANCH   6   7
ENDBRANCH   1   6
BRANCH   2  23
HETATM   23  C   UNL     1      40.145 -12.928   1.773  1.00  0.00     0.043 A 
HETATM   24  C   UNL     1      41.099 -11.901   1.803  1.00  0.00     0.033 A 
HETATM   25  C   UNL     1      40.690 -10.572   1.686  1.00  0.00     0.044 A 
HETATM   26  C   UNL     1      39.339 -10.275   1.548  1.00  0.00     0.116 A 
HETATM   27  F   UNL     1      38.949  -9.000   1.438  1.00  0.00    -0.206 F 
HETATM   28  C   UNL     1      38.383 -11.286   1.529  1.00  0.00     0.044 A 
HETATM   29  C   UNL     1      38.784 -12.618   1.642  1.00  0.00     0.033 A 
ENDBRANCH   2  23
BRANCH   3  30
HETATM   30  C   UNL     1      41.254 -14.676  -0.552  1.00  0.00     0.315 C 
BRANCH  30  31
HETATM   31  N   UNL     1      40.145 -15.105  -1.508  1.00  0.00    -0.064 N 
HETATM   32  H   UNL     1      39.640 -15.849  -0.997  1.00  0.00     0.280 HD
HETATM   33  C   UNL     1      39.144 -13.997  -1.740  1.00  0.00     0.235 C 
HETATM   34  C   UNL     1      37.998 -14.513  -2.597  1.00  0.00     0.028 C 
HETATM   35  C   UNL     1      38.500 -15.111  -3.905  1.00  0.00     0.003 C 
HETATM   36  C   UNL     1      39.537 -16.197  -3.646  1.00  0.00     0.028 C 
HETATM   37  C   UNL     1      40.684 -15.688  -2.784  1.00  0.00     0.235 C 
ENDBRANCH  30  31
ENDBRANCH   3  30
TORSDOF 7
ENDMDL
MODEL 4
REMARK VINA RESULT:      -8.5      3.172      6.378
REMARK  7 active torsions:
REMARK  status: ('A' for Active; 'I' for Inactive)
REMARK    1  A    between atoms: C_3  and  N_4 
REMARK       I    between atoms: N_4  and  C_5 
REMARK       I    between atoms: C_5  and  N_6 
REMARK       I    between atoms: N_6  and  C_7 
REMARK    2  A    between atoms: C_7  and  C_8 
REMARK    3  A    between atoms: C_8  and  S_9 
REMARK    4  A    between atoms: S_9  and  C_10 
REMARK    5  A    between atoms: N_11  and  C_12 
REMARK    6  A    between atoms: C_19  and  C_20 
REMARK    7  A    between atoms: C_20  and  N_21 
ROOT
HETATM    1  C   UNL     1      40.994 -13.500   3.437  1.00  0.00     0.196 A 
HETATM    2  N   UNL     1      40.848 -13.867   4.762  1.00  0.00    -0.274 N 
HETATM    3  C   UNL     1      39.831 -13.042   5.223  1.00  0.00     0.161 A 
HETATM    4  N   UNL     1      39.393 -12.276   4.243  1.00  0.00    -0.132 NA
HETATM    5  N   UNL     1      40.117 -12.573   3.123  1.00  0.00    -0.122 NA
ENDROOT
BRANCH   1   6
HETATM    6  S   UNL     1      42.050 -14.284   2.314  1.00  0.00    -0.080 SA
BRANCH   6   7
HETATM    7  C   UNL     1      41.180 -15.859   2.046  1.00  0.00     0.185 C 
BRANCH   7   8
HETATM    8  C   UNL     1      41.707 -16.608   0.824  1.00  0.00     0.235 C 
HETATM    9  N   UNL     1      42.478 -17.737   1.027  1.00  0.00    -0.278 N 
HETATM   10  C   UNL     1      42.998 -18.239   2.211  1.00  0.00     0.327 C 
HETATM   11  H   UNL     1      42.757 -18.183   0.169  1.00  0.00     0.173 HD
HETATM   12  N   UNL     1      43.604 -19.462   2.019  1.00  0.00    -0.306 N 
HETATM   13  O   UNL     1      42.903 -17.649   3.279  1.00  0.00    -0.247 OA
HETATM   14  H   UNL     1      43.801 -19.762   1.072  1.00  0.00     0.171 HD
HETATM   15  O   UNL     1      41.501 -16.255  -0.342  1.00  0.00    -0.272 OA
BRANCH  12  16
HETATM   16  C   UNL     1      44.080 -20.349   3.011  1.00  0.00     0.075 A 
HETATM   17  C   UNL     1      44.332 -19.992   4.336  1.00  0.00     0.033 A 
HETATM   18  C   UNL     1      44.768 -20.957   5.254  1.00  0.00     0.002 A 
HETATM   19  C   UNL     1      44.958 -22.281   4.856  1.00  0.00     0.003 A 
HETATM   20  C   UNL     1      44.710 -22.648   3.536  1.00  0.00     0.044 A 
HETATM   21  C   UNL     1      44.272 -21.685   2.632  1.00  0.00     0.143 A 
HETATM   22  F   UNL     1      44.025 -22.048   1.362  1.00  0.00    -0.204 F 
ENDBRANCH  12  16
ENDBRANCH   7   8
ENDBRANCH   6   7
ENDBRANCH   1   6
BRANCH   2  23
HETATM   23  C   UNL     1      41.570 -14.827   5.515  1.00  0.00     0.043 A 
HETATM   24  C   UNL     1      42.877 -14.553   5.940  1.00  0.00     0.033 A 
HETATM   25  C   UNL     1      43.573 -15.501   6.694  1.00  0.00     0.044 A 
HETATM   26  C   UNL     1      42.968 -16.711   7.008  1.00  0.00     0.116 A 
HETATM   27  F   UNL     1      43.639 -17.619   7.728  1.00  0.00    -0.206 F 
HETATM   28  C   UNL     1      41.676 -16.998   6.580  1.00  0.00     0.044 A 
HETATM   29  C   UNL     1      40.971 -16.056   5.830  1.00  0.00     0.033 A 
ENDBRANCH   2  23
BRANCH   3  30
HETATM   30  C   UNL     1      39.426 -12.871   6.643  1.00  0.00     0.315 C 
BRANCH  30  31
HETATM   31  N   UNL     1      39.831 -11.502   7.179  1.00  0.00    -0.064 N 
HETATM   32  H   UNL     1      39.325 -10.831   6.576  1.00  0.00     0.280 HD
HETATM   33  C   UNL     1      39.324 -11.275   8.584  1.00  0.00     0.235 C 
HETATM   34  C   UNL     1      39.646  -9.855   9.022  1.00  0.00     0.028 C 
HETATM   35  C   UNL     1      41.135  -9.553   8.899  1.00  0.00     0.003 C 
HETATM   36  C   UNL     1      41.631  -9.827   7.484  1.00  0.00     0.028 C 
HETATM   37  C   UNL     1      41.306 -11.245   7.037  1.00  0.00     0.235 C 
ENDBRANCH  30  31
ENDBRANCH   3  30
TORSDOF 7
ENDMDL
MODEL 5
REMARK VINA RESULT:      -8.4      1.957      2.543
REMARK  7 active torsions:
REMARK  status: ('A' for Active; 'I' for Inactive)
REMARK    1  A    between atoms: C_3  and  N_4 
REMARK       I    between atoms: N_4  and  C_5 
REMARK       I    between atoms: C_5  and  N_6 
REMARK       I    between atoms: N_6  and  C_7 
REMARK    2  A    between atoms: C_7  and  C_8 
REMARK    3  A    between atoms: C_8  and  S_9 
REMARK    4  A    between atoms: S_9  and  C_10 
REMARK    5  A    between atoms: N_11  and  C_12 
REMARK    6  A    between atoms: C_19  and  C_20 
REMARK    7  A    between atoms: C_20  and  N_21 
ROOT
HETATM    1  C   UNL     1      42.159 -12.970   4.141  1.00  0.00     0.196 A 
HETATM    2  N   UNL     1      41.267 -13.384   3.168  1.00  0.00    -0.274 N 
HETATM    3  C   UNL     1      40.429 -12.290   3.001  1.00  0.00     0.161 A 
HETATM    4  N   UNL     1      40.815 -11.303   3.786  1.00  0.00    -0.132 NA
HETATM    5  N   UNL     1      41.905 -11.729   4.491  1.00  0.00    -0.122 NA
ENDROOT
BRANCH   1   6
HETATM    6  S   UNL     1      43.523 -13.890   4.675  1.00  0.00    -0.080 SA
BRANCH   6   7
HETATM    7  C   UNL     1      42.757 -14.976   5.916  1.00  0.00     0.185 C 
BRANCH   7   8
HETATM    8  C   UNL     1      43.797 -15.745   6.728  1.00  0.00     0.235 C 
HETATM    9  N   UNL     1      44.170 -17.003   6.295  1.00  0.00    -0.278 N 
HETATM   10  C   UNL     1      43.623 -17.777   5.282  1.00  0.00     0.327 C 
HETATM   11  H   UNL     1      44.880 -17.424   6.872  1.00  0.00     0.173 HD
HETATM   12  N   UNL     1      44.362 -18.921   5.065  1.00  0.00    -0.306 N 
HETATM   13  O   UNL     1      42.617 -17.450   4.669  1.00  0.00    -0.247 OA
HETATM   14  H   UNL     1      45.053 -19.190   5.754  1.00  0.00     0.171 HD
HETATM   15  O   UNL     1      44.314 -15.318   7.766  1.00  0.00    -0.272 OA
BRANCH  12  16
HETATM   16  C   UNL     1      44.217 -19.848   4.007  1.00  0.00     0.075 A 
HETATM   17  C   UNL     1      43.681 -19.542   2.755  1.00  0.00     0.033 A 
HETATM   18  C   UNL     1      43.616 -20.525   1.760  1.00  0.00     0.002 A 
HETATM   19  C   UNL     1      44.079 -21.818   2.006  1.00  0.00     0.003 A 
HETATM   20  C   UNL     1      44.615 -22.134   3.252  1.00  0.00     0.044 A 
HETATM   21  C   UNL     1      44.682 -21.150   4.234  1.00  0.00     0.143 A 
HETATM   22  F   UNL     1      45.208 -21.459   5.431  1.00  0.00    -0.204 F 
ENDBRANCH  12  16
ENDBRANCH   7   8
ENDBRANCH   6   7
ENDBRANCH   1   6
BRANCH   2  23
HETATM   23  C   UNL     1      41.177 -14.633   2.504  1.00  0.00     0.043 A 
HETATM   24  C   UNL     1      42.040 -14.932   1.440  1.00  0.00     0.033 A 
HETATM   25  C   UNL     1      41.951 -16.171   0.803  1.00  0.00     0.044 A 
HETATM   26  C   UNL     1      41.002 -17.095   1.221  1.00  0.00     0.116 A 
HETATM   27  F   UNL     1      40.918 -18.281   0.607  1.00  0.00    -0.206 F 
HETATM   28  C   UNL     1      40.132 -16.804   2.267  1.00  0.00     0.044 A 
HETATM   29  C   UNL     1      40.215 -15.569   2.913  1.00  0.00     0.033 A 
ENDBRANCH   2  23
BRANCH   3  30
HETATM   30  C   UNL     1      39.159 -12.279   2.229  1.00  0.00     0.315 C 
BRANCH  30  31
HETATM   31  N   UNL     1      39.396 -12.594   0.756  1.00  0.00    -0.064 N 
HETATM   32  H   UNL     1      40.252 -13.176   0.754  1.00  0.00     0.280 HD
HETATM   33  C   UNL     1      38.296 -13.456   0.181  1.00  0.00     0.235 C 
HETATM   34  C   UNL     1      38.643 -13.843  -1.249  1.00  0.00     0.028 C 
HETATM   35  C   UNL     1      38.917 -12.617  -2.112  1.00  0.00     0.003 C 
HETATM   36  C   UNL     1      40.000 -11.744  -1.491  1.00  0.00     0.028 C 
HETATM   37  C   UNL     1      39.662 -11.359  -0.058  1.00  0.00     0.235 C 
ENDBRANCH  30  31
ENDBRANCH   3  30
TORSDOF 7
ENDMDL
MODEL 6
REMARK VINA RESULT:      -8.2      5.090      7.872
REMARK  7 active torsions:
REMARK  status: ('A' for Active; 'I' for Inactive)
REMARK    1  A    between atoms: C_3  and  N_4 
REMARK       I    between atoms: N_4  and  C_5 
REMARK       I    between atoms: C_5  and  N_6 
REMARK       I    between atoms: N_6  and  C_7 
REMARK    2  A    between atoms: C_7  and  C_8 
REMARK    3  A    between atoms: C_8  and  S_9 
REMARK    4  A    between atoms: S_9  and  C_10 
REMARK    5  A    between atoms: N_11  and  C_12 
REMARK    6  A    between atoms: C_19  and  C_20 
REMARK    7  A    between atoms: C_20  and  N_21 
ROOT
HETATM    1  C   UNL     1      41.476 -13.195   5.031  1.00  0.00     0.196 A 
HETATM    2  N   UNL     1      41.713 -14.548   4.872  1.00  0.00    -0.274 N 
HETATM    3  C   UNL     1      41.121 -14.845   3.652  1.00  0.00     0.161 A 
HETATM    4  N   UNL     1      40.607 -13.752   3.122  1.00  0.00    -0.132 NA
HETATM    5  N   UNL     1      40.840 -12.718   3.984  1.00  0.00    -0.122 NA
ENDROOT
BRANCH   1   6
HETATM    6  S   UNL     1      42.097 -12.238   6.332  1.00  0.00    -0.080 SA
BRANCH   6   7
HETATM    7  C   UNL     1      40.691 -11.132   6.664  1.00  0.00     0.185 C 
BRANCH   7   8
HETATM    8  C   UNL     1      39.527 -11.864   7.329  1.00  0.00     0.235 C 
HETATM    9  N   UNL     1      39.379 -11.756   8.698  1.00  0.00    -0.278 N 
HETATM   10  C   UNL     1      40.238 -11.188   9.629  1.00  0.00     0.327 C 
HETATM   11  H   UNL     1      38.571 -12.245   9.047  1.00  0.00     0.173 HD
HETATM   12  N   UNL     1      39.673 -11.157  10.885  1.00  0.00    -0.306 N 
HETATM   13  O   UNL     1      41.348 -10.766   9.334  1.00  0.00    -0.247 OA
HETATM   14  H   UNL     1      38.840 -11.708  11.057  1.00  0.00     0.171 HD
HETATM   15  O   UNL     1      38.715 -12.566   6.717  1.00  0.00    -0.272 OA
BRANCH  12  16
HETATM   16  C   UNL     1      40.169 -10.498  12.034  1.00  0.00     0.075 A 
HETATM   17  C   UNL     1      41.006 -11.086  12.983  1.00  0.00     0.033 A 
HETATM   18  C   UNL     1      41.475 -10.334  14.068  1.00  0.00     0.002 A 
HETATM   19  C   UNL     1      41.110  -8.996  14.216  1.00  0.00     0.003 A 
HETATM   20  C   UNL     1      40.274  -8.399  13.274  1.00  0.00     0.044 A 
HETATM   21  C   UNL     1      39.818  -9.151  12.197  1.00  0.00     0.143 A 
HETATM   22  F   UNL     1      39.020  -8.568  11.287  1.00  0.00    -0.204 F 
ENDBRANCH  12  16
ENDBRANCH   7   8
ENDBRANCH   6   7
ENDBRANCH   1   6
BRANCH   2  23
HETATM   23  C   UNL     1      42.368 -15.455   5.741  1.00  0.00     0.043 A 
HETATM   24  C   UNL     1      41.621 -16.332   6.541  1.00  0.00     0.033 A 
HETATM   25  C   UNL     1      42.278 -17.231   7.383  1.00  0.00     0.044 A 
HETATM   26  C   UNL     1      43.667 -17.244   7.429  1.00  0.00     0.116 A 
HETATM   27  F   UNL     1      44.294 -18.106   8.239  1.00  0.00    -0.206 F 
HETATM   28  C   UNL     1      44.417 -16.370   6.650  1.00  0.00     0.044 A 
HETATM   29  C   UNL     1      43.769 -15.470   5.802  1.00  0.00     0.033 A 
ENDBRANCH   2  23
BRANCH   3  30
HETATM   30  C   UNL     1      40.893 -16.208   3.106  1.00  0.00     0.315 C 
BRANCH  30  31
HETATM   31  N   UNL     1      42.209 -16.904   2.771  1.00  0.00    -0.064 N 
HETATM   32  H   UNL     1      42.936 -16.255   3.119  1.00  0.00     0.280 HD
HETATM   33  C   UNL     1      42.380 -18.188   3.549  1.00  0.00     0.235 C 
HETATM   34  C   UNL     1      43.756 -18.774   3.275  1.00  0.00     0.028 C 
HETATM   35  C   UNL     1      43.992 -18.977   1.783  1.00  0.00     0.003 C 
HETATM   36  C   UNL     1      43.775 -17.678   1.016  1.00  0.00     0.028 C 
HETATM   37  C   UNL     1      42.402 -17.083   1.291  1.00  0.00     0.235 C 
ENDBRANCH  30  31
ENDBRANCH   3  30
TORSDOF 7
ENDMDL
MODEL 7
REMARK VINA RESULT:      -8.1      3.729      5.214
REMARK  7 active torsions:
REMARK  status: ('A' for Active; 'I' for Inactive)
REMARK    1  A    between atoms: C_3  and  N_4 
REMARK       I    between atoms: N_4  and  C_5 
REMARK       I    between atoms: C_5  and  N_6 
REMARK       I    between atoms: N_6  and  C_7 
REMARK    2  A    between atoms: C_7  and  C_8 
REMARK    3  A    between atoms: C_8  and  S_9 
REMARK    4  A    between atoms: S_9  and  C_10 
REMARK    5  A    between atoms: N_11  and  C_12 
REMARK    6  A    between atoms: C_19  and  C_20 
REMARK    7  A    between atoms: C_20  and  N_21 
ROOT
HETATM    1  C   UNL     1      40.450 -15.141   0.601  1.00  0.00     0.196 A 
HETATM    2  N   UNL     1      39.968 -13.978   0.028  1.00  0.00    -0.274 N 
HETATM    3  C   UNL     1      40.633 -13.909  -1.188  1.00  0.00     0.161 A 
HETATM    4  N   UNL     1      41.415 -14.961  -1.334  1.00  0.00    -0.132 NA
HETATM    5  N   UNL     1      41.291 -15.736  -0.216  1.00  0.00    -0.122 NA
ENDROOT
BRANCH   1   6
HETATM    6  S   UNL     1      39.880 -15.809   2.092  1.00  0.00    -0.080 SA
BRANCH   6   7
HETATM    7  C   UNL     1      41.031 -15.056   3.283  1.00  0.00     0.185 C 
BRANCH   7   8
HETATM    8  C   UNL     1      42.422 -14.851   2.689  1.00  0.00     0.235 C 
HETATM    9  N   UNL     1      43.255 -15.948   2.572  1.00  0.00    -0.278 N 
HETATM   10  C   UNL     1      43.082 -17.234   3.064  1.00  0.00     0.327 C 
HETATM   11  H   UNL     1      44.139 -15.727   2.144  1.00  0.00     0.173 HD
HETATM   12  N   UNL     1      44.075 -18.082   2.623  1.00  0.00    -0.306 N 
HETATM   13  O   UNL     1      42.146 -17.545   3.788  1.00  0.00    -0.247 OA
HETATM   14  H   UNL     1      44.903 -17.680   2.198  1.00  0.00     0.171 HD
HETATM   15  O   UNL     1      42.860 -13.756   2.321  1.00  0.00    -0.272 OA
BRANCH  12  16
HETATM   16  C   UNL     1      44.131 -19.487   2.768  1.00  0.00     0.075 A 
HETATM   17  C   UNL     1      43.703 -20.399   1.802  1.00  0.00     0.033 A 
HETATM   18  C   UNL     1      43.837 -21.775   2.028  1.00  0.00     0.002 A 
HETATM   19  C   UNL     1      44.392 -22.250   3.217  1.00  0.00     0.003 A 
HETATM   20  C   UNL     1      44.821 -21.348   4.187  1.00  0.00     0.044 A 
HETATM   21  C   UNL     1      44.691 -19.983   3.953  1.00  0.00     0.143 A 
HETATM   22  F   UNL     1      45.116 -19.118   4.889  1.00  0.00    -0.204 F 
ENDBRANCH  12  16
ENDBRANCH   7   8
ENDBRANCH   6   7
ENDBRANCH   1   6
BRANCH   2  23
HETATM   23  C   UNL     1      39.043 -13.037   0.546  1.00  0.00     0.043 A 
HETATM   24  C   UNL     1      37.711 -13.040   0.107  1.00  0.00     0.033 A 
HETATM   25  C   UNL     1      36.806 -12.118   0.635  1.00  0.00     0.044 A 
HETATM   26  C   UNL     1      37.234 -11.197   1.584  1.00  0.00     0.116 A 
HETATM   27  F   UNL     1      36.364 -10.313   2.086  1.00  0.00    -0.206 F 
HETATM   28  C   UNL     1      38.555 -11.177   2.017  1.00  0.00     0.044 A 
HETATM   29  C   UNL     1      39.467 -12.098   1.498  1.00  0.00     0.033 A 
ENDBRANCH   2  23
BRANCH   3  30
HETATM   30  C   UNL     1      40.647 -12.740  -2.106  1.00  0.00     0.315 C 
BRANCH  30  31
HETATM   31  N   UNL     1      41.406 -11.564  -1.501  1.00  0.00    -0.064 N 
HETATM   32  H   UNL     1      41.513 -11.814  -0.503  1.00  0.00     0.280 HD
HETATM   33  C   UNL     1      42.805 -11.449  -2.061  1.00  0.00     0.235 C 
HETATM   34  C   UNL     1      43.557 -10.342  -1.337  1.00  0.00     0.028 C 
HETATM   35  C   UNL     1      42.807  -9.017  -1.402  1.00  0.00     0.003 C 
HETATM   36  C   UNL     1      41.387  -9.169  -0.869  1.00  0.00     0.028 C 
HETATM   37  C   UNL     1      40.631 -10.278  -1.585  1.00  0.00     0.235 C 
ENDBRANCH  30  31
ENDBRANCH   3  30
TORSDOF 7
ENDMDL
MODEL 8
REMARK VINA RESULT:      -8.1      2.191      2.756
REMARK  7 active torsions:
REMARK  status: ('A' for Active; 'I' for Inactive)
REMARK    1  A    between atoms: C_3  and  N_4 
REMARK       I    between atoms: N_4  and  C_5 
REMARK       I    between atoms: C_5  and  N_6 
REMARK       I    between atoms: N_6  and  C_7 
REMARK    2  A    between atoms: C_7  and  C_8 
REMARK    3  A    between atoms: C_8  and  S_9 
REMARK    4  A    between atoms: S_9  and  C_10 
REMARK    5  A    between atoms: N_11  and  C_12 
REMARK    6  A    between atoms: C_19  and  C_20 
REMARK    7  A    between atoms: C_20  and  N_21 
ROOT
HETATM    1  C   UNL     1      41.541 -12.740   1.879  1.00  0.00     0.196 A 
HETATM    2  N   UNL     1      41.775 -13.783   1.002  1.00  0.00    -0.274 N 
HETATM    3  C   UNL     1      41.747 -13.177  -0.247  1.00  0.00     0.161 A 
HETATM    4  N   UNL     1      41.546 -11.880  -0.114  1.00  0.00    -0.132 NA
HETATM    5  N   UNL     1      41.428 -11.608   1.220  1.00  0.00    -0.122 NA
ENDROOT
BRANCH   1   6
HETATM    6  S   UNL     1      41.584 -12.880   3.602  1.00  0.00    -0.080 SA
BRANCH   6   7
HETATM    7  C   UNL     1      39.887 -13.431   3.958  1.00  0.00     0.185 C 
BRANCH   7   8
HETATM    8  C   UNL     1      39.612 -13.518   5.457  1.00  0.00     0.235 C 
HETATM    9  N   UNL     1      40.204 -14.538   6.176  1.00  0.00    -0.278 N 
HETATM   10  C   UNL     1      40.921 -15.633   5.713  1.00  0.00     0.327 C 
HETATM   11  H   UNL     1      39.993 -14.501   7.160  1.00  0.00     0.173 HD
HETATM   12  N   UNL     1      41.466 -16.356   6.752  1.00  0.00    -0.306 N 
HETATM   13  O   UNL     1      41.045 -15.888   4.523  1.00  0.00    -0.247 OA
HETATM   14  H   UNL     1      41.139 -16.175   7.693  1.00  0.00     0.171 HD
HETATM   15  O   UNL     1      38.873 -12.739   6.068  1.00  0.00    -0.272 OA
BRANCH  12  16
HETATM   16  C   UNL     1      42.397 -17.417   6.663  1.00  0.00     0.075 A 
HETATM   17  C   UNL     1      42.513 -18.278   5.572  1.00  0.00     0.033 A 
HETATM   18  C   UNL     1      43.495 -19.276   5.565  1.00  0.00     0.002 A 
HETATM   19  C   UNL     1      44.364 -19.426   6.647  1.00  0.00     0.003 A 
HETATM   20  C   UNL     1      44.256 -18.572   7.742  1.00  0.00     0.044 A 
HETATM   21  C   UNL     1      43.282 -17.579   7.738  1.00  0.00     0.143 A 
HETATM   22  F   UNL     1      43.189 -16.752   8.793  1.00  0.00    -0.204 F 
ENDBRANCH  12  16
ENDBRANCH   7   8
ENDBRANCH   6   7
ENDBRANCH   1   6
BRANCH   2  23
HETATM   23  C   UNL     1      41.966 -15.161   1.273  1.00  0.00     0.043 A 
HETATM   24  C   UNL     1      43.214 -15.629   1.710  1.00  0.00     0.033 A 
HETATM   25  C   UNL     1      43.386 -16.986   1.988  1.00  0.00     0.044 A 
HETATM   26  C   UNL     1      42.323 -17.864   1.822  1.00  0.00     0.116 A 
HETATM   27  F   UNL     1      42.491 -19.165   2.087  1.00  0.00    -0.206 F 
HETATM   28  C   UNL     1      41.084 -17.413   1.378  1.00  0.00     0.044 A 
HETATM   29  C   UNL     1      40.901 -16.057   1.100  1.00  0.00     0.033 A 
ENDBRANCH   2  23
BRANCH   3  30
HETATM   30  C   UNL     1      41.725 -13.883  -1.555  1.00  0.00     0.315 C 
BRANCH  30  31
HETATM   31  N   UNL     1      40.323 -14.376  -1.900  1.00  0.00    -0.064 N 
HETATM   32  H   UNL     1      40.178 -15.190  -1.278  1.00  0.00     0.280 HD
HETATM   33  C   UNL     1      39.263 -13.365  -1.530  1.00  0.00     0.235 C 
HETATM   34  C   UNL     1      37.883 -13.954  -1.779  1.00  0.00     0.028 C 
HETATM   35  C   UNL     1      37.730 -14.439  -3.215  1.00  0.00     0.003 C 
HETATM   36  C   UNL     1      38.833 -15.426  -3.577  1.00  0.00     0.028 C 
HETATM   37  C   UNL     1      40.217 -14.845  -3.325  1.00  0.00     0.235 C 
ENDBRANCH  30  31
ENDBRANCH   3  30
TORSDOF 7
ENDMDL
MODEL 9
REMARK VINA RESULT:      -7.9      2.998      8.135
REMARK  7 active torsions:
REMARK  status: ('A' for Active; 'I' for Inactive)
REMARK    1  A    between atoms: C_3  and  N_4 
REMARK       I    between atoms: N_4  and  C_5 
REMARK       I    between atoms: C_5  and  N_6 
REMARK       I    between atoms: N_6  and  C_7 
REMARK    2  A    between atoms: C_7  and  C_8 
REMARK    3  A    between atoms: C_8  and  S_9 
REMARK    4  A    between atoms: S_9  and  C_10 
REMARK    5  A    between atoms: N_11  and  C_12 
REMARK    6  A    between atoms: C_19  and  C_20 
REMARK    7  A    between atoms: C_20  and  N_21 
ROOT
HETATM    1  C   UNL     1      41.264 -13.556   4.343  1.00  0.00     0.196 A 
HETATM    2  N   UNL     1      41.360 -14.931   4.231  1.00  0.00    -0.274 N 
HETATM    3  C   UNL     1      40.764 -15.400   5.394  1.00  0.00     0.161 A 
HETATM    4  N   UNL     1      40.325 -14.386   6.115  1.00  0.00    -0.132 NA
HETATM    5  N   UNL     1      40.631 -13.233   5.448  1.00  0.00    -0.122 NA
ENDROOT
BRANCH   1   6
HETATM    6  S   UNL     1      41.739 -12.438   3.112  1.00  0.00    -0.080 SA
BRANCH   6   7
HETATM    7  C   UNL     1      40.125 -11.944   2.434  1.00  0.00     0.185 C 
BRANCH   7   8
HETATM    8  C   UNL     1      40.263 -10.963   1.273  1.00  0.00     0.235 C 
HETATM    9  N   UNL     1      40.065 -11.432  -0.012  1.00  0.00    -0.278 N 
HETATM   10  C   UNL     1      39.899 -12.738  -0.450  1.00  0.00     0.327 C 
HETATM   11  H   UNL     1      40.146 -10.712  -0.711  1.00  0.00     0.173 HD
HETATM   12  N   UNL     1      39.591 -12.786  -1.793  1.00  0.00    -0.306 N 
HETATM   13  O   UNL     1      40.006 -13.705   0.293  1.00  0.00    -0.247 OA
HETATM   14  H   UNL     1      39.724 -11.951  -2.350  1.00  0.00     0.171 HD
HETATM   15  O   UNL     1      40.562  -9.772   1.409  1.00  0.00    -0.272 OA
BRANCH  12  16
HETATM   16  C   UNL     1      39.180 -13.914  -2.539  1.00  0.00     0.075 A 
HETATM   17  C   UNL     1      37.860 -14.184  -2.902  1.00  0.00     0.033 A 
HETATM   18  C   UNL     1      37.561 -15.312  -3.677  1.00  0.00     0.002 A 
HETATM   19  C   UNL     1      38.574 -16.178  -4.092  1.00  0.00     0.003 A 
HETATM   20  C   UNL     1      39.894 -15.918  -3.735  1.00  0.00     0.044 A 
HETATM   21  C   UNL     1      40.184 -14.793  -2.970  1.00  0.00     0.143 A 
HETATM   22  F   UNL     1      41.461 -14.542  -2.637  1.00  0.00    -0.204 F 
ENDBRANCH  12  16
ENDBRANCH   7   8
ENDBRANCH   6   7
ENDBRANCH   1   6
BRANCH   2  23
HETATM   23  C   UNL     1      41.951 -15.712   3.206  1.00  0.00     0.043 A 
HETATM   24  C   UNL     1      41.145 -16.429   2.310  1.00  0.00     0.033 A 
HETATM   25  C   UNL     1      41.739 -17.182   1.296  1.00  0.00     0.044 A 
HETATM   26  C   UNL     1      43.123 -17.223   1.187  1.00  0.00     0.116 A 
HETATM   27  F   UNL     1      43.689 -17.948   0.214  1.00  0.00    -0.206 F 
HETATM   28  C   UNL     1      43.932 -16.525   2.077  1.00  0.00     0.044 A 
HETATM   29  C   UNL     1      43.348 -15.766   3.093  1.00  0.00     0.033 A 
ENDBRANCH   2  23
BRANCH   3  30
HETATM   30  C   UNL     1      40.796 -16.803   5.883  1.00  0.00     0.315 C 
BRANCH  30  31
HETATM   31  N   UNL     1      42.226 -17.307   6.044  1.00  0.00    -0.064 N 
HETATM   32  H   UNL     1      42.812 -16.540   5.670  1.00  0.00     0.280 HD
HETATM   33  C   UNL     1      42.608 -17.461   7.498  1.00  0.00     0.235 C 
HETATM   34  C   UNL     1      44.076 -17.844   7.604  1.00  0.00     0.028 C 
HETATM   35  C   UNL     1      44.389 -19.099   6.797  1.00  0.00     0.003 C 
HETATM   36  C   UNL     1      43.958 -18.933   5.345  1.00  0.00     0.028 C 
HETATM   37  C   UNL     1      42.492 -18.544   5.232  1.00  0.00     0.235 C 
ENDBRANCH  30  31
ENDBRANCH   3  30
TORSDOF 7
ENDMDL
MODEL 10
REMARK VINA RESULT:      -7.7      3.191      4.730
REMARK  7 active torsions:
REMARK  status: ('A' for Active; 'I' for Inactive)
REMARK    1  A    between atoms: C_3  and  N_4 
REMARK       I    between atoms: N_4  and  C_5 
REMARK       I    between atoms: C_5  and  N_6 
REMARK       I    between atoms: N_6  and  C_7 
REMARK    2  A    between atoms: C_7  and  C_8 
REMARK    3  A    between atoms: C_8  and  S_9 
REMARK    4  A    between atoms: S_9  and  C_10 
REMARK    5  A    between atoms: N_11  and  C_12 
REMARK    6  A    between atoms: C_19  and  C_20 
REMARK    7  A    between atoms: C_20  and  N_21 
ROOT
HETATM    1  C   UNL     1      41.298 -12.357   1.791  1.00  0.00     0.196 A 
HETATM    2  N   UNL     1      40.448 -12.378   0.700  1.00  0.00    -0.274 N 
HETATM    3  C   UNL     1      41.293 -12.629  -0.373  1.00  0.00     0.161 A 
HETATM    4  N   UNL     1      42.532 -12.777   0.055  1.00  0.00    -0.132 NA
HETATM    5  N   UNL     1      42.530 -12.616   1.412  1.00  0.00    -0.122 NA
ENDROOT
BRANCH   1   6
HETATM    6  S   UNL     1      40.780 -12.203   3.434  1.00  0.00    -0.080 SA
BRANCH   6   7
HETATM    7  C   UNL     1      40.059 -13.846   3.737  1.00  0.00     0.185 C 
BRANCH   7   8
HETATM    8  C   UNL     1      40.389 -14.372   5.131  1.00  0.00     0.235 C 
HETATM    9  N   UNL     1      41.093 -15.556   5.238  1.00  0.00    -0.278 N 
HETATM   10  C   UNL     1      41.436 -16.462   4.244  1.00  0.00     0.327 C 
HETATM   11  H   UNL     1      41.293 -15.811   6.191  1.00  0.00     0.173 HD
HETATM   12  N   UNL     1      42.259 -17.456   4.728  1.00  0.00    -0.306 N 
HETATM   13  O   UNL     1      41.050 -16.354   3.088  1.00  0.00    -0.247 OA
HETATM   14  H   UNL     1      42.353 -17.562   5.731  1.00  0.00     0.171 HD
HETATM   15  O   UNL     1      40.048 -13.811   6.178  1.00  0.00    -0.272 OA
BRANCH  12  16
HETATM   16  C   UNL     1      42.948 -18.439   3.982  1.00  0.00     0.075 A 
HETATM   17  C   UNL     1      42.748 -18.684   2.623  1.00  0.00     0.033 A 
HETATM   18  C   UNL     1      43.511 -19.657   1.965  1.00  0.00     0.002 A 
HETATM   19  C   UNL     1      44.472 -20.395   2.657  1.00  0.00     0.003 A 
HETATM   20  C   UNL     1      44.679 -20.159   4.014  1.00  0.00     0.044 A 
HETATM   21  C   UNL     1      43.922 -19.186   4.659  1.00  0.00     0.143 A 
HETATM   22  F   UNL     1      44.133 -18.956   5.965  1.00  0.00    -0.204 F 
ENDBRANCH  12  16
ENDBRANCH   7   8
ENDBRANCH   6   7
ENDBRANCH   1   6
BRANCH   2  23
HETATM   23  C   UNL     1      39.048 -12.162   0.646  1.00  0.00     0.043 A 
HETATM   24  C   UNL     1      38.534 -10.858   0.635  1.00  0.00     0.033 A 
HETATM   25  C   UNL     1      37.154 -10.658   0.566  1.00  0.00     0.044 A 
HETATM   26  C   UNL     1      36.300 -11.752   0.520  1.00  0.00     0.116 A 
HETATM   27  F   UNL     1      34.977 -11.558   0.457  1.00  0.00    -0.206 F 
HETATM   28  C   UNL     1      36.799 -13.051   0.543  1.00  0.00     0.044 A 
HETATM   29  C   UNL     1      38.177 -13.261   0.607  1.00  0.00     0.033 A 
ENDBRANCH   2  23
BRANCH   3  30
HETATM   30  C   UNL     1      40.925 -12.535  -1.809  1.00  0.00     0.315 C 
BRANCH  30  31
HETATM   31  N   UNL     1      40.156 -13.768  -2.271  1.00  0.00    -0.064 N 
HETATM   32  H   UNL     1      39.777 -14.176  -1.399  1.00  0.00     0.280 HD
HETATM   33  C   UNL     1      38.961 -13.400  -3.120  1.00  0.00     0.235 C 
HETATM   34  C   UNL     1      38.161 -14.652  -3.449  1.00  0.00     0.028 C 
HETATM   35  C   UNL     1      39.027 -15.713  -4.115  1.00  0.00     0.003 C 
HETATM   36  C   UNL     1      40.246 -16.037  -3.260  1.00  0.00     0.028 C 
HETATM   37  C   UNL     1      41.047 -14.789  -2.922  1.00  0.00     0.235 C 
ENDBRANCH  30  31
ENDBRANCH   3  30
TORSDOF 7
ENDMDL
