MODEL 1
REMARK VINA RESULT:     -10.2      0.000      0.000
REMARK  6 active torsions:
REMARK  status: ('A' for Active; 'I' for Inactive)
REMARK    1  A    between atoms: C_7  and  C_8 
REMARK    2  A    between atoms: C_8  and  O_9 
REMARK    3  A    between atoms: O_9  and  C_10 
REMARK    4  A    between atoms: C_10  and  C_11 
REMARK       I    between atoms: C_11  and  N_12 
REMARK    5  A    between atoms: N_12  and  N_13 
REMARK    6  A    between atoms: C_17  and  C_18 
ROOT
HETATM    1  C   UNL     1      43.952 -14.806   6.542  1.00  0.00     0.261 C 
HETATM    2  N   UNL     1      42.889 -14.636   5.680  1.00  0.00    -0.255 N 
HETATM    3  O   UNL     1      44.393 -15.904   6.876  1.00  0.00    -0.269 OA
HETATM    4  H   UNL     1      42.687 -13.722   5.275  1.00  0.00     0.191 HD
ENDROOT
BRANCH   1   5
HETATM    5  C   UNL     1      44.581 -13.494   7.019  1.00  0.00     0.283 C 
BRANCH   5   6
HETATM    6  O   UNL     1      44.930 -13.462   8.404  1.00  0.00    -0.308 OA
BRANCH   6   7
HETATM    7  C   UNL     1      45.179 -12.234   8.918  1.00  0.00     0.293 C 
HETATM    8  O   UNL     1      46.102 -11.508   8.577  1.00  0.00    -0.259 OA
BRANCH   7   9
HETATM    9  C   UNL     1      44.129 -11.838   9.893  1.00  0.00     0.040 A 
HETATM   10  C   UNL     1      44.275 -12.258  11.219  1.00  0.00     0.020 A 
HETATM   11  C   UNL     1      43.356 -11.880  12.203  1.00  0.00     0.031 A 
HETATM   12  C   UNL     1      42.287 -11.067  11.811  1.00  0.00     0.043 A 
HETATM   13  C   UNL     1      42.095 -10.647  10.495  1.00  0.00    -0.001 A 
HETATM   14  N   UNL     1      41.268 -10.530  12.559  1.00  0.00    -0.359 N 
HETATM   15  C   UNL     1      40.909  -9.845  10.470  1.00  0.00    -0.027 A 
HETATM   16  C   UNL     1      43.033 -11.044   9.517  1.00  0.00     0.032 A 
HETATM   17  C   UNL     1      40.302  -9.187   9.280  1.00  0.00     0.051 C 
HETATM   18  C   UNL     1      40.438  -9.774  11.771  1.00  0.00     0.012 A 
HETATM   19  C   UNL     1      39.274  -9.046  12.339  1.00  0.00     0.068 C 
HETATM   20  H   UNL     1      41.164 -10.659  13.556  1.00  0.00     0.166 HD
ENDBRANCH   7   9
ENDBRANCH   6   7
ENDBRANCH   5   6
ENDBRANCH   1   5
BRANCH   2  21
HETATM   21  N   UNL     1      42.387 -15.745   5.034  1.00  0.00    -0.167 N 
HETATM   22  C   UNL     1      41.349 -16.502   5.502  1.00  0.00     0.345 A 
HETATM   23  O   UNL     1      40.686 -16.350   6.515  1.00  0.00    -0.245 OA
HETATM   24  N   UNL     1      41.104 -17.493   4.570  1.00  0.00    -0.319 N 
HETATM   25  C   UNL     1      41.985 -17.410   3.415  1.00  0.00     0.141 A 
HETATM   26  H   UNL     1      40.363 -18.167   4.702  1.00  0.00     0.166 HD
HETATM   27  C   UNL     1      42.792 -16.138   3.784  1.00  0.00     0.279 A 
HETATM   28  C   UNL     1      41.147 -17.138   2.163  1.00  0.00     0.055 C 
HETATM   29  O   UNL     1      43.608 -15.564   3.069  1.00  0.00    -0.268 OA
BRANCH  25  30
HETATM   30  C   UNL     1      42.890 -18.628   3.261  1.00  0.00    -0.021 A 
HETATM   31  C   UNL     1      43.768 -19.049   4.275  1.00  0.00     0.010 A 
HETATM   32  C   UNL     1      44.587 -20.169   4.102  1.00  0.00     0.001 A 
HETATM   33  C   UNL     1      44.548 -20.888   2.911  1.00  0.00     0.000 A 
HETATM   34  C   UNL     1      43.693 -20.487   1.891  1.00  0.00     0.001 A 
HETATM   35  C   UNL     1      42.873 -19.370   2.064  1.00  0.00     0.010 A 
ENDBRANCH  25  30
ENDBRANCH   2  21
TORSDOF 6
ENDMDL
MODEL 2
REMARK VINA RESULT:     -10.0      1.110      1.919
REMARK  6 active torsions:
REMARK  status: ('A' for Active; 'I' for Inactive)
REMARK    1  A    between atoms: C_7  and  C_8 
REMARK    2  A    between atoms: C_8  and  O_9 
REMARK    3  A    between atoms: O_9  and  C_10 
REMARK    4  A    between atoms: C_10  and  C_11 
REMARK       I    between atoms: C_11  and  N_12 
REMARK    5  A    between atoms: N_12  and  N_13 
REMARK    6  A    between atoms: C_17  and  C_18 
ROOT
HETATM    1  C   UNL     1      44.198 -15.092   6.558  1.00  0.00     0.261 C 
HETATM    2  N   UNL     1      43.122 -14.838   5.735  1.00  0.00    -0.255 N 
HETATM    3  O   UNL     1      44.606 -16.222   6.822  1.00  0.00    -0.269 OA
HETATM    4  H   UNL     1      42.943 -13.896   5.385  1.00  0.00     0.191 HD
ENDROOT
BRANCH   1   5
HETATM    5  C   UNL     1      44.887 -13.831   7.088  1.00  0.00     0.283 C 
BRANCH   5   6
HETATM    6  O   UNL     1      44.033 -12.931   7.797  1.00  0.00    -0.308 OA
BRANCH   6   7
HETATM    7  C   UNL     1      44.607 -12.267   8.828  1.00  0.00     0.293 C 
HETATM    8  O   UNL     1      45.757 -12.431   9.211  1.00  0.00    -0.259 OA
BRANCH   7   9
HETATM    9  C   UNL     1      43.687 -11.240   9.382  1.00  0.00     0.040 A 
HETATM   10  C   UNL     1      42.701 -10.719   8.538  1.00  0.00     0.020 A 
HETATM   11  C   UNL     1      41.767  -9.789   9.003  1.00  0.00     0.031 A 
HETATM   12  C   UNL     1      41.856  -9.399  10.344  1.00  0.00     0.043 A 
HETATM   13  C   UNL     1      42.837  -9.878  11.211  1.00  0.00    -0.001 A 
HETATM   14  N   UNL     1      41.066  -8.538  11.066  1.00  0.00    -0.359 N 
HETATM   15  C   UNL     1      42.623  -9.261  12.485  1.00  0.00    -0.027 A 
HETATM   16  C   UNL     1      43.773 -10.814  10.718  1.00  0.00     0.032 A 
HETATM   17  C   UNL     1      43.431  -9.459  13.720  1.00  0.00     0.051 C 
HETATM   18  C   UNL     1      41.501  -8.456  12.364  1.00  0.00     0.012 A 
HETATM   19  C   UNL     1      40.798  -7.621  13.372  1.00  0.00     0.068 C 
HETATM   20  H   UNL     1      40.263  -8.051  10.691  1.00  0.00     0.166 HD
ENDBRANCH   7   9
ENDBRANCH   6   7
ENDBRANCH   5   6
ENDBRANCH   1   5
BRANCH   2  21
HETATM   21  N   UNL     1      42.564 -15.892   5.044  1.00  0.00    -0.167 N 
HETATM   22  C   UNL     1      41.503 -16.629   5.493  1.00  0.00     0.345 A 
HETATM   23  O   UNL     1      40.865 -16.503   6.526  1.00  0.00    -0.245 OA
HETATM   24  N   UNL     1      41.202 -17.561   4.518  1.00  0.00    -0.319 N 
HETATM   25  C   UNL     1      42.065 -17.454   3.352  1.00  0.00     0.141 A 
HETATM   26  H   UNL     1      40.436 -18.211   4.630  1.00  0.00     0.166 HD
HETATM   27  C   UNL     1      42.930 -16.236   3.768  1.00  0.00     0.279 A 
HETATM   28  C   UNL     1      41.218 -17.086   2.131  1.00  0.00     0.055 C 
HETATM   29  O   UNL     1      43.756 -15.660   3.067  1.00  0.00    -0.268 OA
BRANCH  25  30
HETATM   30  C   UNL     1      42.917 -18.698   3.119  1.00  0.00    -0.021 A 
HETATM   31  C   UNL     1      42.764 -19.516   1.985  1.00  0.00     0.010 A 
HETATM   32  C   UNL     1      43.559 -20.651   1.801  1.00  0.00     0.001 A 
HETATM   33  C   UNL     1      44.519 -20.995   2.749  1.00  0.00     0.000 A 
HETATM   34  C   UNL     1      44.684 -20.206   3.881  1.00  0.00     0.001 A 
HETATM   35  C   UNL     1      43.892 -19.071   4.065  1.00  0.00     0.010 A 
ENDBRANCH  25  30
ENDBRANCH   2  21
TORSDOF 6
ENDMDL
MODEL 3
REMARK VINA RESULT:      -9.6      4.524      8.327
REMARK  6 active torsions:
REMARK  status: ('A' for Active; 'I' for Inactive)
REMARK    1  A    between atoms: C_7  and  C_8 
REMARK    2  A    between atoms: C_8  and  O_9 
REMARK    3  A    between atoms: O_9  and  C_10 
REMARK    4  A    between atoms: C_10  and  C_11 
REMARK       I    between atoms: C_11  and  N_12 
REMARK    5  A    between atoms: N_12  and  N_13 
REMARK    6  A    between atoms: C_17  and  C_18 
ROOT
HETATM    1  C   UNL     1      41.829 -14.305   4.845  1.00  0.00     0.261 C 
HETATM    2  N   UNL     1      42.251 -14.514   3.549  1.00  0.00    -0.255 N 
HETATM    3  O   UNL     1      40.648 -14.234   5.177  1.00  0.00    -0.269 OA
HETATM    4  H   UNL     1      43.219 -14.766   3.349  1.00  0.00     0.191 HD
ENDROOT
BRANCH   1   5
HETATM    5  C   UNL     1      42.970 -14.216   5.863  1.00  0.00     0.283 C 
BRANCH   5   6
HETATM    6  O   UNL     1      43.939 -15.261   5.774  1.00  0.00    -0.308 OA
BRANCH   6   7
HETATM    7  C   UNL     1      43.734 -16.323   6.589  1.00  0.00     0.293 C 
HETATM    8  O   UNL     1      43.324 -16.251   7.739  1.00  0.00    -0.259 OA
BRANCH   7   9
HETATM    9  C   UNL     1      43.986 -17.603   5.878  1.00  0.00     0.040 A 
HETATM   10  C   UNL     1      44.360 -18.714   6.642  1.00  0.00     0.020 A 
HETATM   11  C   UNL     1      44.562 -19.964   6.049  1.00  0.00     0.031 A 
HETATM   12  C   UNL     1      44.377 -20.061   4.666  1.00  0.00     0.043 A 
HETATM   13  C   UNL     1      44.026 -18.973   3.868  1.00  0.00    -0.001 A 
HETATM   14  N   UNL     1      44.477 -21.153   3.838  1.00  0.00    -0.359 N 
HETATM   15  C   UNL     1      43.934 -19.443   2.518  1.00  0.00    -0.027 A 
HETATM   16  C   UNL     1      43.832 -17.719   4.486  1.00  0.00     0.032 A 
HETATM   17  C   UNL     1      43.597 -18.635   1.314  1.00  0.00     0.051 C 
HETATM   18  C   UNL     1      44.194 -20.803   2.542  1.00  0.00     0.012 A 
HETATM   19  C   UNL     1      44.192 -21.807   1.446  1.00  0.00     0.068 C 
HETATM   20  H   UNL     1      44.706 -22.086   4.151  1.00  0.00     0.166 HD
ENDBRANCH   7   9
ENDBRANCH   6   7
ENDBRANCH   5   6
ENDBRANCH   1   5
BRANCH   2  21
HETATM   21  N   UNL     1      41.304 -14.814   2.593  1.00  0.00    -0.167 N 
HETATM   22  C   UNL     1      40.755 -16.055   2.420  1.00  0.00     0.345 A 
HETATM   23  O   UNL     1      40.966 -17.080   3.047  1.00  0.00    -0.245 OA
HETATM   24  N   UNL     1      39.822 -15.958   1.405  1.00  0.00    -0.319 N 
HETATM   25  C   UNL     1      39.707 -14.609   0.873  1.00  0.00     0.141 A 
HETATM   26  H   UNL     1      39.277 -16.758   1.114  1.00  0.00     0.166 HD
HETATM   27  C   UNL     1      40.714 -13.870   1.792  1.00  0.00     0.279 A 
HETATM   28  C   UNL     1      38.294 -14.083   1.136  1.00  0.00     0.055 C 
HETATM   29  O   UNL     1      40.911 -12.660   1.827  1.00  0.00    -0.268 OA
BRANCH  25  30
HETATM   30  C   UNL     1      40.105 -14.508  -0.597  1.00  0.00    -0.021 A 
HETATM   31  C   UNL     1      39.739 -13.417  -1.404  1.00  0.00     0.010 A 
HETATM   32  C   UNL     1      40.117 -13.354  -2.748  1.00  0.00     0.001 A 
HETATM   33  C   UNL     1      40.865 -14.382  -3.314  1.00  0.00     0.000 A 
HETATM   34  C   UNL     1      41.234 -15.475  -2.538  1.00  0.00     0.001 A 
HETATM   35  C   UNL     1      40.858 -15.538  -1.195  1.00  0.00     0.010 A 
ENDBRANCH  25  30
ENDBRANCH   2  21
TORSDOF 6
ENDMDL
MODEL 4
REMARK VINA RESULT:      -9.6      3.982      7.814
REMARK  6 active torsions:
REMARK  status: ('A' for Active; 'I' for Inactive)
REMARK    1  A    between atoms: C_7  and  C_8 
REMARK    2  A    between atoms: C_8  and  O_9 
REMARK    3  A    between atoms: O_9  and  C_10 
REMARK    4  A    between atoms: C_10  and  C_11 
REMARK       I    between atoms: C_11  and  N_12 
REMARK    5  A    between atoms: N_12  and  N_13 
REMARK    6  A    between atoms: C_17  and  C_18 
ROOT
HETATM    1  C   UNL     1      42.591 -13.237   5.184  1.00  0.00     0.261 C 
HETATM    2  N   UNL     1      42.401 -14.042   6.287  1.00  0.00    -0.255 N 
HETATM    3  O   UNL     1      43.476 -13.416   4.350  1.00  0.00    -0.269 OA
HETATM    4  H   UNL     1      41.544 -13.982   6.836  1.00  0.00     0.191 HD
ENDROOT
BRANCH   1   5
HETATM    5  C   UNL     1      41.561 -12.111   5.053  1.00  0.00     0.283 C 
BRANCH   5   6
HETATM    6  O   UNL     1      40.435 -12.417   4.229  1.00  0.00    -0.308 OA
BRANCH   6   7
HETATM    7  C   UNL     1      40.028 -13.709   4.249  1.00  0.00     0.293 C 
HETATM    8  O   UNL     1      39.415 -14.235   5.168  1.00  0.00    -0.259 OA
BRANCH   7   9
HETATM    9  C   UNL     1      40.341 -14.390   2.966  1.00  0.00     0.040 A 
HETATM   10  C   UNL     1      40.577 -15.768   2.996  1.00  0.00     0.020 A 
HETATM   11  C   UNL     1      40.826 -16.486   1.823  1.00  0.00     0.031 A 
HETATM   12  C   UNL     1      40.830 -15.774   0.618  1.00  0.00     0.043 A 
HETATM   13  C   UNL     1      40.621 -14.398   0.549  1.00  0.00    -0.001 A 
HETATM   14  N   UNL     1      41.014 -16.219  -0.668  1.00  0.00    -0.359 N 
HETATM   15  C   UNL     1      40.703 -14.020  -0.830  1.00  0.00    -0.027 A 
HETATM   16  C   UNL     1      40.377 -13.692   1.747  1.00  0.00     0.032 A 
HETATM   17  C   UNL     1      40.556 -12.648  -1.390  1.00  0.00     0.051 C 
HETATM   18  C   UNL     1      40.922 -15.179  -1.557  1.00  0.00     0.012 A 
HETATM   19  C   UNL     1      41.044 -15.392  -3.023  1.00  0.00     0.068 C 
HETATM   20  H   UNL     1      41.173 -17.186  -0.919  1.00  0.00     0.166 HD
ENDBRANCH   7   9
ENDBRANCH   6   7
ENDBRANCH   5   6
ENDBRANCH   1   5
BRANCH   2  21
HETATM   21  N   UNL     1      43.141 -15.201   6.385  1.00  0.00    -0.167 N 
HETATM   22  C   UNL     1      44.466 -15.240   6.723  1.00  0.00     0.345 A 
HETATM   23  O   UNL     1      45.212 -14.316   7.004  1.00  0.00    -0.245 OA
HETATM   24  N   UNL     1      44.846 -16.568   6.760  1.00  0.00    -0.319 N 
HETATM   25  C   UNL     1      43.751 -17.476   6.458  1.00  0.00     0.141 A 
HETATM   26  H   UNL     1      45.789 -16.838   7.005  1.00  0.00     0.166 HD
HETATM   27  C   UNL     1      42.597 -16.455   6.278  1.00  0.00     0.279 A 
HETATM   28  C   UNL     1      43.472 -18.352   7.683  1.00  0.00     0.055 C 
HETATM   29  O   UNL     1      41.410 -16.723   6.117  1.00  0.00    -0.268 OA
BRANCH  25  30
HETATM   30  C   UNL     1      43.981 -18.296   5.193  1.00  0.00    -0.021 A 
HETATM   31  C   UNL     1      43.659 -17.814   3.912  1.00  0.00     0.010 A 
HETATM   32  C   UNL     1      43.881 -18.591   2.771  1.00  0.00     0.001 A 
HETATM   33  C   UNL     1      44.424 -19.867   2.887  1.00  0.00     0.000 A 
HETATM   34  C   UNL     1      44.745 -20.368   4.143  1.00  0.00     0.001 A 
HETATM   35  C   UNL     1      44.526 -19.592   5.283  1.00  0.00     0.010 A 
ENDBRANCH  25  30
ENDBRANCH   2  21
TORSDOF 6
ENDMDL
MODEL 5
REMARK VINA RESULT:      -9.4      2.184      3.685
REMARK  6 active torsions:
REMARK  status: ('A' for Active; 'I' for Inactive)
REMARK    1  A    between atoms: C_7  and  C_8 
REMARK    2  A    between atoms: C_8  and  O_9 
REMARK    3  A    between atoms: O_9  and  C_10 
REMARK    4  A    between atoms: C_10  and  C_11 
REMARK       I    between atoms: C_11  and  N_12 
REMARK    5  A    between atoms: N_12  and  N_13 
REMARK    6  A    between atoms: C_17  and  C_18 
ROOT
HETATM    1  C   UNL     1      42.325 -13.017   5.097  1.00  0.00     0.261 C 
HETATM    2  N   UNL     1      42.323 -13.730   6.278  1.00  0.00    -0.255 N 
HETATM    3  O   UNL     1      43.021 -13.306   4.125  1.00  0.00    -0.269 OA
HETATM    4  H   UNL     1      41.594 -13.581   6.976  1.00  0.00     0.191 HD
ENDROOT
BRANCH   1   5
HETATM    5  C   UNL     1      41.339 -11.846   5.077  1.00  0.00     0.283 C 
BRANCH   5   6
HETATM    6  O   UNL     1      41.372 -11.010   6.235  1.00  0.00    -0.308 OA
BRANCH   6   7
HETATM    7  C   UNL     1      40.237 -10.984   6.972  1.00  0.00     0.293 C 
HETATM    8  O   UNL     1      39.143 -11.370   6.585  1.00  0.00    -0.259 OA
BRANCH   7   9
HETATM    9  C   UNL     1      40.506 -10.508   8.354  1.00  0.00     0.040 A 
HETATM   10  C   UNL     1      39.431 -10.002   9.094  1.00  0.00     0.020 A 
HETATM   11  C   UNL     1      39.596  -9.585  10.417  1.00  0.00     0.031 A 
HETATM   12  C   UNL     1      40.875  -9.692  10.974  1.00  0.00     0.043 A 
HETATM   13  C   UNL     1      41.975 -10.170  10.264  1.00  0.00    -0.001 A 
HETATM   14  N   UNL     1      41.313  -9.390  12.240  1.00  0.00    -0.359 N 
HETATM   15  C   UNL     1      43.105 -10.130  11.143  1.00  0.00    -0.027 A 
HETATM   16  C   UNL     1      41.787 -10.581   8.926  1.00  0.00     0.032 A 
HETATM   17  C   UNL     1      44.501 -10.533  10.821  1.00  0.00     0.051 C 
HETATM   18  C   UNL     1      42.651  -9.665  12.367  1.00  0.00     0.012 A 
HETATM   19  C   UNL     1      43.371  -9.465  13.652  1.00  0.00     0.068 C 
HETATM   20  H   UNL     1      40.721  -9.034  12.978  1.00  0.00     0.166 HD
ENDBRANCH   7   9
ENDBRANCH   6   7
ENDBRANCH   5   6
ENDBRANCH   1   5
BRANCH   2  21
HETATM   21  N   UNL     1      43.017 -14.920   6.325  1.00  0.00    -0.167 N 
HETATM   22  C   UNL     1      44.330 -15.028   6.691  1.00  0.00     0.345 A 
HETATM   23  O   UNL     1      45.102 -14.151   7.044  1.00  0.00    -0.245 OA
HETATM   24  N   UNL     1      44.661 -16.369   6.659  1.00  0.00    -0.319 N 
HETATM   25  C   UNL     1      43.542 -17.216   6.279  1.00  0.00     0.141 A 
HETATM   26  H   UNL     1      45.587 -16.688   6.909  1.00  0.00     0.166 HD
HETATM   27  C   UNL     1      42.431 -16.144   6.132  1.00  0.00     0.279 A 
HETATM   28  C   UNL     1      43.200 -18.150   7.443  1.00  0.00     0.055 C 
HETATM   29  O   UNL     1      41.240 -16.357   5.928  1.00  0.00    -0.268 OA
BRANCH  25  30
HETATM   30  C   UNL     1      43.775 -17.970   4.973  1.00  0.00    -0.021 A 
HETATM   31  C   UNL     1      43.580 -17.375   3.714  1.00  0.00     0.010 A 
HETATM   32  C   UNL     1      43.800 -18.094   2.535  1.00  0.00     0.001 A 
HETATM   33  C   UNL     1      44.214 -19.421   2.590  1.00  0.00     0.000 A 
HETATM   34  C   UNL     1      44.407 -20.033   3.824  1.00  0.00     0.001 A 
HETATM   35  C   UNL     1      44.189 -19.316   5.002  1.00  0.00     0.010 A 
ENDBRANCH  25  30
ENDBRANCH   2  21
TORSDOF 6
ENDMDL
MODEL 6
REMARK VINA RESULT:      -9.3      4.895      8.755
REMARK  6 active torsions:
REMARK  status: ('A' for Active; 'I' for Inactive)
REMARK    1  A    between atoms: C_7  and  C_8 
REMARK    2  A    between atoms: C_8  and  O_9 
REMARK    3  A    between atoms: O_9  and  C_10 
REMARK    4  A    between atoms: C_10  and  C_11 
REMARK       I    between atoms: C_11  and  N_12 
REMARK    5  A    between atoms: N_12  and  N_13 
REMARK    6  A    between atoms: C_17  and  C_18 
ROOT
HETATM    1  C   UNL     1      41.733 -14.064   3.238  1.00  0.00     0.261 C 
HETATM    2  N   UNL     1      40.874 -14.742   2.398  1.00  0.00    -0.255 N 
HETATM    3  O   UNL     1      42.713 -13.432   2.848  1.00  0.00    -0.269 OA
HETATM    4  H   UNL     1      39.972 -15.079   2.736  1.00  0.00     0.191 HD
ENDROOT
BRANCH   1   5
HETATM    5  C   UNL     1      41.332 -14.122   4.715  1.00  0.00     0.283 C 
BRANCH   5   6
HETATM    6  O   UNL     1      41.786 -15.280   5.417  1.00  0.00    -0.308 OA
BRANCH   6   7
HETATM    7  C   UNL     1      43.109 -15.310   5.707  1.00  0.00     0.293 C 
HETATM    8  O   UNL     1      43.742 -14.375   6.177  1.00  0.00    -0.259 OA
BRANCH   7   9
HETATM    9  C   UNL     1      43.681 -16.660   5.466  1.00  0.00     0.040 A 
HETATM   10  C   UNL     1      44.505 -17.208   6.455  1.00  0.00     0.020 A 
HETATM   11  C   UNL     1      45.037 -18.494   6.322  1.00  0.00     0.031 A 
HETATM   12  C   UNL     1      44.714 -19.211   5.165  1.00  0.00     0.043 A 
HETATM   13  C   UNL     1      43.914 -18.692   4.148  1.00  0.00    -0.001 A 
HETATM   14  N   UNL     1      45.065 -20.485   4.791  1.00  0.00    -0.359 N 
HETATM   15  C   UNL     1      43.807 -19.695   3.132  1.00  0.00    -0.027 A 
HETATM   16  C   UNL     1      43.392 -17.390   4.301  1.00  0.00     0.032 A 
HETATM   17  C   UNL     1      43.061 -19.588   1.848  1.00  0.00     0.051 C 
HETATM   18  C   UNL     1      44.512 -20.802   3.576  1.00  0.00     0.012 A 
HETATM   19  C   UNL     1      44.704 -22.139   2.956  1.00  0.00     0.068 C 
HETATM   20  H   UNL     1      45.635 -21.106   5.349  1.00  0.00     0.166 HD
ENDBRANCH   7   9
ENDBRANCH   6   7
ENDBRANCH   5   6
ENDBRANCH   1   5
BRANCH   2  21
HETATM   21  N   UNL     1      41.025 -14.581   1.038  1.00  0.00    -0.167 N 
HETATM   22  C   UNL     1      41.724 -15.440   0.236  1.00  0.00     0.345 A 
HETATM   23  O   UNL     1      42.306 -16.469   0.540  1.00  0.00    -0.245 OA
HETATM   24  N   UNL     1      41.619 -14.976  -1.061  1.00  0.00    -0.319 N 
HETATM   25  C   UNL     1      40.809 -13.773  -1.165  1.00  0.00     0.141 A 
HETATM   26  H   UNL     1      42.050 -15.468  -1.832  1.00  0.00     0.166 HD
HETATM   27  C   UNL     1      40.384 -13.606   0.318  1.00  0.00     0.279 A 
HETATM   28  C   UNL     1      39.575 -14.069  -2.020  1.00  0.00     0.055 C 
HETATM   29  O   UNL     1      39.585 -12.784   0.755  1.00  0.00    -0.268 OA
BRANCH  25  30
HETATM   30  C   UNL     1      41.592 -12.563  -1.666  1.00  0.00    -0.021 A 
HETATM   31  C   UNL     1      42.485 -11.849  -0.847  1.00  0.00     0.010 A 
HETATM   32  C   UNL     1      43.186 -10.743  -1.336  1.00  0.00     0.001 A 
HETATM   33  C   UNL     1      43.006 -10.325  -2.651  1.00  0.00     0.000 A 
HETATM   34  C   UNL     1      42.123 -11.010  -3.478  1.00  0.00     0.001 A 
HETATM   35  C   UNL     1      41.424 -12.116  -2.992  1.00  0.00     0.010 A 
ENDBRANCH  25  30
ENDBRANCH   2  21
TORSDOF 6
ENDMDL
MODEL 7
REMARK VINA RESULT:      -9.1      3.743      7.296
REMARK  6 active torsions:
REMARK  status: ('A' for Active; 'I' for Inactive)
REMARK    1  A    between atoms: C_7  and  C_8 
REMARK    2  A    between atoms: C_8  and  O_9 
REMARK    3  A    between atoms: O_9  and  C_10 
REMARK    4  A    between atoms: C_10  and  C_11 
REMARK       I    between atoms: C_11  and  N_12 
REMARK    5  A    between atoms: N_12  and  N_13 
REMARK    6  A    between atoms: C_17  and  C_18 
ROOT
HETATM    1  C   UNL     1      41.998 -12.762   5.442  1.00  0.00     0.261 C 
HETATM    2  N   UNL     1      41.997 -13.771   6.382  1.00  0.00    -0.255 N 
HETATM    3  O   UNL     1      42.681 -12.780   4.420  1.00  0.00    -0.269 OA
HETATM    4  H   UNL     1      41.276 -13.812   7.103  1.00  0.00     0.191 HD
ENDROOT
BRANCH   1   5
HETATM    5  C   UNL     1      41.026 -11.620   5.755  1.00  0.00     0.283 C 
BRANCH   5   6
HETATM    6  O   UNL     1      39.643 -11.973   5.694  1.00  0.00    -0.308 OA
BRANCH   6   7
HETATM    7  C   UNL     1      38.943 -11.429   4.670  1.00  0.00     0.293 C 
HETATM    8  O   UNL     1      38.098 -10.553   4.789  1.00  0.00    -0.259 OA
BRANCH   7   9
HETATM    9  C   UNL     1      39.398 -11.969   3.362  1.00  0.00     0.040 A 
HETATM   10  C   UNL     1      39.762 -11.055   2.367  1.00  0.00     0.020 A 
HETATM   11  C   UNL     1      40.249 -11.488   1.131  1.00  0.00     0.031 A 
HETATM   12  C   UNL     1      40.358 -12.868   0.926  1.00  0.00     0.043 A 
HETATM   13  C   UNL     1      39.985 -13.810   1.884  1.00  0.00    -0.001 A 
HETATM   14  N   UNL     1      40.825 -13.564  -0.163  1.00  0.00    -0.359 N 
HETATM   15  C   UNL     1      40.228 -15.107   1.328  1.00  0.00    -0.027 A 
HETATM   16  C   UNL     1      39.492 -13.350   3.124  1.00  0.00     0.032 A 
HETATM   17  C   UNL     1      39.971 -16.420   1.981  1.00  0.00     0.051 C 
HETATM   18  C   UNL     1      40.772 -14.915   0.068  1.00  0.00     0.012 A 
HETATM   19  C   UNL     1      41.255 -15.898  -0.936  1.00  0.00     0.068 C 
HETATM   20  H   UNL     1      41.178 -13.132  -1.006  1.00  0.00     0.166 HD
ENDBRANCH   7   9
ENDBRANCH   6   7
ENDBRANCH   5   6
ENDBRANCH   1   5
BRANCH   2  21
HETATM   21  N   UNL     1      42.677 -14.934   6.094  1.00  0.00    -0.167 N 
HETATM   22  C   UNL     1      43.990 -15.154   6.407  1.00  0.00     0.345 A 
HETATM   23  O   UNL     1      44.773 -14.417   6.984  1.00  0.00    -0.245 OA
HETATM   24  N   UNL     1      44.304 -16.437   6.002  1.00  0.00    -0.319 N 
HETATM   25  C   UNL     1      43.174 -17.133   5.409  1.00  0.00     0.141 A 
HETATM   26  H   UNL     1      45.227 -16.823   6.148  1.00  0.00     0.166 HD
HETATM   27  C   UNL     1      42.075 -16.051   5.572  1.00  0.00     0.279 A 
HETATM   28  C   UNL     1      42.824 -18.350   6.270  1.00  0.00     0.055 C 
HETATM   29  O   UNL     1      40.881 -16.186   5.324  1.00  0.00    -0.268 OA
BRANCH  25  30
HETATM   30  C   UNL     1      43.394 -17.498   3.944  1.00  0.00    -0.021 A 
HETATM   31  C   UNL     1      43.557 -16.526   2.941  1.00  0.00     0.010 A 
HETATM   32  C   UNL     1      43.755 -16.892   1.606  1.00  0.00     0.001 A 
HETATM   33  C   UNL     1      43.788 -18.236   1.246  1.00  0.00     0.000 A 
HETATM   34  C   UNL     1      43.623 -19.215   2.219  1.00  0.00     0.001 A 
HETATM   35  C   UNL     1      43.427 -18.851   3.553  1.00  0.00     0.010 A 
ENDBRANCH  25  30
ENDBRANCH   2  21
TORSDOF 6
ENDMDL
MODEL 8
REMARK VINA RESULT:      -9.1      2.828     10.260
REMARK  6 active torsions:
REMARK  status: ('A' for Active; 'I' for Inactive)
REMARK    1  A    between atoms: C_7  and  C_8 
REMARK    2  A    between atoms: C_8  and  O_9 
REMARK    3  A    between atoms: O_9  and  C_10 
REMARK    4  A    between atoms: C_10  and  C_11 
REMARK       I    between atoms: C_11  and  N_12 
REMARK    5  A    between atoms: N_12  and  N_13 
REMARK    6  A    between atoms: C_17  and  C_18 
ROOT
HETATM    1  C   UNL     1      40.039 -11.764   6.587  1.00  0.00     0.261 C 
HETATM    2  N   UNL     1      41.029 -11.690   7.544  1.00  0.00    -0.255 N 
HETATM    3  O   UNL     1      39.092 -10.982   6.520  1.00  0.00    -0.269 OA
HETATM    4  H   UNL     1      41.892 -12.224   7.444  1.00  0.00     0.191 HD
ENDROOT
BRANCH   1   5
HETATM    5  C   UNL     1      40.244 -12.887   5.566  1.00  0.00     0.283 C 
BRANCH   5   6
HETATM    6  O   UNL     1      41.301 -13.797   5.876  1.00  0.00    -0.308 OA
BRANCH   6   7
HETATM    7  C   UNL     1      42.292 -13.880   4.958  1.00  0.00     0.293 C 
HETATM    8  O   UNL     1      42.757 -12.931   4.343  1.00  0.00    -0.259 OA
BRANCH   7   9
HETATM    9  C   UNL     1      42.812 -15.269   4.854  1.00  0.00     0.040 A 
HETATM   10  C   UNL     1      43.052 -15.969   6.041  1.00  0.00     0.020 A 
HETATM   11  C   UNL     1      43.491 -17.296   6.022  1.00  0.00     0.031 A 
HETATM   12  C   UNL     1      43.681 -17.896   4.772  1.00  0.00     0.043 A 
HETATM   13  C   UNL     1      43.474 -17.225   3.568  1.00  0.00    -0.001 A 
HETATM   14  N   UNL     1      44.072 -19.175   4.459  1.00  0.00    -0.359 N 
HETATM   15  C   UNL     1      43.771 -18.143   2.509  1.00  0.00    -0.027 A 
HETATM   16  C   UNL     1      43.035 -15.884   3.611  1.00  0.00     0.032 A 
HETATM   17  C   UNL     1      43.704 -17.870   1.047  1.00  0.00     0.051 C 
HETATM   18  C   UNL     1      44.114 -19.349   3.099  1.00  0.00     0.012 A 
HETATM   19  C   UNL     1      44.470 -20.656   2.490  1.00  0.00     0.068 C 
HETATM   20  H   UNL     1      44.277 -19.891   5.143  1.00  0.00     0.166 HD
ENDBRANCH   7   9
ENDBRANCH   6   7
ENDBRANCH   5   6
ENDBRANCH   1   5
BRANCH   2  21
HETATM   21  N   UNL     1      41.050 -10.594   8.380  1.00  0.00    -0.167 N 
HETATM   22  C   UNL     1      41.521  -9.362   8.018  1.00  0.00     0.345 A 
HETATM   23  O   UNL     1      41.975  -9.000   6.945  1.00  0.00    -0.245 OA
HETATM   24  N   UNL     1      41.342  -8.517   9.096  1.00  0.00    -0.319 N 
HETATM   25  C   UNL     1      40.712  -9.175  10.230  1.00  0.00     0.141 A 
HETATM   26  H   UNL     1      41.608  -7.542   9.050  1.00  0.00     0.166 HD
HETATM   27  C   UNL     1      40.483 -10.586   9.628  1.00  0.00     0.279 A 
HETATM   28  C   UNL     1      39.360  -8.513  10.508  1.00  0.00     0.055 C 
HETATM   29  O   UNL     1      39.868 -11.508  10.155  1.00  0.00    -0.268 OA
BRANCH  25  30
HETATM   30  C   UNL     1      41.604  -9.227  11.466  1.00  0.00    -0.021 A 
HETATM   31  C   UNL     1      41.237  -8.631  12.686  1.00  0.00     0.010 A 
HETATM   32  C   UNL     1      42.078  -8.694  13.802  1.00  0.00     0.001 A 
HETATM   33  C   UNL     1      43.304  -9.348  13.719  1.00  0.00     0.000 A 
HETATM   34  C   UNL     1      43.691  -9.939  12.522  1.00  0.00     0.001 A 
HETATM   35  C   UNL     1      42.851  -9.878  11.408  1.00  0.00     0.010 A 
ENDBRANCH  25  30
ENDBRANCH   2  21
TORSDOF 6
ENDMDL
MODEL 9
REMARK VINA RESULT:      -9.1      2.031      3.151
REMARK  6 active torsions:
REMARK  status: ('A' for Active; 'I' for Inactive)
REMARK    1  A    between atoms: C_7  and  C_8 
REMARK    2  A    between atoms: C_8  and  O_9 
REMARK    3  A    between atoms: O_9  and  C_10 
REMARK    4  A    between atoms: C_10  and  C_11 
REMARK       I    between atoms: C_11  and  N_12 
REMARK    5  A    between atoms: N_12  and  N_13 
REMARK    6  A    between atoms: C_17  and  C_18 
ROOT
HETATM    1  C   UNL     1      41.377 -12.989   4.560  1.00  0.00     0.261 C 
HETATM    2  N   UNL     1      42.150 -14.059   4.958  1.00  0.00    -0.255 N 
HETATM    3  O   UNL     1      40.490 -13.065   3.711  1.00  0.00    -0.269 OA
HETATM    4  H   UNL     1      42.728 -14.001   5.798  1.00  0.00     0.191 HD
ENDROOT
BRANCH   1   5
HETATM    5  C   UNL     1      41.682 -11.688   5.307  1.00  0.00     0.283 C 
BRANCH   5   6
HETATM    6  O   UNL     1      41.485 -11.745   6.721  1.00  0.00    -0.308 OA
BRANCH   6   7
HETATM    7  C   UNL     1      40.385 -11.108   7.187  1.00  0.00     0.293 C 
HETATM    8  O   UNL     1      39.311 -11.050   6.604  1.00  0.00    -0.259 OA
BRANCH   7   9
HETATM    9  C   UNL     1      40.619 -10.558   8.547  1.00  0.00     0.040 A 
HETATM   10  C   UNL     1      39.534  -9.978   9.215  1.00  0.00     0.020 A 
HETATM   11  C   UNL     1      39.665  -9.488  10.517  1.00  0.00     0.031 A 
HETATM   12  C   UNL     1      40.919  -9.598  11.127  1.00  0.00     0.043 A 
HETATM   13  C   UNL     1      42.029 -10.149  10.488  1.00  0.00    -0.001 A 
HETATM   14  N   UNL     1      41.321  -9.234  12.389  1.00  0.00    -0.359 N 
HETATM   15  C   UNL     1      43.127 -10.090  11.405  1.00  0.00    -0.027 A 
HETATM   16  C   UNL     1      41.876 -10.634   9.171  1.00  0.00     0.032 A 
HETATM   17  C   UNL     1      44.521 -10.553  11.160  1.00  0.00     0.051 C 
HETATM   18  C   UNL     1      42.644  -9.540  12.582  1.00  0.00     0.012 A 
HETATM   19  C   UNL     1      43.323  -9.285  13.879  1.00  0.00     0.068 C 
HETATM   20  H   UNL     1      40.714  -8.818  13.082  1.00  0.00     0.166 HD
ENDBRANCH   7   9
ENDBRANCH   6   7
ENDBRANCH   5   6
ENDBRANCH   1   5
BRANCH   2  21
HETATM   21  N   UNL     1      41.817 -15.315   4.499  1.00  0.00    -0.167 N 
HETATM   22  C   UNL     1      40.896 -16.130   5.097  1.00  0.00     0.345 A 
HETATM   23  O   UNL     1      40.213 -15.920   6.086  1.00  0.00    -0.245 OA
HETATM   24  N   UNL     1      40.802 -17.279   4.333  1.00  0.00    -0.319 N 
HETATM   25  C   UNL     1      41.667 -17.251   3.165  1.00  0.00     0.141 A 
HETATM   26  H   UNL     1      40.164 -18.023   4.581  1.00  0.00     0.166 HD
HETATM   27  C   UNL     1      42.281 -15.834   3.318  1.00  0.00     0.279 A 
HETATM   28  C   UNL     1      40.806 -17.299   1.900  1.00  0.00     0.055 C 
HETATM   29  O   UNL     1      43.009 -15.268   2.510  1.00  0.00    -0.268 OA
BRANCH  25  30
HETATM   30  C   UNL     1      42.739 -18.336   3.184  1.00  0.00    -0.021 A 
HETATM   31  C   UNL     1      42.953 -19.204   2.100  1.00  0.00     0.010 A 
HETATM   32  C   UNL     1      43.943 -20.191   2.150  1.00  0.00     0.001 A 
HETATM   33  C   UNL     1      44.735 -20.332   3.285  1.00  0.00     0.000 A 
HETATM   34  C   UNL     1      44.537 -19.489   4.373  1.00  0.00     0.001 A 
HETATM   35  C   UNL     1      43.551 -18.503   4.324  1.00  0.00     0.010 A 
ENDBRANCH  25  30
ENDBRANCH   2  21
TORSDOF 6
ENDMDL
MODEL 10
REMARK VINA RESULT:      -9.0      4.887      8.657
REMARK  6 active torsions:
REMARK  status: ('A' for Active; 'I' for Inactive)
REMARK    1  A    between atoms: C_7  and  C_8 
REMARK    2  A    between atoms: C_8  and  O_9 
REMARK    3  A    between atoms: O_9  and  C_10 
REMARK    4  A    between atoms: C_10  and  C_11 
REMARK       I    between atoms: C_11  and  N_12 
REMARK    5  A    between atoms: N_12  and  N_13 
REMARK    6  A    between atoms: C_17  and  C_18 
ROOT
HETATM    1  C   UNL     1      41.163 -13.943   3.569  1.00  0.00     0.261 C 
HETATM    2  N   UNL     1      40.140 -14.280   2.707  1.00  0.00    -0.255 N 
HETATM    3  O   UNL     1      42.195 -13.376   3.217  1.00  0.00    -0.269 OA
HETATM    4  H   UNL     1      39.227 -14.562   3.066  1.00  0.00     0.191 HD
ENDROOT
BRANCH   1   5
HETATM    5  C   UNL     1      40.883 -14.295   5.033  1.00  0.00     0.283 C 
BRANCH   5   6
HETATM    6  O   UNL     1      41.461 -15.523   5.479  1.00  0.00    -0.308 OA
BRANCH   6   7
HETATM    7  C   UNL     1      42.787 -15.482   5.754  1.00  0.00     0.293 C 
HETATM    8  O   UNL     1      43.361 -14.543   6.287  1.00  0.00    -0.259 OA
BRANCH   7   9
HETATM    9  C   UNL     1      43.447 -16.767   5.406  1.00  0.00     0.040 A 
HETATM   10  C   UNL     1      44.336 -17.319   6.335  1.00  0.00     0.020 A 
HETATM   11  C   UNL     1      44.954 -18.550   6.102  1.00  0.00     0.031 A 
HETATM   12  C   UNL     1      44.651 -19.209   4.905  1.00  0.00     0.043 A 
HETATM   13  C   UNL     1      43.789 -18.682   3.945  1.00  0.00    -0.001 A 
HETATM   14  N   UNL     1      45.083 -20.426   4.435  1.00  0.00    -0.359 N 
HETATM   15  C   UNL     1      43.726 -19.619   2.864  1.00  0.00    -0.027 A 
HETATM   16  C   UNL     1      43.179 -17.435   4.200  1.00  0.00     0.032 A 
HETATM   17  C   UNL     1      42.938 -19.480   1.608  1.00  0.00     0.051 C 
HETATM   18  C   UNL     1      44.520 -20.699   3.214  1.00  0.00     0.012 A 
HETATM   19  C   UNL     1      44.790 -21.973   2.499  1.00  0.00     0.068 C 
HETATM   20  H   UNL     1      45.711 -21.039   4.936  1.00  0.00     0.166 HD
ENDBRANCH   7   9
ENDBRANCH   6   7
ENDBRANCH   5   6
ENDBRANCH   1   5
BRANCH   2  21
HETATM   21  N   UNL     1      40.202 -13.822   1.409  1.00  0.00    -0.167 N 
HETATM   22  C   UNL     1      39.792 -12.579   1.013  1.00  0.00     0.345 A 
HETATM   23  O   UNL     1      39.333 -11.672   1.688  1.00  0.00    -0.245 OA
HETATM   24  N   UNL     1      40.046 -12.470  -0.341  1.00  0.00    -0.319 N 
HETATM   25  C   UNL     1      40.666 -13.663  -0.896  1.00  0.00     0.141 A 
HETATM   26  H   UNL     1      39.835 -11.622  -0.849  1.00  0.00     0.166 HD
HETATM   27  C   UNL     1      40.799 -14.520   0.391  1.00  0.00     0.279 A 
HETATM   28  C   UNL     1      42.060 -13.308  -1.420  1.00  0.00     0.055 C 
HETATM   29  O   UNL     1      41.374 -15.600   0.487  1.00  0.00    -0.268 OA
BRANCH  25  30
HETATM   30  C   UNL     1      39.804 -14.355  -1.947  1.00  0.00    -0.021 A 
HETATM   31  C   UNL     1      38.431 -14.088  -2.091  1.00  0.00     0.010 A 
HETATM   32  C   UNL     1      37.667 -14.740  -3.064  1.00  0.00     0.001 A 
HETATM   33  C   UNL     1      38.258 -15.675  -3.908  1.00  0.00     0.000 A 
HETATM   34  C   UNL     1      39.613 -15.961  -3.781  1.00  0.00     0.001 A 
HETATM   35  C   UNL     1      40.377 -15.309  -2.811  1.00  0.00     0.010 A 
ENDBRANCH  25  30
ENDBRANCH   2  21
TORSDOF 6
ENDMDL
