MODEL 1
REMARK VINA RESULT:      -8.7      0.000      0.000
REMARK  5 active torsions:
REMARK  status: ('A' for Active; 'I' for Inactive)
REMARK    1  A    between atoms: C_6  and  O_7 
REMARK    2  A    between atoms: O_7  and  C_8 
REMARK    3  A    between atoms: C_8  and  C_9 
REMARK       I    between atoms: C_9  and  N_10 
REMARK    4  A    between atoms: N_10  and  N_11 
REMARK    5  A    between atoms: C_12  and  C_13 
ROOT
HETATM    1  C   UNL     1      44.941 -13.644   7.664  1.00  0.00     0.261 C 
HETATM    2  N   UNL     1      44.078 -14.724   7.558  1.00  0.00    -0.246 N 
HETATM    3  O   UNL     1      45.871 -13.399   6.897  1.00  0.00    -0.269 OA
HETATM    4  H   UNL     1      43.313 -14.822   8.221  1.00  0.00     0.192 HD
ENDROOT
BRANCH   2   5
HETATM    5  N   UNL     1      44.274 -15.638   6.568  1.00  0.00    -0.184 NA
HETATM    6  C   UNL     1      43.380 -16.562   6.437  1.00  0.00     0.153 C 
BRANCH   6   7
HETATM    7  C   UNL     1      43.552 -17.580   5.415  1.00  0.00     0.018 A 
HETATM    8  C   UNL     1      43.563 -17.422   3.986  1.00  0.00     0.004 A 
HETATM    9  C   UNL     1      43.776 -18.682   3.427  1.00  0.00     0.043 A 
HETATM   10  C   UNL     1      43.413 -16.325   3.111  1.00  0.00     0.014 A 
HETATM   11  C   UNL     1      43.850 -18.898   2.044  1.00  0.00     0.030 A 
HETATM   12  N   UNL     1      43.889 -19.571   4.466  1.00  0.00    -0.358 N 
HETATM   13  C   UNL     1      43.698 -17.792   1.204  1.00  0.00     0.002 A 
HETATM   14  C   UNL     1      43.481 -16.521   1.726  1.00  0.00     0.001 A 
HETATM   15  H   UNL     1      44.052 -20.561   4.345  1.00  0.00     0.166 HD
HETATM   16  C   UNL     1      43.758 -18.930   5.674  1.00  0.00     0.018 A 
HETATM   17  C   UNL     1      43.856 -19.679   6.954  1.00  0.00     0.069 C 
ENDBRANCH   6   7
ENDBRANCH   2   5
BRANCH   1  18
HETATM   18  C   UNL     1      44.706 -12.796   8.909  1.00  0.00     0.280 C 
BRANCH  18  19
HETATM   19  O   UNL     1      44.122 -11.531   8.606  1.00  0.00    -0.341 OA
BRANCH  19  20
HETATM   20  C   UNL     1      43.689 -10.818   9.698  1.00  0.00     0.086 A 
HETATM   21  C   UNL     1      42.485 -10.110   9.586  1.00  0.00     0.044 A 
HETATM   22  C   UNL     1      41.985  -9.374  10.667  1.00  0.00     0.028 A 
HETATM   23 BR   UNL     1      41.497 -10.096   7.962  1.00  0.00    -0.048 Br
HETATM   24  C   UNL     1      42.669  -9.356  11.887  1.00  0.00    -0.061 A 
HETATM   25  C   UNL     1      42.162  -8.547  13.045  1.00  0.00     0.048 C 
HETATM   26  C   UNL     1      43.866 -10.070  12.002  1.00  0.00     0.009 A 
HETATM   27  C   UNL     1      44.367 -10.802  10.922  1.00  0.00     0.039 A 
ENDBRANCH  19  20
ENDBRANCH  18  19
ENDBRANCH   1  18
TORSDOF 5
ENDMDL
MODEL 2
REMARK VINA RESULT:      -8.6      1.266      2.200
REMARK  5 active torsions:
REMARK  status: ('A' for Active; 'I' for Inactive)
REMARK    1  A    between atoms: C_6  and  O_7 
REMARK    2  A    between atoms: O_7  and  C_8 
REMARK    3  A    between atoms: C_8  and  C_9 
REMARK       I    between atoms: C_9  and  N_10 
REMARK    4  A    between atoms: N_10  and  N_11 
REMARK    5  A    between atoms: C_12  and  C_13 
ROOT
HETATM    1  C   UNL     1      44.747 -13.636   7.053  1.00  0.00     0.261 C 
HETATM    2  N   UNL     1      43.591 -14.334   6.737  1.00  0.00    -0.246 N 
HETATM    3  O   UNL     1      45.773 -13.615   6.376  1.00  0.00    -0.269 OA
HETATM    4  H   UNL     1      42.778 -14.259   7.343  1.00  0.00     0.192 HD
ENDROOT
BRANCH   2   5
HETATM    5  N   UNL     1      43.568 -15.113   5.620  1.00  0.00    -0.184 NA
HETATM    6  C   UNL     1      42.882 -16.206   5.682  1.00  0.00     0.153 C 
BRANCH   6   7
HETATM    7  C   UNL     1      42.846 -17.089   4.529  1.00  0.00     0.018 A 
HETATM    8  C   UNL     1      43.600 -18.292   4.298  1.00  0.00     0.004 A 
HETATM    9  C   UNL     1      43.211 -18.798   3.058  1.00  0.00     0.043 A 
HETATM   10  C   UNL     1      44.579 -19.001   5.026  1.00  0.00     0.014 A 
HETATM   11  C   UNL     1      43.745 -19.974   2.514  1.00  0.00     0.030 A 
HETATM   12  N   UNL     1      42.263 -17.944   2.552  1.00  0.00    -0.358 N 
HETATM   13  C   UNL     1      44.711 -20.655   3.259  1.00  0.00     0.002 A 
HETATM   14  C   UNL     1      45.126 -20.177   4.498  1.00  0.00     0.001 A 
HETATM   15  H   UNL     1      41.804 -18.075   1.661  1.00  0.00     0.166 HD
HETATM   16  C   UNL     1      42.026 -16.907   3.421  1.00  0.00     0.018 A 
HETATM   17  C   UNL     1      41.027 -15.853   3.104  1.00  0.00     0.069 C 
ENDBRANCH   6   7
ENDBRANCH   2   5
BRANCH   1  18
HETATM   18  C   UNL     1      44.688 -12.940   8.409  1.00  0.00     0.280 C 
BRANCH  18  19
HETATM   19  O   UNL     1      43.862 -11.778   8.392  1.00  0.00    -0.341 OA
BRANCH  19  20
HETATM   20  C   UNL     1      43.718 -11.154   9.608  1.00  0.00     0.086 A 
HETATM   21  C   UNL     1      42.580 -10.361   9.808  1.00  0.00     0.044 A 
HETATM   22  C   UNL     1      42.370  -9.707  11.028  1.00  0.00     0.028 A 
HETATM   23 BR   UNL     1      41.294 -10.115   8.430  1.00  0.00    -0.048 Br
HETATM   24  C   UNL     1      43.282  -9.860  12.078  1.00  0.00    -0.061 A 
HETATM   25  C   UNL     1      43.086  -9.142  13.381  1.00  0.00     0.048 C 
HETATM   26  C   UNL     1      44.412 -10.659  11.882  1.00  0.00     0.009 A 
HETATM   27  C   UNL     1      44.624 -11.308  10.662  1.00  0.00     0.039 A 
ENDBRANCH  19  20
ENDBRANCH  18  19
ENDBRANCH   1  18
TORSDOF 5
ENDMDL
MODEL 3
REMARK VINA RESULT:      -8.5      6.344      9.222
REMARK  5 active torsions:
REMARK  status: ('A' for Active; 'I' for Inactive)
REMARK    1  A    between atoms: C_6  and  O_7 
REMARK    2  A    between atoms: O_7  and  C_8 
REMARK    3  A    between atoms: C_8  and  C_9 
REMARK       I    between atoms: C_9  and  N_10 
REMARK    4  A    between atoms: N_10  and  N_11 
REMARK    5  A    between atoms: C_12  and  C_13 
ROOT
HETATM    1  C   UNL     1      40.729 -15.757   1.658  1.00  0.00     0.261 C 
HETATM    2  N   UNL     1      42.055 -15.968   2.004  1.00  0.00    -0.246 N 
HETATM    3  O   UNL     1      39.771 -16.397   2.088  1.00  0.00    -0.269 OA
HETATM    4  H   UNL     1      42.775 -15.360   1.624  1.00  0.00     0.192 HD
ENDROOT
BRANCH   2   5
HETATM    5  N   UNL     1      42.368 -16.992   2.846  1.00  0.00    -0.184 NA
HETATM    6  C   UNL     1      43.614 -17.327   2.923  1.00  0.00     0.153 C 
BRANCH   6   7
HETATM    7  C   UNL     1      44.001 -18.431   3.784  1.00  0.00     0.018 A 
HETATM    8  C   UNL     1      44.162 -19.819   3.443  1.00  0.00     0.004 A 
HETATM    9  C   UNL     1      44.559 -20.490   4.600  1.00  0.00     0.043 A 
HETATM   10  C   UNL     1      44.008 -20.571   2.259  1.00  0.00     0.014 A 
HETATM   11  C   UNL     1      44.813 -21.868   4.630  1.00  0.00     0.030 A 
HETATM   12  N   UNL     1      44.636 -19.557   5.603  1.00  0.00    -0.358 N 
HETATM   13  C   UNL     1      44.653 -22.586   3.441  1.00  0.00     0.002 A 
HETATM   14  C   UNL     1      44.255 -21.949   2.270  1.00  0.00     0.001 A 
HETATM   15  H   UNL     1      44.907 -19.772   6.553  1.00  0.00     0.166 HD
HETATM   16  C   UNL     1      44.305 -18.309   5.135  1.00  0.00     0.018 A 
HETATM   17  C   UNL     1      44.327 -17.123   6.032  1.00  0.00     0.069 C 
ENDBRANCH   6   7
ENDBRANCH   2   5
BRANCH   1  18
HETATM   18  C   UNL     1      40.541 -14.688   0.587  1.00  0.00     0.280 C 
BRANCH  18  19
HETATM   19  O   UNL     1      40.992 -15.116  -0.697  1.00  0.00    -0.341 OA
BRANCH  19  20
HETATM   20  C   UNL     1      41.372 -14.102  -1.543  1.00  0.00     0.086 A 
HETATM   21  C   UNL     1      40.908 -14.142  -2.865  1.00  0.00     0.044 A 
HETATM   22  C   UNL     1      41.251 -13.133  -3.773  1.00  0.00     0.028 A 
HETATM   23 BR   UNL     1      39.823 -15.572  -3.487  1.00  0.00    -0.048 Br
HETATM   24  C   UNL     1      42.043 -12.053  -3.365  1.00  0.00    -0.061 A 
HETATM   25  C   UNL     1      42.444 -10.980  -4.334  1.00  0.00     0.048 C 
HETATM   26  C   UNL     1      42.497 -12.009  -2.043  1.00  0.00     0.009 A 
HETATM   27  C   UNL     1      42.158 -13.018  -1.138  1.00  0.00     0.039 A 
ENDBRANCH  19  20
ENDBRANCH  18  19
ENDBRANCH   1  18
TORSDOF 5
ENDMDL
MODEL 4
REMARK VINA RESULT:      -8.3      2.490      3.351
REMARK  5 active torsions:
REMARK  status: ('A' for Active; 'I' for Inactive)
REMARK    1  A    between atoms: C_6  and  O_7 
REMARK    2  A    between atoms: O_7  and  C_8 
REMARK    3  A    between atoms: C_8  and  C_9 
REMARK       I    between atoms: C_9  and  N_10 
REMARK    4  A    between atoms: N_10  and  N_11 
REMARK    5  A    between atoms: C_12  and  C_13 
ROOT
HETATM    1  C   UNL     1      41.487 -11.867   6.150  1.00  0.00     0.261 C 
HETATM    2  N   UNL     1      41.954 -13.165   6.285  1.00  0.00    -0.246 N 
HETATM    3  O   UNL     1      41.103 -11.354   5.100  1.00  0.00    -0.269 OA
HETATM    4  H   UNL     1      42.214 -13.511   7.205  1.00  0.00     0.192 HD
ENDROOT
BRANCH   2   5
HETATM    5  N   UNL     1      42.061 -13.953   5.179  1.00  0.00    -0.184 NA
HETATM    6  C   UNL     1      41.427 -15.079   5.197  1.00  0.00     0.153 C 
BRANCH   6   7
HETATM    7  C   UNL     1      41.528 -15.971   4.055  1.00  0.00     0.018 A 
HETATM    8  C   UNL     1      42.410 -17.092   3.871  1.00  0.00     0.004 A 
HETATM    9  C   UNL     1      42.125 -17.647   2.623  1.00  0.00     0.043 A 
HETATM   10  C   UNL     1      43.425 -17.691   4.647  1.00  0.00     0.014 A 
HETATM   11  C   UNL     1      42.799 -18.767   2.117  1.00  0.00     0.030 A 
HETATM   12  N   UNL     1      41.117 -16.898   2.068  1.00  0.00    -0.358 N 
HETATM   13  C   UNL     1      43.798 -19.338   2.909  1.00  0.00     0.002 A 
HETATM   14  C   UNL     1      44.110 -18.810   4.157  1.00  0.00     0.001 A 
HETATM   15  H   UNL     1      40.712 -17.084   1.161  1.00  0.00     0.166 HD
HETATM   16  C   UNL     1      40.741 -15.883   2.913  1.00  0.00     0.018 A 
HETATM   17  C   UNL     1      39.653 -14.940   2.543  1.00  0.00     0.069 C 
ENDBRANCH   6   7
ENDBRANCH   2   5
BRANCH   1  18
HETATM   18  C   UNL     1      41.575 -11.050   7.435  1.00  0.00     0.280 C 
BRANCH  18  19
HETATM   19  O   UNL     1      42.894 -11.021   7.975  1.00  0.00    -0.341 OA
BRANCH  19  20
HETATM   20  C   UNL     1      42.969 -10.654   9.297  1.00  0.00     0.086 A 
HETATM   21  C   UNL     1      44.157 -10.928   9.988  1.00  0.00     0.044 A 
HETATM   22  C   UNL     1      44.300 -10.569  11.334  1.00  0.00     0.028 A 
HETATM   23 BR   UNL     1      45.607 -11.819   9.142  1.00  0.00    -0.048 Br
HETATM   24  C   UNL     1      43.266  -9.905  12.002  1.00  0.00    -0.061 A 
HETATM   25  C   UNL     1      43.393  -9.541  13.452  1.00  0.00     0.048 C 
HETATM   26  C   UNL     1      42.084  -9.622  11.310  1.00  0.00     0.009 A 
HETATM   27  C   UNL     1      41.940  -9.985   9.968  1.00  0.00     0.039 A 
ENDBRANCH  19  20
ENDBRANCH  18  19
ENDBRANCH   1  18
TORSDOF 5
ENDMDL
MODEL 5
REMARK VINA RESULT:      -8.2      5.585      8.564
REMARK  5 active torsions:
REMARK  status: ('A' for Active; 'I' for Inactive)
REMARK    1  A    between atoms: C_6  and  O_7 
REMARK    2  A    between atoms: O_7  and  C_8 
REMARK    3  A    between atoms: C_8  and  C_9 
REMARK       I    between atoms: C_9  and  N_10 
REMARK    4  A    between atoms: N_10  and  N_11 
REMARK    5  A    between atoms: C_12  and  C_13 
ROOT
HETATM    1  C   UNL     1      42.093 -14.414   1.355  1.00  0.00     0.261 C 
HETATM    2  N   UNL     1      42.830 -14.419   2.530  1.00  0.00    -0.246 N 
HETATM    3  O   UNL     1      41.926 -15.383   0.616  1.00  0.00    -0.269 OA
HETATM    4  H   UNL     1      42.878 -13.575   3.095  1.00  0.00     0.192 HD
ENDROOT
BRANCH   2   5
HETATM    5  N   UNL     1      43.480 -15.556   2.903  1.00  0.00    -0.184 NA
HETATM    6  C   UNL     1      42.885 -16.316   3.762  1.00  0.00     0.153 C 
BRANCH   6   7
HETATM    7  C   UNL     1      43.546 -17.528   4.217  1.00  0.00     0.018 A 
HETATM    8  C   UNL     1      43.726 -18.768   3.512  1.00  0.00     0.004 A 
HETATM    9  C   UNL     1      44.432 -19.628   4.353  1.00  0.00     0.043 A 
HETATM   10  C   UNL     1      43.357 -19.243   2.236  1.00  0.00     0.014 A 
HETATM   11  C   UNL     1      44.789 -20.932   3.982  1.00  0.00     0.030 A 
HETATM   12  N   UNL     1      44.671 -18.947   5.520  1.00  0.00    -0.358 N 
HETATM   13  C   UNL     1      44.410 -21.373   2.712  1.00  0.00     0.002 A 
HETATM   14  C   UNL     1      43.703 -20.544   1.848  1.00  0.00     0.001 A 
HETATM   15  H   UNL     1      45.173 -19.336   6.307  1.00  0.00     0.166 HD
HETATM   16  C   UNL     1      44.147 -17.678   5.461  1.00  0.00     0.018 A 
HETATM   17  C   UNL     1      44.288 -16.736   6.602  1.00  0.00     0.069 C 
ENDBRANCH   6   7
ENDBRANCH   2   5
BRANCH   1  18
HETATM   18  C   UNL     1      41.557 -13.037   0.977  1.00  0.00     0.280 C 
BRANCH  18  19
HETATM   19  O   UNL     1      42.575 -12.173   0.477  1.00  0.00    -0.341 OA
BRANCH  19  20
HETATM   20  C   UNL     1      42.500 -11.909  -0.869  1.00  0.00     0.086 A 
HETATM   21  C   UNL     1      42.696 -10.588  -1.292  1.00  0.00     0.044 A 
HETATM   22  C   UNL     1      42.643 -10.257  -2.651  1.00  0.00     0.028 A 
HETATM   23 BR   UNL     1      43.012  -9.190  -0.044  1.00  0.00    -0.048 Br
HETATM   24  C   UNL     1      42.421 -11.249  -3.612  1.00  0.00    -0.061 A 
HETATM   25  C   UNL     1      42.331 -10.905  -5.070  1.00  0.00     0.048 C 
HETATM   26  C   UNL     1      42.235 -12.569  -3.192  1.00  0.00     0.009 A 
HETATM   27  C   UNL     1      42.284 -12.899  -1.834  1.00  0.00     0.039 A 
ENDBRANCH  19  20
ENDBRANCH  18  19
ENDBRANCH   1  18
TORSDOF 5
ENDMDL
MODEL 6
REMARK VINA RESULT:      -8.1      6.383      9.249
REMARK  5 active torsions:
REMARK  status: ('A' for Active; 'I' for Inactive)
REMARK    1  A    between atoms: C_6  and  O_7 
REMARK    2  A    between atoms: O_7  and  C_8 
REMARK    3  A    between atoms: C_8  and  C_9 
REMARK       I    between atoms: C_9  and  N_10 
REMARK    4  A    between atoms: N_10  and  N_11 
REMARK    5  A    between atoms: C_12  and  C_13 
ROOT
HETATM    1  C   UNL     1      40.614 -16.017   1.599  1.00  0.00     0.261 C 
HETATM    2  N   UNL     1      40.870 -16.092   2.960  1.00  0.00    -0.246 N 
HETATM    3  O   UNL     1      40.883 -16.891   0.776  1.00  0.00    -0.269 OA
HETATM    4  H   UNL     1      40.575 -15.331   3.567  1.00  0.00     0.192 HD
ENDROOT
BRANCH   2   5
HETATM    5  N   UNL     1      41.516 -17.182   3.457  1.00  0.00    -0.184 NA
HETATM    6  C   UNL     1      42.808 -17.146   3.464  1.00  0.00     0.153 C 
BRANCH   6   7
HETATM    7  C   UNL     1      43.549 -18.293   3.958  1.00  0.00     0.018 A 
HETATM    8  C   UNL     1      43.759 -19.565   3.320  1.00  0.00     0.004 A 
HETATM    9  C   UNL     1      44.547 -20.337   4.175  1.00  0.00     0.043 A 
HETATM   10  C   UNL     1      43.356 -20.136   2.094  1.00  0.00     0.014 A 
HETATM   11  C   UNL     1      44.952 -21.642   3.865  1.00  0.00     0.030 A 
HETATM   12  N   UNL     1      44.804 -19.573   5.286  1.00  0.00    -0.358 N 
HETATM   13  C   UNL     1      44.537 -22.179   2.643  1.00  0.00     0.002 A 
HETATM   14  C   UNL     1      43.749 -21.440   1.768  1.00  0.00     0.001 A 
HETATM   15  H   UNL     1      45.361 -19.888   6.069  1.00  0.00     0.166 HD
HETATM   16  C   UNL     1      44.214 -18.338   5.177  1.00  0.00     0.018 A 
HETATM   17  C   UNL     1      44.360 -17.321   6.252  1.00  0.00     0.069 C 
ENDBRANCH   6   7
ENDBRANCH   2   5
BRANCH   1  18
HETATM   18  C   UNL     1      40.036 -14.676   1.159  1.00  0.00     0.280 C 
BRANCH  18  19
HETATM   19  O   UNL     1      40.533 -14.256  -0.109  1.00  0.00    -0.341 OA
BRANCH  19  20
HETATM   20  C   UNL     1      39.577 -13.793  -0.981  1.00  0.00     0.086 A 
HETATM   21  C   UNL     1      39.551 -14.332  -2.274  1.00  0.00     0.044 A 
HETATM   22  C   UNL     1      38.594 -13.910  -3.205  1.00  0.00     0.028 A 
HETATM   23 BR   UNL     1      40.824 -15.630  -2.828  1.00  0.00    -0.048 Br
HETATM   24  C   UNL     1      37.630 -12.961  -2.847  1.00  0.00    -0.061 A 
HETATM   25  C   UNL     1      36.617 -12.477  -3.843  1.00  0.00     0.048 C 
HETATM   26  C   UNL     1      37.649 -12.431  -1.554  1.00  0.00     0.009 A 
HETATM   27  C   UNL     1      38.607 -12.850  -0.626  1.00  0.00     0.039 A 
ENDBRANCH  19  20
ENDBRANCH  18  19
ENDBRANCH   1  18
TORSDOF 5
ENDMDL
MODEL 7
REMARK VINA RESULT:      -8.0      5.756      9.335
REMARK  5 active torsions:
REMARK  status: ('A' for Active; 'I' for Inactive)
REMARK    1  A    between atoms: C_6  and  O_7 
REMARK    2  A    between atoms: O_7  and  C_8 
REMARK    3  A    between atoms: C_8  and  C_9 
REMARK       I    between atoms: C_9  and  N_10 
REMARK    4  A    between atoms: N_10  and  N_11 
REMARK    5  A    between atoms: C_12  and  C_13 
ROOT
HETATM    1  C   UNL     1      41.918 -14.022   1.418  1.00  0.00     0.261 C 
HETATM    2  N   UNL     1      41.800 -15.385   1.188  1.00  0.00    -0.246 N 
HETATM    3  O   UNL     1      42.779 -13.491   2.118  1.00  0.00    -0.269 OA
HETATM    4  H   UNL     1      41.075 -15.726   0.562  1.00  0.00     0.192 HD
ENDROOT
BRANCH   2   5
HETATM    5  N   UNL     1      42.655 -16.242   1.810  1.00  0.00    -0.184 NA
HETATM    6  C   UNL     1      42.151 -17.032   2.700  1.00  0.00     0.153 C 
BRANCH   6   7
HETATM    7  C   UNL     1      43.023 -17.947   3.415  1.00  0.00     0.018 A 
HETATM    8  C   UNL     1      43.444 -19.267   3.031  1.00  0.00     0.004 A 
HETATM    9  C   UNL     1      44.290 -19.745   4.032  1.00  0.00     0.043 A 
HETATM   10  C   UNL     1      43.187 -20.105   1.924  1.00  0.00     0.014 A 
HETATM   11  C   UNL     1      44.891 -21.009   3.980  1.00  0.00     0.030 A 
HETATM   12  N   UNL     1      44.381 -18.763   4.987  1.00  0.00    -0.358 N 
HETATM   13  C   UNL     1      44.619 -21.815   2.871  1.00  0.00     0.002 A 
HETATM   14  C   UNL     1      43.778 -21.372   1.856  1.00  0.00     0.001 A 
HETATM   15  H   UNL     1      44.937 -18.844   5.827  1.00  0.00     0.166 HD
HETATM   16  C   UNL     1      43.626 -17.670   4.636  1.00  0.00     0.018 A 
HETATM   17  C   UNL     1      43.572 -16.465   5.505  1.00  0.00     0.069 C 
ENDBRANCH   6   7
ENDBRANCH   2   5
BRANCH   1  18
HETATM   18  C   UNL     1      40.798 -13.198   0.792  1.00  0.00     0.280 C 
BRANCH  18  19
HETATM   19  O   UNL     1      41.079 -12.829  -0.556  1.00  0.00    -0.341 OA
BRANCH  19  20
HETATM   20  C   UNL     1      40.567 -13.678  -1.507  1.00  0.00     0.086 A 
HETATM   21  C   UNL     1      39.255 -13.457  -1.947  1.00  0.00     0.044 A 
HETATM   22  C   UNL     1      38.679 -14.280  -2.922  1.00  0.00     0.028 A 
HETATM   23 BR   UNL     1      38.195 -12.056  -1.222  1.00  0.00    -0.048 Br
HETATM   24  C   UNL     1      39.418 -15.322  -3.493  1.00  0.00    -0.061 A 
HETATM   25  C   UNL     1      38.805 -16.232  -4.517  1.00  0.00     0.048 C 
HETATM   26  C   UNL     1      40.731 -15.537  -3.062  1.00  0.00     0.009 A 
HETATM   27  C   UNL     1      41.303 -14.717  -2.085  1.00  0.00     0.039 A 
ENDBRANCH  19  20
ENDBRANCH  18  19
ENDBRANCH   1  18
TORSDOF 5
ENDMDL
MODEL 8
REMARK VINA RESULT:      -8.0      2.121      2.469
REMARK  5 active torsions:
REMARK  status: ('A' for Active; 'I' for Inactive)
REMARK    1  A    between atoms: C_6  and  O_7 
REMARK    2  A    between atoms: O_7  and  C_8 
REMARK    3  A    between atoms: C_8  and  C_9 
REMARK       I    between atoms: C_9  and  N_10 
REMARK    4  A    between atoms: N_10  and  N_11 
REMARK    5  A    between atoms: C_12  and  C_13 
ROOT
HETATM    1  C   UNL     1      41.727 -12.152   6.342  1.00  0.00     0.261 C 
HETATM    2  N   UNL     1      42.505 -13.268   6.610  1.00  0.00    -0.246 N 
HETATM    3  O   UNL     1      41.095 -11.958   5.305  1.00  0.00    -0.269 OA
HETATM    4  H   UNL     1      42.961 -13.356   7.514  1.00  0.00     0.192 HD
ENDROOT
BRANCH   2   5
HETATM    5  N   UNL     1      42.645 -14.227   5.654  1.00  0.00    -0.184 NA
HETATM    6  C   UNL     1      42.756 -15.449   6.060  1.00  0.00     0.153 C 
BRANCH   6   7
HETATM    7  C   UNL     1      42.936 -16.510   5.084  1.00  0.00     0.018 A 
HETATM    8  C   UNL     1      42.251 -16.703   3.834  1.00  0.00     0.004 A 
HETATM    9  C   UNL     1      42.779 -17.850   3.241  1.00  0.00     0.043 A 
HETATM   10  C   UNL     1      41.231 -16.011   3.148  1.00  0.00     0.014 A 
HETATM   11  C   UNL     1      42.343 -18.335   2.001  1.00  0.00     0.030 A 
HETATM   12  N   UNL     1      43.741 -18.338   4.089  1.00  0.00    -0.358 N 
HETATM   13  C   UNL     1      41.332 -17.627   1.345  1.00  0.00     0.002 A 
HETATM   14  C   UNL     1      40.780 -16.481   1.908  1.00  0.00     0.001 A 
HETATM   15  H   UNL     1      44.290 -19.166   3.902  1.00  0.00     0.166 HD
HETATM   16  C   UNL     1      43.855 -17.546   5.206  1.00  0.00     0.018 A 
HETATM   17  C   UNL     1      44.843 -17.860   6.271  1.00  0.00     0.069 C 
ENDBRANCH   6   7
ENDBRANCH   2   5
BRANCH   1  18
HETATM   18  C   UNL     1      41.791 -11.088   7.432  1.00  0.00     0.280 C 
BRANCH  18  19
HETATM   19  O   UNL     1      43.079 -11.002   8.038  1.00  0.00    -0.341 OA
BRANCH  19  20
HETATM   20  C   UNL     1      43.072 -10.632   9.361  1.00  0.00     0.086 A 
HETATM   21  C   UNL     1      44.254 -10.797  10.095  1.00  0.00     0.044 A 
HETATM   22  C   UNL     1      44.314 -10.428  11.445  1.00  0.00     0.028 A 
HETATM   23 BR   UNL     1      45.810 -11.549   9.304  1.00  0.00    -0.048 Br
HETATM   24  C   UNL     1      43.199  -9.863  12.074  1.00  0.00    -0.061 A 
HETATM   25  C   UNL     1      43.240  -9.492  13.527  1.00  0.00     0.048 C 
HETATM   26  C   UNL     1      42.023  -9.690  11.339  1.00  0.00     0.009 A 
HETATM   27  C   UNL     1      41.962 -10.061   9.993  1.00  0.00     0.039 A 
ENDBRANCH  19  20
ENDBRANCH  18  19
ENDBRANCH   1  18
TORSDOF 5
ENDMDL
MODEL 9
REMARK VINA RESULT:      -7.9      5.942      8.489
REMARK  5 active torsions:
REMARK  status: ('A' for Active; 'I' for Inactive)
REMARK    1  A    between atoms: C_6  and  O_7 
REMARK    2  A    between atoms: O_7  and  C_8 
REMARK    3  A    between atoms: C_8  and  C_9 
REMARK       I    between atoms: C_9  and  N_10 
REMARK    4  A    between atoms: N_10  and  N_11 
REMARK    5  A    between atoms: C_12  and  C_13 
ROOT
HETATM    1  C   UNL     1      40.109 -15.623   2.714  1.00  0.00     0.261 C 
HETATM    2  N   UNL     1      40.897 -15.576   3.855  1.00  0.00    -0.246 N 
HETATM    3  O   UNL     1      39.913 -16.623   2.026  1.00  0.00    -0.269 OA
HETATM    4  H   UNL     1      40.967 -14.708   4.380  1.00  0.00     0.192 HD
ENDROOT
BRANCH   2   5
HETATM    5  N   UNL     1      41.566 -16.694   4.248  1.00  0.00    -0.184 NA
HETATM    6  C   UNL     1      42.807 -16.789   3.900  1.00  0.00     0.153 C 
BRANCH   6   7
HETATM    7  C   UNL     1      43.561 -17.974   4.269  1.00  0.00     0.018 A 
HETATM    8  C   UNL     1      43.719 -19.199   3.533  1.00  0.00     0.004 A 
HETATM    9  C   UNL     1      44.545 -20.035   4.285  1.00  0.00     0.043 A 
HETATM   10  C   UNL     1      43.239 -19.680   2.296  1.00  0.00     0.014 A 
HETATM   11  C   UNL     1      44.915 -21.319   3.863  1.00  0.00     0.030 A 
HETATM   12  N   UNL     1      44.875 -19.354   5.430  1.00  0.00    -0.358 N 
HETATM   13  C   UNL     1      44.425 -21.766   2.633  1.00  0.00     0.002 A 
HETATM   14  C   UNL     1      43.597 -20.961   1.858  1.00  0.00     0.001 A 
HETATM   15  H   UNL     1      45.472 -19.727   6.155  1.00  0.00     0.166 HD
HETATM   16  C   UNL     1      44.295 -18.109   5.442  1.00  0.00     0.018 A 
HETATM   17  C   UNL     1      44.514 -17.171   6.574  1.00  0.00     0.069 C 
ENDBRANCH   6   7
ENDBRANCH   2   5
BRANCH   1  18
HETATM   18  C   UNL     1      39.553 -14.264   2.300  1.00  0.00     0.280 C 
BRANCH  18  19
HETATM   19  O   UNL     1      38.588 -14.363   1.256  1.00  0.00    -0.341 OA
BRANCH  19  20
HETATM   20  C   UNL     1      38.965 -13.792   0.064  1.00  0.00     0.086 A 
HETATM   21  C   UNL     1      38.309 -12.622  -0.340  1.00  0.00     0.044 A 
HETATM   22  C   UNL     1      38.656 -11.986  -1.538  1.00  0.00     0.028 A 
HETATM   23 BR   UNL     1      36.910 -11.866   0.700  1.00  0.00    -0.048 Br
HETATM   24  C   UNL     1      39.684 -12.496  -2.338  1.00  0.00    -0.061 A 
HETATM   25  C   UNL     1      40.045 -11.843  -3.640  1.00  0.00     0.048 C 
HETATM   26  C   UNL     1      40.345 -13.659  -1.930  1.00  0.00     0.009 A 
HETATM   27  C   UNL     1      39.996 -14.295  -0.736  1.00  0.00     0.039 A 
ENDBRANCH  19  20
ENDBRANCH  18  19
ENDBRANCH   1  18
TORSDOF 5
ENDMDL
MODEL 10
REMARK VINA RESULT:      -7.8      6.307      9.560
REMARK  5 active torsions:
REMARK  status: ('A' for Active; 'I' for Inactive)
REMARK    1  A    between atoms: C_6  and  O_7 
REMARK    2  A    between atoms: O_7  and  C_8 
REMARK    3  A    between atoms: C_8  and  C_9 
REMARK       I    between atoms: C_9  and  N_10 
REMARK    4  A    between atoms: N_10  and  N_11 
REMARK    5  A    between atoms: C_12  and  C_13 
ROOT
HETATM    1  C   UNL     1      41.154 -15.615   3.847  1.00  0.00     0.261 C 
HETATM    2  N   UNL     1      40.179 -15.966   2.925  1.00  0.00    -0.246 N 
HETATM    3  O   UNL     1      41.652 -14.497   3.964  1.00  0.00    -0.269 OA
HETATM    4  H   UNL     1      39.800 -16.909   2.930  1.00  0.00     0.192 HD
ENDROOT
BRANCH   2   5
HETATM    5  N   UNL     1      39.748 -15.038   2.026  1.00  0.00    -0.184 NA
HETATM    6  C   UNL     1      40.189 -15.145   0.816  1.00  0.00     0.153 C 
BRANCH   6   7
HETATM    7  C   UNL     1      39.784 -14.166  -0.178  1.00  0.00     0.018 A 
HETATM    8  C   UNL     1      40.579 -13.556  -1.209  1.00  0.00     0.004 A 
HETATM    9  C   UNL     1      39.747 -12.693  -1.923  1.00  0.00     0.043 A 
HETATM   10  C   UNL     1      41.930 -13.655  -1.606  1.00  0.00     0.014 A 
HETATM   11  C   UNL     1      40.195 -11.931  -3.011  1.00  0.00     0.030 A 
HETATM   12  N   UNL     1      38.501 -12.770  -1.354  1.00  0.00    -0.358 N 
HETATM   13  C   UNL     1      41.538 -12.052  -3.380  1.00  0.00     0.002 A 
HETATM   14  C   UNL     1      42.396 -12.900  -2.689  1.00  0.00     0.001 A 
HETATM   15  H   UNL     1      37.700 -12.247  -1.680  1.00  0.00     0.166 HD
HETATM   16  C   UNL     1      38.498 -13.652  -0.301  1.00  0.00     0.018 A 
HETATM   17  C   UNL     1      37.258 -13.920   0.472  1.00  0.00     0.069 C 
ENDBRANCH   6   7
ENDBRANCH   2   5
BRANCH   1  18
HETATM   18  C   UNL     1      41.657 -16.790   4.679  1.00  0.00     0.280 C 
BRANCH  18  19
HETATM   19  O   UNL     1      43.061 -16.995   4.543  1.00  0.00    -0.341 OA
BRANCH  19  20
HETATM   20  C   UNL     1      43.417 -18.165   3.917  1.00  0.00     0.086 A 
HETATM   21  C   UNL     1      44.333 -19.005   4.566  1.00  0.00     0.044 A 
HETATM   22  C   UNL     1      44.727 -20.216   3.986  1.00  0.00     0.028 A 
HETATM   23 BR   UNL     1      45.096 -18.526   6.239  1.00  0.00    -0.048 Br
HETATM   24  C   UNL     1      44.190 -20.620   2.758  1.00  0.00    -0.061 A 
HETATM   25  C   UNL     1      44.626 -21.901   2.109  1.00  0.00     0.048 C 
HETATM   26  C   UNL     1      43.270 -19.787   2.115  1.00  0.00     0.009 A 
HETATM   27  C   UNL     1      42.879 -18.575   2.693  1.00  0.00     0.039 A 
ENDBRANCH  19  20
ENDBRANCH  18  19
ENDBRANCH   1  18
TORSDOF 5
ENDMDL
