MODEL 1
REMARK VINA RESULT:      -7.8      0.000      0.000
REMARK  5 active torsions:
REMARK  status: ('A' for Active; 'I' for Inactive)
REMARK    1  A    between atoms: C_2  and  C_3 
REMARK    2  A    between atoms: C_4  and  C_5 
REMARK    3  A    between atoms: C_8  and  C_9 
REMARK       I    between atoms: C_9  and  N_10 
REMARK    4  A    between atoms: N_10  and  C_11 
REMARK    5  A    between atoms: C_13  and  C_14 
ROOT
HETATM    1  C   UNL     1      41.681 -16.940   1.963  1.00  0.00     0.280 C 
HETATM    2  N   UNL     1      42.215 -16.277   0.871  1.00  0.00    -0.321 N 
HETATM    3  O   UNL     1      40.561 -16.755   2.429  1.00  0.00    -0.265 OA
HETATM    4  H   UNL     1      43.154 -16.572   0.623  1.00  0.00     0.169 HD
ENDROOT
BRANCH   2   5
HETATM    5  C   UNL     1      41.610 -15.300   0.059  1.00  0.00     0.035 A 
HETATM    6  C   UNL     1      40.766 -15.591  -1.019  1.00  0.00     0.042 A 
HETATM    7  C   UNL     1      40.206 -14.570  -1.808  1.00  0.00    -0.021 A 
HETATM    8  C   UNL     1      40.509 -13.239  -1.492  1.00  0.00     0.012 A 
HETATM    9  C   UNL     1      41.342 -12.937  -0.415  1.00  0.00     0.003 A 
HETATM   10  C   UNL     1      41.888 -13.962   0.357  1.00  0.00     0.029 A 
BRANCH   7  11
HETATM   11  C   UNL     1      39.343 -14.908  -2.933  1.00  0.00     0.010 A 
HETATM   12  C   UNL     1      39.379 -16.006  -3.830  1.00  0.00     0.152 A 
HETATM   13  N   UNL     1      38.401 -15.970  -4.739  1.00  0.00    -0.187 NA
HETATM   14  N   UNL     1      37.727 -14.854  -4.427  1.00  0.00    -0.289 N 
HETATM   15  H   UNL     1      36.917 -14.610  -4.987  1.00  0.00     0.188 HD
HETATM   16  C   UNL     1      38.248 -14.183  -3.357  1.00  0.00     0.123 A 
ENDBRANCH   7  11
ENDBRANCH   2   5
BRANCH   1  17
HETATM   17  C   UNL     1      42.589 -17.925   2.520  1.00  0.00     0.144 A 
HETATM   18  O   UNL     1      43.173 -17.700   3.739  1.00  0.00    -0.309 OA
HETATM   19  C   UNL     1      43.979 -18.766   4.005  1.00  0.00     0.060 A 
HETATM   20  C   UNL     1      43.935 -19.686   2.970  1.00  0.00    -0.026 A 
HETATM   21  C   UNL     1      43.023 -19.137   2.023  1.00  0.00     0.052 A 
BRANCH  19  22
HETATM   22  C   UNL     1      44.712 -18.723   5.298  1.00  0.00     0.061 C 
HETATM   23  C   UNL     1      44.035 -19.581   6.353  1.00  0.00     0.012 C 
ENDBRANCH  19  22
BRANCH  20  24
HETATM   24  C   UNL     1      44.690 -20.976   2.898  1.00  0.00     0.036 C 
HETATM   25  C   UNL     1      44.226 -21.929   1.807  1.00  0.00     0.010 C 
ENDBRANCH  20  24
ENDBRANCH   1  17
TORSDOF 5
ENDMDL
MODEL 2
REMARK VINA RESULT:      -7.8      0.694      2.093
REMARK  5 active torsions:
REMARK  status: ('A' for Active; 'I' for Inactive)
REMARK    1  A    between atoms: C_2  and  C_3 
REMARK    2  A    between atoms: C_4  and  C_5 
REMARK    3  A    between atoms: C_8  and  C_9 
REMARK       I    between atoms: C_9  and  N_10 
REMARK    4  A    between atoms: N_10  and  C_11 
REMARK    5  A    between atoms: C_13  and  C_14 
ROOT
HETATM    1  C   UNL     1      41.722 -16.967   2.171  1.00  0.00     0.280 C 
HETATM    2  N   UNL     1      42.311 -16.153   1.220  1.00  0.00    -0.321 N 
HETATM    3  O   UNL     1      40.524 -17.004   2.433  1.00  0.00    -0.265 OA
HETATM    4  H   UNL     1      43.316 -16.270   1.135  1.00  0.00     0.169 HD
ENDROOT
BRANCH   2   5
HETATM    5  C   UNL     1      41.692 -15.237   0.348  1.00  0.00     0.035 A 
HETATM    6  C   UNL     1      40.961 -15.608  -0.786  1.00  0.00     0.042 A 
HETATM    7  C   UNL     1      40.382 -14.645  -1.632  1.00  0.00    -0.021 A 
HETATM    8  C   UNL     1      40.550 -13.290  -1.316  1.00  0.00     0.012 A 
HETATM    9  C   UNL     1      41.270 -12.909  -0.183  1.00  0.00     0.003 A 
HETATM   10  C   UNL     1      41.836 -13.878   0.645  1.00  0.00     0.029 A 
BRANCH   7  11
HETATM   11  C   UNL     1      39.639 -15.065  -2.814  1.00  0.00     0.010 A 
HETATM   12  C   UNL     1      39.806 -16.190  -3.661  1.00  0.00     0.152 A 
HETATM   13  N   UNL     1      38.911 -16.234  -4.652  1.00  0.00    -0.187 NA
HETATM   14  N   UNL     1      38.162 -15.142  -4.444  1.00  0.00    -0.289 N 
HETATM   15  H   UNL     1      37.394 -14.959  -5.082  1.00  0.00     0.188 HD
HETATM   16  C   UNL     1      38.554 -14.410  -3.360  1.00  0.00     0.123 A 
ENDBRANCH   7  11
ENDBRANCH   2   5
BRANCH   1  17
HETATM   17  C   UNL     1      42.680 -17.823   2.847  1.00  0.00     0.144 A 
HETATM   18  O   UNL     1      43.094 -18.985   2.251  1.00  0.00    -0.309 OA
HETATM   19  C   UNL     1      43.969 -19.588   3.103  1.00  0.00     0.060 A 
HETATM   20  C   UNL     1      44.128 -18.837   4.257  1.00  0.00    -0.026 A 
HETATM   21  C   UNL     1      43.300 -17.693   4.073  1.00  0.00     0.052 A 
BRANCH  19  22
HETATM   22  C   UNL     1      44.547 -20.877   2.640  1.00  0.00     0.061 C 
HETATM   23  C   UNL     1      43.597 -21.614   1.711  1.00  0.00     0.012 C 
ENDBRANCH  19  22
BRANCH  20  24
HETATM   24  C   UNL     1      44.999 -19.180   5.425  1.00  0.00     0.036 C 
HETATM   25  C   UNL     1      45.157 -18.071   6.453  1.00  0.00     0.010 C 
ENDBRANCH  20  24
ENDBRANCH   1  17
TORSDOF 5
ENDMDL
MODEL 3
REMARK VINA RESULT:      -7.7      2.772      8.878
REMARK  5 active torsions:
REMARK  status: ('A' for Active; 'I' for Inactive)
REMARK    1  A    between atoms: C_2  and  C_3 
REMARK    2  A    between atoms: C_4  and  C_5 
REMARK    3  A    between atoms: C_8  and  C_9 
REMARK       I    between atoms: C_9  and  N_10 
REMARK    4  A    between atoms: N_10  and  C_11 
REMARK    5  A    between atoms: C_13  and  C_14 
ROOT
HETATM    1  C   UNL     1      41.573 -16.694   1.555  1.00  0.00     0.280 C 
HETATM    2  N   UNL     1      42.877 -17.069   1.829  1.00  0.00    -0.321 N 
HETATM    3  O   UNL     1      40.582 -17.063   2.177  1.00  0.00    -0.265 OA
HETATM    4  H   UNL     1      43.568 -16.652   1.213  1.00  0.00     0.169 HD
ENDROOT
BRANCH   2   5
HETATM    5  C   UNL     1      43.351 -17.902   2.860  1.00  0.00     0.035 A 
HETATM    6  C   UNL     1      43.296 -17.572   4.219  1.00  0.00     0.042 A 
HETATM    7  C   UNL     1      43.805 -18.439   5.203  1.00  0.00    -0.021 A 
HETATM    8  C   UNL     1      44.373 -19.654   4.797  1.00  0.00     0.012 A 
HETATM    9  C   UNL     1      44.424 -19.996   3.445  1.00  0.00     0.003 A 
HETATM   10  C   UNL     1      43.914 -19.125   2.482  1.00  0.00     0.029 A 
BRANCH   7  11
HETATM   11  C   UNL     1      43.746 -18.059   6.609  1.00  0.00     0.010 A 
HETATM   12  C   UNL     1      43.476 -16.808   7.220  1.00  0.00     0.152 A 
HETATM   13  N   UNL     1      43.507 -16.860   8.554  1.00  0.00    -0.187 NA
HETATM   14  N   UNL     1      43.791 -18.145   8.808  1.00  0.00    -0.289 N 
HETATM   15  H   UNL     1      43.864 -18.438   9.777  1.00  0.00     0.188 HD
HETATM   16  C   UNL     1      43.944 -18.903   7.683  1.00  0.00     0.123 A 
ENDBRANCH   7  11
ENDBRANCH   2   5
BRANCH   1  17
HETATM   17  C   UNL     1      41.476 -15.775   0.436  1.00  0.00     0.144 A 
HETATM   18  O   UNL     1      41.267 -16.262  -0.827  1.00  0.00    -0.309 OA
HETATM   19  C   UNL     1      41.235 -15.193  -1.672  1.00  0.00     0.060 A 
HETATM   20  C   UNL     1      41.428 -14.010  -0.977  1.00  0.00    -0.026 A 
HETATM   21  C   UNL     1      41.569 -14.399   0.387  1.00  0.00     0.052 A 
BRANCH  19  22
HETATM   22  C   UNL     1      41.012 -15.504  -3.109  1.00  0.00     0.061 C 
HETATM   23  C   UNL     1      39.532 -15.534  -3.451  1.00  0.00     0.012 C 
ENDBRANCH  19  22
BRANCH  20  24
HETATM   24  C   UNL     1      41.466 -12.633  -1.562  1.00  0.00     0.036 C 
HETATM   25  C   UNL     1      42.784 -12.253  -2.219  1.00  0.00     0.010 C 
ENDBRANCH  20  24
ENDBRANCH   1  17
TORSDOF 5
ENDMDL
MODEL 4
REMARK VINA RESULT:      -7.7      2.675      8.428
REMARK  5 active torsions:
REMARK  status: ('A' for Active; 'I' for Inactive)
REMARK    1  A    between atoms: C_2  and  C_3 
REMARK    2  A    between atoms: C_4  and  C_5 
REMARK    3  A    between atoms: C_8  and  C_9 
REMARK       I    between atoms: C_9  and  N_10 
REMARK    4  A    between atoms: N_10  and  C_11 
REMARK    5  A    between atoms: C_13  and  C_14 
ROOT
HETATM    1  C   UNL     1      41.630 -16.443   1.096  1.00  0.00     0.280 C 
HETATM    2  N   UNL     1      42.873 -16.452   1.706  1.00  0.00    -0.321 N 
HETATM    3  O   UNL     1      40.691 -17.179   1.384  1.00  0.00    -0.265 OA
HETATM    4  H   UNL     1      43.520 -15.761   1.341  1.00  0.00     0.169 HD
ENDROOT
BRANCH   2   5
HETATM    5  C   UNL     1      43.318 -17.254   2.773  1.00  0.00     0.035 A 
HETATM    6  C   UNL     1      43.629 -18.613   2.654  1.00  0.00     0.042 A 
HETATM    7  C   UNL     1      44.050 -19.368   3.763  1.00  0.00    -0.021 A 
HETATM    8  C   UNL     1      44.156 -18.730   5.006  1.00  0.00     0.012 A 
HETATM    9  C   UNL     1      43.858 -17.373   5.135  1.00  0.00     0.003 A 
HETATM   10  C   UNL     1      43.442 -16.639   4.024  1.00  0.00     0.029 A 
BRANCH   7  11
HETATM   11  C   UNL     1      44.352 -20.786   3.607  1.00  0.00     0.010 A 
HETATM   12  C   UNL     1      44.344 -21.613   2.456  1.00  0.00     0.152 A 
HETATM   13  N   UNL     1      44.689 -22.877   2.718  1.00  0.00    -0.187 NA
HETATM   14  N   UNL     1      44.927 -22.867   4.037  1.00  0.00    -0.289 N 
HETATM   15  H   UNL     1      45.217 -23.733   4.479  1.00  0.00     0.188 HD
HETATM   16  C   UNL     1      44.741 -21.644   4.616  1.00  0.00     0.123 A 
ENDBRANCH   7  11
ENDBRANCH   2   5
BRANCH   1  17
HETATM   17  C   UNL     1      41.522 -15.435   0.058  1.00  0.00     0.144 A 
HETATM   18  O   UNL     1      41.101 -15.792  -1.196  1.00  0.00    -0.309 OA
HETATM   19  C   UNL     1      41.109 -14.665  -1.962  1.00  0.00     0.060 A 
HETATM   20  C   UNL     1      41.537 -13.572  -1.224  1.00  0.00    -0.026 A 
HETATM   21  C   UNL     1      41.787 -14.081   0.082  1.00  0.00     0.052 A 
BRANCH  19  22
HETATM   22  C   UNL     1      40.677 -14.833  -3.375  1.00  0.00     0.061 C 
HETATM   23  C   UNL     1      39.817 -16.073  -3.553  1.00  0.00     0.012 C 
ENDBRANCH  19  22
BRANCH  20  24
HETATM   24  C   UNL     1      41.685 -12.169  -1.723  1.00  0.00     0.036 C 
HETATM   25  C   UNL     1      42.990 -11.488  -1.341  1.00  0.00     0.010 C 
ENDBRANCH  20  24
ENDBRANCH   1  17
TORSDOF 5
ENDMDL
MODEL 5
REMARK VINA RESULT:      -7.6      1.794      2.049
REMARK  5 active torsions:
REMARK  status: ('A' for Active; 'I' for Inactive)
REMARK    1  A    between atoms: C_2  and  C_3 
REMARK    2  A    between atoms: C_4  and  C_5 
REMARK    3  A    between atoms: C_8  and  C_9 
REMARK       I    between atoms: C_9  and  N_10 
REMARK    4  A    between atoms: N_10  and  C_11 
REMARK    5  A    between atoms: C_13  and  C_14 
ROOT
HETATM    1  C   UNL     1      42.631 -16.443   2.328  1.00  0.00     0.280 C 
HETATM    2  N   UNL     1      41.453 -16.658   1.633  1.00  0.00    -0.321 N 
HETATM    3  O   UNL     1      43.129 -15.347   2.562  1.00  0.00    -0.265 OA
HETATM    4  H   UNL     1      41.191 -17.634   1.549  1.00  0.00     0.169 HD
ENDROOT
BRANCH   2   5
HETATM    5  C   UNL     1      40.577 -15.704   1.081  1.00  0.00     0.035 A 
HETATM    6  C   UNL     1      40.758 -15.108  -0.171  1.00  0.00     0.042 A 
HETATM    7  C   UNL     1      39.857 -14.144  -0.660  1.00  0.00    -0.021 A 
HETATM    8  C   UNL     1      38.760 -13.788   0.136  1.00  0.00     0.012 A 
HETATM    9  C   UNL     1      38.565 -14.383   1.383  1.00  0.00     0.003 A 
HETATM   10  C   UNL     1      39.469 -15.337   1.852  1.00  0.00     0.029 A 
BRANCH   7  11
HETATM   11  C   UNL     1      40.082 -13.530  -1.963  1.00  0.00     0.010 A 
HETATM   12  C   UNL     1      41.279 -13.325  -2.695  1.00  0.00     0.152 A 
HETATM   13  N   UNL     1      41.076 -12.725  -3.871  1.00  0.00    -0.187 NA
HETATM   14  N   UNL     1      39.748 -12.548  -3.905  1.00  0.00    -0.289 N 
HETATM   15  H   UNL     1      39.343 -12.105  -4.723  1.00  0.00     0.188 HD
HETATM   16  C   UNL     1      39.107 -13.011  -2.791  1.00  0.00     0.123 A 
ENDBRANCH   7  11
ENDBRANCH   2   5
BRANCH   1  17
HETATM   17  C   UNL     1      43.240 -17.676   2.793  1.00  0.00     0.144 A 
HETATM   18  O   UNL     1      43.668 -17.777   4.090  1.00  0.00    -0.309 OA
HETATM   19  C   UNL     1      44.204 -19.020   4.244  1.00  0.00     0.060 A 
HETATM   20  C   UNL     1      44.140 -19.734   3.058  1.00  0.00    -0.026 A 
HETATM   21  C   UNL     1      43.502 -18.859   2.132  1.00  0.00     0.052 A 
BRANCH  19  22
HETATM   22  C   UNL     1      44.731 -19.340   5.597  1.00  0.00     0.061 C 
HETATM   23  C   UNL     1      45.147 -18.085   6.347  1.00  0.00     0.012 C 
ENDBRANCH  19  22
BRANCH  20  24
HETATM   24  C   UNL     1      44.636 -21.128   2.835  1.00  0.00     0.036 C 
HETATM   25  C   UNL     1      44.020 -21.843   1.642  1.00  0.00     0.010 C 
ENDBRANCH  20  24
ENDBRANCH   1  17
TORSDOF 5
ENDMDL
MODEL 6
REMARK VINA RESULT:      -7.6      7.026     10.279
REMARK  5 active torsions:
REMARK  status: ('A' for Active; 'I' for Inactive)
REMARK    1  A    between atoms: C_2  and  C_3 
REMARK    2  A    between atoms: C_4  and  C_5 
REMARK    3  A    between atoms: C_8  and  C_9 
REMARK       I    between atoms: C_9  and  N_10 
REMARK    4  A    between atoms: N_10  and  C_11 
REMARK    5  A    between atoms: C_13  and  C_14 
ROOT
HETATM    1  C   UNL     1      43.689 -14.165   6.202  1.00  0.00     0.280 C 
HETATM    2  N   UNL     1      44.692 -14.184   7.156  1.00  0.00    -0.321 N 
HETATM    3  O   UNL     1      42.959 -13.211   5.957  1.00  0.00    -0.265 OA
HETATM    4  H   UNL     1      45.201 -15.061   7.208  1.00  0.00     0.169 HD
ENDROOT
BRANCH   2   5
HETATM    5  C   UNL     1      45.107 -13.145   8.011  1.00  0.00     0.035 A 
HETATM    6  C   UNL     1      44.373 -12.703   9.117  1.00  0.00     0.042 A 
HETATM    7  C   UNL     1      44.831 -11.644   9.923  1.00  0.00    -0.021 A 
HETATM    8  C   UNL     1      46.050 -11.034   9.597  1.00  0.00     0.012 A 
HETATM    9  C   UNL     1      46.793 -11.473   8.502  1.00  0.00     0.003 A 
HETATM   10  C   UNL     1      46.325 -12.525   7.714  1.00  0.00     0.029 A 
BRANCH   7  11
HETATM   11  C   UNL     1      44.035 -11.197  11.059  1.00  0.00     0.010 A 
HETATM   12  C   UNL     1      43.427 -11.931  12.109  1.00  0.00     0.152 A 
HETATM   13  N   UNL     1      42.777 -11.154  12.980  1.00  0.00    -0.187 NA
HETATM   14  N   UNL     1      42.970  -9.918  12.499  1.00  0.00    -0.289 N 
HETATM   15  H   UNL     1      42.565  -9.138  13.006  1.00  0.00     0.188 HD
HETATM   16  C   UNL     1      43.714  -9.888  11.355  1.00  0.00     0.123 A 
ENDBRANCH   7  11
ENDBRANCH   2   5
BRANCH   1  17
HETATM   17  C   UNL     1      43.585 -15.416   5.473  1.00  0.00     0.144 A 
HETATM   18  O   UNL     1      43.284 -15.401   4.136  1.00  0.00    -0.309 OA
HETATM   19  C   UNL     1      43.236 -16.697   3.718  1.00  0.00     0.060 A 
HETATM   20  C   UNL     1      43.496 -17.563   4.769  1.00  0.00    -0.026 A 
HETATM   21  C   UNL     1      43.733 -16.722   5.894  1.00  0.00     0.052 A 
BRANCH  19  22
HETATM   22  C   UNL     1      42.924 -16.907   2.280  1.00  0.00     0.061 C 
HETATM   23  C   UNL     1      44.159 -17.316   1.494  1.00  0.00     0.012 C 
ENDBRANCH  19  22
BRANCH  20  24
HETATM   24  C   UNL     1      43.522 -19.058   4.700  1.00  0.00     0.036 C 
HETATM   25  C   UNL     1      44.871 -19.689   5.008  1.00  0.00     0.010 C 
ENDBRANCH  20  24
ENDBRANCH   1  17
TORSDOF 5
ENDMDL
MODEL 7
REMARK VINA RESULT:      -7.6      7.022     10.201
REMARK  5 active torsions:
REMARK  status: ('A' for Active; 'I' for Inactive)
REMARK    1  A    between atoms: C_2  and  C_3 
REMARK    2  A    between atoms: C_4  and  C_5 
REMARK    3  A    between atoms: C_8  and  C_9 
REMARK       I    between atoms: C_9  and  N_10 
REMARK    4  A    between atoms: N_10  and  C_11 
REMARK    5  A    between atoms: C_13  and  C_14 
ROOT
HETATM    1  C   UNL     1      43.745 -14.286   6.270  1.00  0.00     0.280 C 
HETATM    2  N   UNL     1      44.723 -14.266   7.249  1.00  0.00    -0.321 N 
HETATM    3  O   UNL     1      43.029 -13.340   5.960  1.00  0.00    -0.265 OA
HETATM    4  H   UNL     1      45.223 -15.143   7.357  1.00  0.00     0.169 HD
ENDROOT
BRANCH   2   5
HETATM    5  C   UNL     1      45.126 -13.189   8.062  1.00  0.00     0.035 A 
HETATM    6  C   UNL     1      44.401 -12.729   9.166  1.00  0.00     0.042 A 
HETATM    7  C   UNL     1      44.845 -11.633   9.929  1.00  0.00    -0.021 A 
HETATM    8  C   UNL     1      46.041 -11.003   9.561  1.00  0.00     0.012 A 
HETATM    9  C   UNL     1      46.777 -11.460   8.467  1.00  0.00     0.003 A 
HETATM   10  C   UNL     1      46.322 -12.548   7.723  1.00  0.00     0.029 A 
BRANCH   7  11
HETATM   11  C   UNL     1      44.058 -11.169  11.065  1.00  0.00     0.010 A 
HETATM   12  C   UNL     1      43.666  -9.861  11.447  1.00  0.00     0.152 A 
HETATM   13  N   UNL     1      42.933  -9.841  12.563  1.00  0.00    -0.187 NA
HETATM   14  N   UNL     1      42.844 -11.135  12.901  1.00  0.00    -0.289 N 
HETATM   15  H   UNL     1      42.318 -11.378  13.734  1.00  0.00     0.188 HD
HETATM   16  C   UNL     1      43.498 -11.969  12.040  1.00  0.00     0.123 A 
ENDBRANCH   7  11
ENDBRANCH   2   5
BRANCH   1  17
HETATM   17  C   UNL     1      43.648 -15.571   5.601  1.00  0.00     0.144 A 
HETATM   18  O   UNL     1      44.175 -16.688   6.194  1.00  0.00    -0.309 OA
HETATM   19  C   UNL     1      43.958 -17.735   5.349  1.00  0.00     0.060 A 
HETATM   20  C   UNL     1      43.300 -17.315   4.204  1.00  0.00    -0.026 A 
HETATM   21  C   UNL     1      43.093 -15.917   4.386  1.00  0.00     0.052 A 
BRANCH  19  22
HETATM   22  C   UNL     1      44.454 -19.059   5.809  1.00  0.00     0.061 C 
HETATM   23  C   UNL     1      43.801 -19.477   7.116  1.00  0.00     0.012 C 
ENDBRANCH  19  22
BRANCH  20  24
HETATM   24  C   UNL     1      42.899 -18.174   3.046  1.00  0.00     0.036 C 
HETATM   25  C   UNL     1      43.982 -18.384   1.999  1.00  0.00     0.010 C 
ENDBRANCH  20  24
ENDBRANCH   1  17
TORSDOF 5
ENDMDL
MODEL 8
REMARK VINA RESULT:      -7.5      2.737      8.713
REMARK  5 active torsions:
REMARK  status: ('A' for Active; 'I' for Inactive)
REMARK    1  A    between atoms: C_2  and  C_3 
REMARK    2  A    between atoms: C_4  and  C_5 
REMARK    3  A    between atoms: C_8  and  C_9 
REMARK       I    between atoms: C_9  and  N_10 
REMARK    4  A    between atoms: N_10  and  C_11 
REMARK    5  A    between atoms: C_13  and  C_14 
ROOT
HETATM    1  C   UNL     1      41.508 -16.751   1.651  1.00  0.00     0.280 C 
HETATM    2  N   UNL     1      42.814 -17.169   1.848  1.00  0.00    -0.321 N 
HETATM    3  O   UNL     1      40.554 -17.042   2.364  1.00  0.00    -0.265 OA
HETATM    4  H   UNL     1      43.472 -16.817   1.161  1.00  0.00     0.169 HD
ENDROOT
BRANCH   2   5
HETATM    5  C   UNL     1      43.329 -17.969   2.885  1.00  0.00     0.035 A 
HETATM    6  C   UNL     1      43.268 -17.626   4.240  1.00  0.00     0.042 A 
HETATM    7  C   UNL     1      43.821 -18.457   5.232  1.00  0.00    -0.021 A 
HETATM    8  C   UNL     1      44.439 -19.651   4.836  1.00  0.00     0.012 A 
HETATM    9  C   UNL     1      44.497 -20.007   3.488  1.00  0.00     0.003 A 
HETATM   10  C   UNL     1      43.944 -19.170   2.518  1.00  0.00     0.029 A 
BRANCH   7  11
HETATM   11  C   UNL     1      43.754 -18.063   6.634  1.00  0.00     0.010 A 
HETATM   12  C   UNL     1      43.429 -16.820   7.231  1.00  0.00     0.152 A 
HETATM   13  N   UNL     1      43.472 -16.854   8.566  1.00  0.00    -0.187 NA
HETATM   14  N   UNL     1      43.819 -18.121   8.833  1.00  0.00    -0.289 N 
HETATM   15  H   UNL     1      43.912 -18.398   9.805  1.00  0.00     0.188 HD
HETATM   16  C   UNL     1      43.999 -18.885   7.716  1.00  0.00     0.123 A 
ENDBRANCH   7  11
ENDBRANCH   2   5
BRANCH   1  17
HETATM   17  C   UNL     1      41.365 -15.888   0.493  1.00  0.00     0.144 A 
HETATM   18  O   UNL     1      41.412 -14.528   0.649  1.00  0.00    -0.309 OA
HETATM   19  C   UNL     1      41.237 -13.973  -0.583  1.00  0.00     0.060 A 
HETATM   20  C   UNL     1      41.068 -14.956  -1.546  1.00  0.00    -0.026 A 
HETATM   21  C   UNL     1      41.167 -16.189  -0.839  1.00  0.00     0.052 A 
BRANCH  19  22
HETATM   22  C   UNL     1      41.258 -12.487  -0.639  1.00  0.00     0.061 C 
HETATM   23  C   UNL     1      42.598 -11.965  -1.131  1.00  0.00     0.012 C 
ENDBRANCH  19  22
BRANCH  20  24
HETATM   24  C   UNL     1      40.842 -14.735  -3.008  1.00  0.00     0.036 C 
HETATM   25  C   UNL     1      39.688 -15.528  -3.604  1.00  0.00     0.010 C 
ENDBRANCH  20  24
ENDBRANCH   1  17
TORSDOF 5
ENDMDL
MODEL 9
REMARK VINA RESULT:      -7.4      1.804      2.843
REMARK  5 active torsions:
REMARK  status: ('A' for Active; 'I' for Inactive)
REMARK    1  A    between atoms: C_2  and  C_3 
REMARK    2  A    between atoms: C_4  and  C_5 
REMARK    3  A    between atoms: C_8  and  C_9 
REMARK       I    between atoms: C_9  and  N_10 
REMARK    4  A    between atoms: N_10  and  C_11 
REMARK    5  A    between atoms: C_13  and  C_14 
ROOT
HETATM    1  C   UNL     1      42.723 -16.683   2.780  1.00  0.00     0.280 C 
HETATM    2  N   UNL     1      41.623 -16.912   1.970  1.00  0.00    -0.321 N 
HETATM    3  O   UNL     1      43.156 -15.580   3.097  1.00  0.00    -0.265 OA
HETATM    4  H   UNL     1      41.407 -17.893   1.828  1.00  0.00     0.169 HD
ENDROOT
BRANCH   2   5
HETATM    5  C   UNL     1      40.765 -15.969   1.373  1.00  0.00     0.035 A 
HETATM    6  C   UNL     1      40.959 -15.435   0.094  1.00  0.00     0.042 A 
HETATM    7  C   UNL     1      40.077 -14.479  -0.442  1.00  0.00    -0.021 A 
HETATM    8  C   UNL     1      38.986 -14.066   0.335  1.00  0.00     0.012 A 
HETATM    9  C   UNL     1      38.779 -14.599   1.607  1.00  0.00     0.003 A 
HETATM   10  C   UNL     1      39.663 -15.546   2.123  1.00  0.00     0.029 A 
BRANCH   7  11
HETATM   11  C   UNL     1      40.316 -13.931  -1.771  1.00  0.00     0.010 A 
HETATM   12  C   UNL     1      41.459 -13.294  -2.318  1.00  0.00     0.152 A 
HETATM   13  N   UNL     1      41.294 -12.931  -3.593  1.00  0.00    -0.187 NA
HETATM   14  N   UNL     1      40.048 -13.339  -3.874  1.00  0.00    -0.289 N 
HETATM   15  H   UNL     1      39.689 -13.175  -4.809  1.00  0.00     0.188 HD
HETATM   16  C   UNL     1      39.421 -13.942  -2.822  1.00  0.00     0.123 A 
ENDBRANCH   7  11
ENDBRANCH   2   5
BRANCH   1  17
HETATM   17  C   UNL     1      43.333 -17.911   3.256  1.00  0.00     0.144 A 
HETATM   18  O   UNL     1      43.737 -18.863   2.358  1.00  0.00    -0.309 OA
HETATM   19  C   UNL     1      44.253 -19.901   3.073  1.00  0.00     0.060 A 
HETATM   20  C   UNL     1      44.185 -19.644   4.433  1.00  0.00    -0.026 A 
HETATM   21  C   UNL     1      43.601 -18.349   4.537  1.00  0.00     0.052 A 
BRANCH  19  22
HETATM   22  C   UNL     1      44.759 -21.053   2.280  1.00  0.00     0.061 C 
HETATM   23  C   UNL     1      43.620 -21.863   1.682  1.00  0.00     0.012 C 
ENDBRANCH  19  22
BRANCH  20  24
HETATM   24  C   UNL     1      44.645 -20.551   5.531  1.00  0.00     0.036 C 
HETATM   25  C   UNL     1      43.699 -20.648   6.719  1.00  0.00     0.010 C 
ENDBRANCH  20  24
ENDBRANCH   1  17
TORSDOF 5
ENDMDL
MODEL 10
REMARK VINA RESULT:      -7.2      3.687      5.594
REMARK  5 active torsions:
REMARK  status: ('A' for Active; 'I' for Inactive)
REMARK    1  A    between atoms: C_2  and  C_3 
REMARK    2  A    between atoms: C_4  and  C_5 
REMARK    3  A    between atoms: C_8  and  C_9 
REMARK       I    between atoms: C_9  and  N_10 
REMARK    4  A    between atoms: N_10  and  C_11 
REMARK    5  A    between atoms: C_13  and  C_14 
ROOT
HETATM    1  C   UNL     1      42.988 -16.910   3.052  1.00  0.00     0.280 C 
HETATM    2  N   UNL     1      41.623 -16.785   3.252  1.00  0.00    -0.321 N 
HETATM    3  O   UNL     1      43.716 -16.053   2.564  1.00  0.00    -0.265 OA
HETATM    4  H   UNL     1      41.189 -17.595   3.681  1.00  0.00     0.169 HD
ENDROOT
BRANCH   2   5
HETATM    5  C   UNL     1      40.797 -15.678   2.978  1.00  0.00     0.035 A 
HETATM    6  C   UNL     1      40.581 -14.624   3.872  1.00  0.00     0.042 A 
HETATM    7  C   UNL     1      39.726 -13.554   3.549  1.00  0.00    -0.021 A 
HETATM    8  C   UNL     1      39.089 -13.560   2.301  1.00  0.00     0.012 A 
HETATM    9  C   UNL     1      39.305 -14.602   1.399  1.00  0.00     0.003 A 
HETATM   10  C   UNL     1      40.155 -15.655   1.735  1.00  0.00     0.029 A 
BRANCH   7  11
HETATM   11  C   UNL     1      39.510 -12.478   4.508  1.00  0.00     0.010 A 
HETATM   12  C   UNL     1      39.285 -12.517   5.908  1.00  0.00     0.152 A 
HETATM   13  N   UNL     1      39.135 -11.304   6.447  1.00  0.00    -0.187 NA
HETATM   14  N   UNL     1      39.271 -10.480   5.399  1.00  0.00    -0.289 N 
HETATM   15  H   UNL     1      39.201  -9.480   5.563  1.00  0.00     0.188 HD
HETATM   16  C   UNL     1      39.496 -11.129   4.219  1.00  0.00     0.123 A 
ENDBRANCH   7  11
ENDBRANCH   2   5
BRANCH   1  17
HETATM   17  C   UNL     1      43.505 -18.187   3.507  1.00  0.00     0.144 A 
HETATM   18  O   UNL     1      43.883 -19.134   2.592  1.00  0.00    -0.309 OA
HETATM   19  C   UNL     1      44.310 -20.224   3.288  1.00  0.00     0.060 A 
HETATM   20  C   UNL     1      44.210 -20.005   4.653  1.00  0.00    -0.026 A 
HETATM   21  C   UNL     1      43.702 -18.680   4.781  1.00  0.00     0.052 A 
BRANCH  19  22
HETATM   22  C   UNL     1      44.773 -21.379   2.474  1.00  0.00     0.061 C 
HETATM   23  C   UNL     1      43.723 -21.804   1.460  1.00  0.00     0.012 C 
ENDBRANCH  19  22
BRANCH  20  24
HETATM   24  C   UNL     1      44.574 -20.973   5.735  1.00  0.00     0.036 C 
HETATM   25  C   UNL     1      43.639 -20.974   6.935  1.00  0.00     0.010 C 
ENDBRANCH  20  24
ENDBRANCH   1  17
TORSDOF 5
ENDMDL
