MODEL 1
REMARK VINA RESULT:      -9.5      0.000      0.000
REMARK  7 active torsions:
REMARK  status: ('A' for Active; 'I' for Inactive)
REMARK    1  A    between atoms: C_7  and  C_8 
REMARK    2  A    between atoms: C_8  and  C_9 
REMARK       I    between atoms: C_9  and  N_10 
REMARK    3  A    between atoms: N_10  and  N_11 
REMARK       I    between atoms: N_11  and  C_12 
REMARK    4  A    between atoms: C_12  and  C_13 
REMARK    5  A    between atoms: C_23  and  O_24 
REMARK    6  A    between atoms: O_24  and  C_25 
REMARK    7  A    between atoms: C_25  and  C_26 
ROOT
HETATM    1  C   UNL     1      40.927 -11.806   5.858  1.00  0.00     0.068 C 
HETATM    2  C   UNL     1      41.603 -13.130   5.904  1.00  0.00     0.013 A 
HETATM    3  N   UNL     1      42.863 -13.273   6.426  1.00  0.00    -0.359 N 
HETATM    4  H   UNL     1      43.424 -12.525   6.810  1.00  0.00     0.166 HD
HETATM    5  C   UNL     1      43.264 -14.587   6.368  1.00  0.00     0.043 A 
HETATM    6  C   UNL     1      42.228 -15.306   5.780  1.00  0.00     0.002 A 
HETATM    7  C   UNL     1      41.179 -14.379   5.475  1.00  0.00    -0.015 A 
HETATM    8  C   UNL     1      44.456 -15.185   6.790  1.00  0.00     0.033 A 
HETATM    9  C   UNL     1      44.592 -16.568   6.614  1.00  0.00     0.039 A 
HETATM   10  C   UNL     1      43.573 -17.325   6.038  1.00  0.00     0.070 A 
HETATM   11  C   UNL     1      42.393 -16.698   5.611  1.00  0.00     0.051 A 
ENDROOT
BRANCH   7  12
HETATM   12  C   UNL     1      39.868 -14.703   4.824  1.00  0.00     0.146 C 
BRANCH  12  13
HETATM   13  C   UNL     1      39.843 -14.446   3.328  1.00  0.00     0.240 C 
HETATM   14  N   UNL     1      39.839 -15.566   2.519  1.00  0.00    -0.267 N 
HETATM   15  H   UNL     1      40.191 -16.465   2.854  1.00  0.00     0.190 HD
HETATM   16  O   UNL     1      39.743 -13.309   2.858  1.00  0.00    -0.272 OA
BRANCH  14  17
HETATM   17  N   UNL     1      39.921 -15.352   1.132  1.00  0.00    -0.263 N 
HETATM   18  C   UNL     1      41.173 -15.373   0.548  1.00  0.00     0.270 C 
HETATM   19  O   UNL     1      42.190 -15.674   1.166  1.00  0.00    -0.266 OA
HETATM   20  H   UNL     1      39.135 -14.845   0.732  1.00  0.00     0.190 HD
BRANCH  18  21
HETATM   21  C   UNL     1      41.246 -14.984  -0.887  1.00  0.00     0.036 A 
HETATM   22  C   UNL     1      40.839 -15.916  -1.843  1.00  0.00     0.036 A 
HETATM   23  C   UNL     1      40.901 -15.557  -3.176  1.00  0.00     0.117 A 
HETATM   24  N   UNL     1      41.328 -14.351  -3.605  1.00  0.00    -0.273 NA
HETATM   25  C   UNL     1      41.700 -13.460  -2.662  1.00  0.00     0.117 A 
HETATM   26  C   UNL     1      41.675 -13.722  -1.303  1.00  0.00     0.036 A 
ENDBRANCH  18  21
ENDBRANCH  14  17
ENDBRANCH  12  13
ENDBRANCH   7  12
BRANCH  10  27
HETATM   27  O   UNL     1      43.594 -18.679   5.833  1.00  0.00    -0.347 OA
BRANCH  27  28
HETATM   28  C   UNL     1      44.776 -19.232   5.253  1.00  0.00     0.214 C 
BRANCH  28  29
HETATM   29  C   UNL     1      44.439 -20.114   4.068  1.00  0.00    -0.034 A 
HETATM   30  C   UNL     1      43.855 -19.601   2.901  1.00  0.00     0.009 A 
HETATM   31  C   UNL     1      43.584 -20.437   1.814  1.00  0.00     0.001 A 
HETATM   32  C   UNL     1      43.906 -21.790   1.876  1.00  0.00     0.000 A 
HETATM   33  C   UNL     1      44.500 -22.311   3.023  1.00  0.00     0.001 A 
HETATM   34  C   UNL     1      44.769 -21.478   4.111  1.00  0.00     0.009 A 
ENDBRANCH  28  29
ENDBRANCH  27  28
ENDBRANCH  10  27
TORSDOF 7
ENDMDL
MODEL 2
REMARK VINA RESULT:      -9.4      1.789      2.298
REMARK  7 active torsions:
REMARK  status: ('A' for Active; 'I' for Inactive)
REMARK    1  A    between atoms: C_7  and  C_8 
REMARK    2  A    between atoms: C_8  and  C_9 
REMARK       I    between atoms: C_9  and  N_10 
REMARK    3  A    between atoms: N_10  and  N_11 
REMARK       I    between atoms: N_11  and  C_12 
REMARK    4  A    between atoms: C_12  and  C_13 
REMARK    5  A    between atoms: C_23  and  O_24 
REMARK    6  A    between atoms: O_24  and  C_25 
REMARK    7  A    between atoms: C_25  and  C_26 
ROOT
HETATM    1  C   UNL     1      39.182 -12.369   5.917  1.00  0.00     0.068 C 
HETATM    2  C   UNL     1      40.093 -13.517   5.668  1.00  0.00     0.013 A 
HETATM    3  N   UNL     1      39.869 -14.746   6.235  1.00  0.00    -0.359 N 
HETATM    4  H   UNL     1      39.098 -14.973   6.848  1.00  0.00     0.166 HD
HETATM    5  C   UNL     1      40.836 -15.642   5.846  1.00  0.00     0.043 A 
HETATM    6  C   UNL     1      41.714 -14.959   5.008  1.00  0.00     0.002 A 
HETATM    7  C   UNL     1      41.248 -13.608   4.906  1.00  0.00    -0.015 A 
HETATM    8  C   UNL     1      40.996 -16.993   6.170  1.00  0.00     0.033 A 
HETATM    9  C   UNL     1      42.086 -17.675   5.612  1.00  0.00     0.039 A 
HETATM   10  C   UNL     1      42.981 -17.029   4.761  1.00  0.00     0.070 A 
HETATM   11  C   UNL     1      42.805 -15.669   4.464  1.00  0.00     0.051 A 
ENDROOT
BRANCH   7  12
HETATM   12  C   UNL     1      41.885 -12.506   4.114  1.00  0.00     0.146 C 
BRANCH  12  13
HETATM   13  C   UNL     1      41.813 -12.706   2.612  1.00  0.00     0.240 C 
HETATM   14  N   UNL     1      40.563 -12.561   2.039  1.00  0.00    -0.267 N 
HETATM   15  H   UNL     1      39.709 -12.679   2.589  1.00  0.00     0.190 HD
HETATM   16  O   UNL     1      42.820 -12.898   1.925  1.00  0.00    -0.272 OA
BRANCH  14  17
HETATM   17  N   UNL     1      40.453 -12.844   0.667  1.00  0.00    -0.263 N 
HETATM   18  C   UNL     1      39.960 -14.081   0.298  1.00  0.00     0.270 C 
HETATM   19  O   UNL     1      39.519 -14.889   1.111  1.00  0.00    -0.266 OA
HETATM   20  H   UNL     1      41.067 -12.296   0.068  1.00  0.00     0.190 HD
BRANCH  18  21
HETATM   21  C   UNL     1      40.007 -14.414  -1.152  1.00  0.00     0.036 A 
HETATM   22  C   UNL     1      40.938 -15.363  -1.578  1.00  0.00     0.036 A 
HETATM   23  C   UNL     1      40.981 -15.678  -2.923  1.00  0.00     0.117 A 
HETATM   24  N   UNL     1      40.168 -15.125  -3.847  1.00  0.00    -0.273 NA
HETATM   25  C   UNL     1      39.265 -14.224  -3.408  1.00  0.00     0.117 A 
HETATM   26  C   UNL     1      39.140 -13.839  -2.084  1.00  0.00     0.036 A 
ENDBRANCH  18  21
ENDBRANCH  14  17
ENDBRANCH  12  13
ENDBRANCH   7  12
BRANCH  10  27
HETATM   27  O   UNL     1      44.066 -17.600   4.152  1.00  0.00    -0.347 OA
BRANCH  27  28
HETATM   28  C   UNL     1      43.849 -18.223   2.884  1.00  0.00     0.214 C 
BRANCH  28  29
HETATM   29  C   UNL     1      44.122 -19.712   2.956  1.00  0.00    -0.034 A 
HETATM   30  C   UNL     1      44.613 -20.323   4.119  1.00  0.00     0.009 A 
HETATM   31  C   UNL     1      44.824 -21.704   4.161  1.00  0.00     0.001 A 
HETATM   32  C   UNL     1      44.536 -22.489   3.048  1.00  0.00     0.000 A 
HETATM   33  C   UNL     1      44.034 -21.899   1.892  1.00  0.00     0.001 A 
HETATM   34  C   UNL     1      43.824 -20.519   1.847  1.00  0.00     0.009 A 
ENDBRANCH  28  29
ENDBRANCH  27  28
ENDBRANCH  10  27
TORSDOF 7
ENDMDL
MODEL 3
REMARK VINA RESULT:      -9.1      2.254      5.541
REMARK  7 active torsions:
REMARK  status: ('A' for Active; 'I' for Inactive)
REMARK    1  A    between atoms: C_7  and  C_8 
REMARK    2  A    between atoms: C_8  and  C_9 
REMARK       I    between atoms: C_9  and  N_10 
REMARK    3  A    between atoms: N_10  and  N_11 
REMARK       I    between atoms: N_11  and  C_12 
REMARK    4  A    between atoms: C_12  and  C_13 
REMARK    5  A    between atoms: C_23  and  O_24 
REMARK    6  A    between atoms: O_24  and  C_25 
REMARK    7  A    between atoms: C_25  and  C_26 
ROOT
HETATM    1  C   UNL     1      44.507 -21.391   2.306  1.00  0.00     0.068 C 
HETATM    2  C   UNL     1      44.320 -20.238   3.225  1.00  0.00     0.013 A 
HETATM    3  N   UNL     1      45.040 -20.124   4.387  1.00  0.00    -0.359 N 
HETATM    4  H   UNL     1      45.732 -20.785   4.712  1.00  0.00     0.166 HD
HETATM    5  C   UNL     1      44.700 -18.972   5.056  1.00  0.00     0.043 A 
HETATM    6  C   UNL     1      43.722 -18.332   4.299  1.00  0.00     0.002 A 
HETATM    7  C   UNL     1      43.473 -19.142   3.143  1.00  0.00    -0.015 A 
HETATM    8  C   UNL     1      45.182 -18.454   6.262  1.00  0.00     0.033 A 
HETATM    9  C   UNL     1      44.655 -17.235   6.708  1.00  0.00     0.039 A 
HETATM   10  C   UNL     1      43.681 -16.559   5.974  1.00  0.00     0.070 A 
HETATM   11  C   UNL     1      43.205 -17.108   4.774  1.00  0.00     0.051 A 
ENDROOT
BRANCH   7  12
HETATM   12  C   UNL     1      42.490 -18.852   2.050  1.00  0.00     0.146 C 
BRANCH  12  13
HETATM   13  C   UNL     1      42.873 -17.670   1.177  1.00  0.00     0.240 C 
HETATM   14  N   UNL     1      41.828 -16.895   0.710  1.00  0.00    -0.267 N 
HETATM   15  H   UNL     1      40.879 -17.271   0.636  1.00  0.00     0.190 HD
HETATM   16  O   UNL     1      44.049 -17.362   0.966  1.00  0.00    -0.272 OA
BRANCH  14  17
HETATM   17  N   UNL     1      42.150 -15.860  -0.184  1.00  0.00    -0.263 N 
HETATM   18  C   UNL     1      41.182 -14.912  -0.451  1.00  0.00     0.270 C 
HETATM   19  O   UNL     1      40.104 -14.879   0.136  1.00  0.00    -0.266 OA
HETATM   20  H   UNL     1      42.903 -16.076  -0.833  1.00  0.00     0.190 HD
BRANCH  18  21
HETATM   21  C   UNL     1      41.492 -13.924  -1.521  1.00  0.00     0.036 A 
HETATM   22  C   UNL     1      42.392 -12.898  -1.227  1.00  0.00     0.036 A 
HETATM   23  C   UNL     1      42.686 -11.982  -2.218  1.00  0.00     0.117 A 
HETATM   24  N   UNL     1      42.156 -12.027  -3.459  1.00  0.00    -0.273 NA
HETATM   25  C   UNL     1      41.302 -13.038  -3.724  1.00  0.00     0.117 A 
HETATM   26  C   UNL     1      40.943 -14.005  -2.802  1.00  0.00     0.036 A 
ENDBRANCH  18  21
ENDBRANCH  14  17
ENDBRANCH  12  13
ENDBRANCH   7  12
BRANCH  10  27
HETATM   27  O   UNL     1      43.111 -15.360   6.308  1.00  0.00    -0.347 OA
BRANCH  27  28
HETATM   28  C   UNL     1      43.756 -14.176   5.835  1.00  0.00     0.214 C 
BRANCH  28  29
HETATM   29  C   UNL     1      42.945 -13.514   4.741  1.00  0.00    -0.034 A 
HETATM   30  C   UNL     1      41.908 -12.613   5.025  1.00  0.00     0.009 A 
HETATM   31  C   UNL     1      41.198 -11.996   3.992  1.00  0.00     0.001 A 
HETATM   32  C   UNL     1      41.525 -12.261   2.664  1.00  0.00     0.000 A 
HETATM   33  C   UNL     1      42.562 -13.142   2.366  1.00  0.00     0.001 A 
HETATM   34  C   UNL     1      43.270 -13.761   3.398  1.00  0.00     0.009 A 
ENDBRANCH  28  29
ENDBRANCH  27  28
ENDBRANCH  10  27
TORSDOF 7
ENDMDL
MODEL 4
REMARK VINA RESULT:      -8.8      3.342      8.168
REMARK  7 active torsions:
REMARK  status: ('A' for Active; 'I' for Inactive)
REMARK    1  A    between atoms: C_7  and  C_8 
REMARK    2  A    between atoms: C_8  and  C_9 
REMARK       I    between atoms: C_9  and  N_10 
REMARK    3  A    between atoms: N_10  and  N_11 
REMARK       I    between atoms: N_11  and  C_12 
REMARK    4  A    between atoms: C_12  and  C_13 
REMARK    5  A    between atoms: C_23  and  O_24 
REMARK    6  A    between atoms: O_24  and  C_25 
REMARK    7  A    between atoms: C_25  and  C_26 
ROOT
HETATM    1  C   UNL     1      45.085 -21.481   5.086  1.00  0.00     0.068 C 
HETATM    2  C   UNL     1      44.475 -20.316   4.394  1.00  0.00     0.013 A 
HETATM    3  N   UNL     1      44.629 -20.124   3.044  1.00  0.00    -0.359 N 
HETATM    4  H   UNL     1      45.149 -20.730   2.424  1.00  0.00     0.166 HD
HETATM    5  C   UNL     1      43.965 -18.991   2.639  1.00  0.00     0.043 A 
HETATM    6  C   UNL     1      43.374 -18.434   3.770  1.00  0.00     0.002 A 
HETATM    7  C   UNL     1      43.709 -19.270   4.885  1.00  0.00    -0.015 A 
HETATM    8  C   UNL     1      43.845 -18.423   1.366  1.00  0.00     0.033 A 
HETATM    9  C   UNL     1      43.087 -17.252   1.240  1.00  0.00     0.039 A 
HETATM   10  C   UNL     1      42.472 -16.670   2.348  1.00  0.00     0.070 A 
HETATM   11  C   UNL     1      42.620 -17.251   3.615  1.00  0.00     0.051 A 
ENDROOT
BRANCH   7  12
HETATM   12  C   UNL     1      43.297 -19.056   6.310  1.00  0.00     0.146 C 
BRANCH  12  13
HETATM   13  C   UNL     1      43.953 -17.854   6.966  1.00  0.00     0.240 C 
HETATM   14  N   UNL     1      43.117 -16.798   7.274  1.00  0.00    -0.267 N 
HETATM   15  H   UNL     1      42.228 -16.663   6.785  1.00  0.00     0.190 HD
HETATM   16  O   UNL     1      45.144 -17.850   7.289  1.00  0.00    -0.272 OA
BRANCH  14  17
HETATM   17  N   UNL     1      43.718 -15.635   7.785  1.00  0.00    -0.263 N 
HETATM   18  C   UNL     1      44.218 -14.715   6.884  1.00  0.00     0.270 C 
HETATM   19  O   UNL     1      44.063 -14.822   5.670  1.00  0.00    -0.266 OA
HETATM   20  H   UNL     1      44.068 -15.720   8.737  1.00  0.00     0.190 HD
BRANCH  18  21
HETATM   21  C   UNL     1      44.991 -13.577   7.451  1.00  0.00     0.036 A 
HETATM   22  C   UNL     1      44.429 -12.863   8.512  1.00  0.00     0.036 A 
HETATM   23  C   UNL     1      45.146 -11.809   9.044  1.00  0.00     0.117 A 
HETATM   24  N   UNL     1      46.364 -11.434   8.600  1.00  0.00    -0.273 NA
HETATM   25  C   UNL     1      46.894 -12.149   7.586  1.00  0.00     0.117 A 
HETATM   26  C   UNL     1      46.258 -13.221   6.984  1.00  0.00     0.036 A 
ENDBRANCH  18  21
ENDBRANCH  14  17
ENDBRANCH  12  13
ENDBRANCH   7  12
BRANCH  10  27
HETATM   27  O   UNL     1      41.699 -15.539   2.337  1.00  0.00    -0.347 OA
BRANCH  27  28
HETATM   28  C   UNL     1      42.333 -14.313   2.705  1.00  0.00     0.214 C 
BRANCH  28  29
HETATM   29  C   UNL     1      41.640 -13.677   3.893  1.00  0.00    -0.034 A 
HETATM   30  C   UNL     1      41.998 -12.409   4.372  1.00  0.00     0.009 A 
HETATM   31  C   UNL     1      41.317 -11.839   5.451  1.00  0.00     0.001 A 
HETATM   32  C   UNL     1      40.265 -12.523   6.055  1.00  0.00     0.000 A 
HETATM   33  C   UNL     1      39.889 -13.777   5.580  1.00  0.00     0.001 A 
HETATM   34  C   UNL     1      40.569 -14.349   4.503  1.00  0.00     0.009 A 
ENDBRANCH  28  29
ENDBRANCH  27  28
ENDBRANCH  10  27
TORSDOF 7
ENDMDL
MODEL 5
REMARK VINA RESULT:      -8.7      2.081      2.477
REMARK  7 active torsions:
REMARK  status: ('A' for Active; 'I' for Inactive)
REMARK    1  A    between atoms: C_7  and  C_8 
REMARK    2  A    between atoms: C_8  and  C_9 
REMARK       I    between atoms: C_9  and  N_10 
REMARK    3  A    between atoms: N_10  and  N_11 
REMARK       I    between atoms: N_11  and  C_12 
REMARK    4  A    between atoms: C_12  and  C_13 
REMARK    5  A    between atoms: C_23  and  O_24 
REMARK    6  A    between atoms: O_24  and  C_25 
REMARK    7  A    between atoms: C_25  and  C_26 
ROOT
HETATM    1  C   UNL     1      39.220 -12.510   6.302  1.00  0.00     0.068 C 
HETATM    2  C   UNL     1      40.133 -13.620   5.920  1.00  0.00     0.013 A 
HETATM    3  N   UNL     1      39.903 -14.909   6.327  1.00  0.00    -0.359 N 
HETATM    4  H   UNL     1      39.127 -15.210   6.901  1.00  0.00     0.166 HD
HETATM    5  C   UNL     1      40.873 -15.751   5.838  1.00  0.00     0.043 A 
HETATM    6  C   UNL     1      41.759 -14.971   5.100  1.00  0.00     0.002 A 
HETATM    7  C   UNL     1      41.295 -13.617   5.162  1.00  0.00    -0.015 A 
HETATM    8  C   UNL     1      41.030 -17.132   5.993  1.00  0.00     0.033 A 
HETATM    9  C   UNL     1      42.124 -17.741   5.364  1.00  0.00     0.039 A 
HETATM   10  C   UNL     1      43.027 -16.996   4.609  1.00  0.00     0.070 A 
HETATM   11  C   UNL     1      42.855 -15.610   4.481  1.00  0.00     0.051 A 
ENDROOT
BRANCH   7  12
HETATM   12  C   UNL     1      41.940 -12.426   4.520  1.00  0.00     0.146 C 
BRANCH  12  13
HETATM   13  C   UNL     1      41.427 -12.127   3.123  1.00  0.00     0.240 C 
HETATM   14  N   UNL     1      42.285 -12.429   2.083  1.00  0.00    -0.267 N 
HETATM   15  H   UNL     1      43.295 -12.494   2.228  1.00  0.00     0.190 HD
HETATM   16  O   UNL     1      40.279 -11.722   2.918  1.00  0.00    -0.272 OA
BRANCH  14  17
HETATM   17  N   UNL     1      41.873 -12.064   0.790  1.00  0.00    -0.263 N 
HETATM   18  C   UNL     1      41.690 -13.070  -0.139  1.00  0.00     0.270 C 
HETATM   19  O   UNL     1      41.767 -14.262   0.149  1.00  0.00    -0.266 OA
HETATM   20  H   UNL     1      42.093 -11.106   0.527  1.00  0.00     0.190 HD
BRANCH  18  21
HETATM   21  C   UNL     1      41.413 -12.646  -1.539  1.00  0.00     0.036 A 
HETATM   22  C   UNL     1      40.098 -12.323  -1.880  1.00  0.00     0.036 A 
HETATM   23  C   UNL     1      39.839 -11.924  -3.177  1.00  0.00     0.117 A 
HETATM   24  N   UNL     1      40.788 -11.822  -4.132  1.00  0.00    -0.273 NA
HETATM   25  C   UNL     1      42.053 -12.123  -3.773  1.00  0.00     0.117 A 
HETATM   26  C   UNL     1      42.417 -12.532  -2.502  1.00  0.00     0.036 A 
ENDBRANCH  18  21
ENDBRANCH  14  17
ENDBRANCH  12  13
ENDBRANCH   7  12
BRANCH  10  27
HETATM   27  O   UNL     1      44.117 -17.489   3.942  1.00  0.00    -0.347 OA
BRANCH  27  28
HETATM   28  C   UNL     1      43.877 -18.153   2.701  1.00  0.00     0.214 C 
BRANCH  28  29
HETATM   29  C   UNL     1      44.056 -19.651   2.842  1.00  0.00    -0.034 A 
HETATM   30  C   UNL     1      43.700 -20.543   1.819  1.00  0.00     0.009 A 
HETATM   31  C   UNL     1      43.907 -21.917   1.970  1.00  0.00     0.001 A 
HETATM   32  C   UNL     1      44.483 -22.413   3.136  1.00  0.00     0.000 A 
HETATM   33  C   UNL     1      44.855 -21.539   4.154  1.00  0.00     0.001 A 
HETATM   34  C   UNL     1      44.647 -20.166   4.006  1.00  0.00     0.009 A 
ENDBRANCH  28  29
ENDBRANCH  27  28
ENDBRANCH  10  27
TORSDOF 7
ENDMDL
MODEL 6
REMARK VINA RESULT:      -8.7      3.270      7.445
REMARK  7 active torsions:
REMARK  status: ('A' for Active; 'I' for Inactive)
REMARK    1  A    between atoms: C_7  and  C_8 
REMARK    2  A    between atoms: C_8  and  C_9 
REMARK       I    between atoms: C_9  and  N_10 
REMARK    3  A    between atoms: N_10  and  N_11 
REMARK       I    between atoms: N_11  and  C_12 
REMARK    4  A    between atoms: C_12  and  C_13 
REMARK    5  A    between atoms: C_23  and  O_24 
REMARK    6  A    between atoms: O_24  and  C_25 
REMARK    7  A    between atoms: C_25  and  C_26 
ROOT
HETATM    1  C   UNL     1      39.077 -12.223   2.686  1.00  0.00     0.068 C 
HETATM    2  C   UNL     1      39.953 -13.424   2.674  1.00  0.00     0.013 A 
HETATM    3  N   UNL     1      39.538 -14.608   2.120  1.00  0.00    -0.359 N 
HETATM    4  H   UNL     1      38.637 -14.766   1.689  1.00  0.00     0.166 HD
HETATM    5  C   UNL     1      40.524 -15.561   2.219  1.00  0.00     0.043 A 
HETATM    6  C   UNL     1      41.603 -14.968   2.868  1.00  0.00     0.002 A 
HETATM    7  C   UNL     1      41.236 -13.615   3.167  1.00  0.00    -0.015 A 
HETATM    8  C   UNL     1      40.539 -16.891   1.786  1.00  0.00     0.033 A 
HETATM    9  C   UNL     1      41.701 -17.639   2.014  1.00  0.00     0.039 A 
HETATM   10  C   UNL     1      42.806 -17.079   2.652  1.00  0.00     0.070 A 
HETATM   11  C   UNL     1      42.759 -15.747   3.089  1.00  0.00     0.051 A 
ENDROOT
BRANCH   7  12
HETATM   12  C   UNL     1      42.084 -12.598   3.870  1.00  0.00     0.146 C 
BRANCH  12  13
HETATM   13  C   UNL     1      42.106 -12.754   5.379  1.00  0.00     0.240 C 
HETATM   14  N   UNL     1      41.727 -11.644   6.111  1.00  0.00    -0.267 N 
HETATM   15  H   UNL     1      41.785 -10.702   5.716  1.00  0.00     0.190 HD
HETATM   16  O   UNL     1      42.359 -13.831   5.925  1.00  0.00    -0.272 OA
BRANCH  14  17
HETATM   17  N   UNL     1      41.840 -11.731   7.508  1.00  0.00    -0.263 N 
HETATM   18  C   UNL     1      42.113 -10.573   8.210  1.00  0.00     0.270 C 
HETATM   19  O   UNL     1      42.154  -9.467   7.676  1.00  0.00    -0.266 OA
HETATM   20  H   UNL     1      42.077 -12.657   7.860  1.00  0.00     0.190 HD
BRANCH  18  21
HETATM   21  C   UNL     1      42.387 -10.722   9.665  1.00  0.00     0.036 A 
HETATM   22  C   UNL     1      43.710 -10.613  10.099  1.00  0.00     0.036 A 
HETATM   23  C   UNL     1      43.968 -10.746  11.450  1.00  0.00     0.117 A 
HETATM   24  N   UNL     1      43.011 -10.968  12.376  1.00  0.00    -0.273 NA
HETATM   25  C   UNL     1      41.738 -11.052  11.934  1.00  0.00     0.117 A 
HETATM   26  C   UNL     1      41.375 -10.933  10.603  1.00  0.00     0.036 A 
ENDBRANCH  18  21
ENDBRANCH  14  17
ENDBRANCH  12  13
ENDBRANCH   7  12
BRANCH  10  27
HETATM   27  O   UNL     1      43.992 -17.712   2.911  1.00  0.00    -0.347 OA
BRANCH  27  28
HETATM   28  C   UNL     1      44.108 -18.395   4.161  1.00  0.00     0.214 C 
BRANCH  28  29
HETATM   29  C   UNL     1      44.339 -19.877   3.952  1.00  0.00    -0.034 A 
HETATM   30  C   UNL     1      44.719 -20.727   5.001  1.00  0.00     0.009 A 
HETATM   31  C   UNL     1      44.895 -22.095   4.780  1.00  0.00     0.001 A 
HETATM   32  C   UNL     1      44.682 -22.632   3.513  1.00  0.00     0.000 A 
HETATM   33  C   UNL     1      44.290 -21.803   2.464  1.00  0.00     0.001 A 
HETATM   34  C   UNL     1      44.116 -20.435   2.683  1.00  0.00     0.009 A 
ENDBRANCH  28  29
ENDBRANCH  27  28
ENDBRANCH  10  27
TORSDOF 7
ENDMDL
MODEL 7
REMARK VINA RESULT:      -8.6      3.299      8.208
REMARK  7 active torsions:
REMARK  status: ('A' for Active; 'I' for Inactive)
REMARK    1  A    between atoms: C_7  and  C_8 
REMARK    2  A    between atoms: C_8  and  C_9 
REMARK       I    between atoms: C_9  and  N_10 
REMARK    3  A    between atoms: N_10  and  N_11 
REMARK       I    between atoms: N_11  and  C_12 
REMARK    4  A    between atoms: C_12  and  C_13 
REMARK    5  A    between atoms: C_23  and  O_24 
REMARK    6  A    between atoms: O_24  and  C_25 
REMARK    7  A    between atoms: C_25  and  C_26 
ROOT
HETATM    1  C   UNL     1      43.854 -19.891   6.600  1.00  0.00     0.068 C 
HETATM    2  C   UNL     1      43.575 -19.152   5.340  1.00  0.00     0.013 A 
HETATM    3  N   UNL     1      44.240 -19.444   4.176  1.00  0.00    -0.359 N 
HETATM    4  H   UNL     1      44.950 -20.156   4.073  1.00  0.00     0.166 HD
HETATM    5  C   UNL     1      43.800 -18.638   3.154  1.00  0.00     0.043 A 
HETATM    6  C   UNL     1      42.827 -17.795   3.684  1.00  0.00     0.002 A 
HETATM    7  C   UNL     1      42.693 -18.115   5.075  1.00  0.00    -0.015 A 
HETATM    8  C   UNL     1      44.188 -18.593   1.811  1.00  0.00     0.033 A 
HETATM    9  C   UNL     1      43.554 -17.663   0.977  1.00  0.00     0.039 A 
HETATM   10  C   UNL     1      42.568 -16.809   1.468  1.00  0.00     0.070 A 
HETATM   11  C   UNL     1      42.208 -16.865   2.823  1.00  0.00     0.051 A 
ENDROOT
BRANCH   7  12
HETATM   12  C   UNL     1      41.766 -17.457   6.053  1.00  0.00     0.146 C 
BRANCH  12  13
HETATM   13  C   UNL     1      42.264 -16.118   6.565  1.00  0.00     0.240 C 
HETATM   14  N   UNL     1      43.422 -16.147   7.319  1.00  0.00    -0.267 N 
HETATM   15  H   UNL     1      43.719 -16.997   7.804  1.00  0.00     0.190 HD
HETATM   16  O   UNL     1      41.721 -15.053   6.257  1.00  0.00    -0.272 OA
BRANCH  14  17
HETATM   17  N   UNL     1      43.843 -14.935   7.890  1.00  0.00    -0.263 N 
HETATM   18  C   UNL     1      44.750 -14.168   7.186  1.00  0.00     0.270 C 
HETATM   19  O   UNL     1      45.116 -14.448   6.048  1.00  0.00    -0.266 OA
HETATM   20  H   UNL     1      43.748 -14.885   8.903  1.00  0.00     0.190 HD
BRANCH  18  21
HETATM   21  C   UNL     1      45.301 -12.974   7.885  1.00  0.00     0.036 A 
HETATM   22  C   UNL     1      44.497 -12.338   8.833  1.00  0.00     0.036 A 
HETATM   23  C   UNL     1      45.006 -11.233   9.487  1.00  0.00     0.117 A 
HETATM   24  N   UNL     1      46.242 -10.737   9.266  1.00  0.00    -0.273 NA
HETATM   25  C   UNL     1      47.006 -11.379   8.357  1.00  0.00     0.117 A 
HETATM   26  C   UNL     1      46.590 -12.493   7.649  1.00  0.00     0.036 A 
ENDBRANCH  18  21
ENDBRANCH  14  17
ENDBRANCH  12  13
ENDBRANCH   7  12
BRANCH  10  27
HETATM   27  O   UNL     1      41.876 -15.877   0.742  1.00  0.00    -0.347 OA
BRANCH  27  28
HETATM   28  C   UNL     1      41.337 -16.297  -0.513  1.00  0.00     0.214 C 
BRANCH  28  29
HETATM   29  C   UNL     1      40.937 -15.106  -1.359  1.00  0.00    -0.034 A 
HETATM   30  C   UNL     1      40.487 -13.906  -0.790  1.00  0.00     0.009 A 
HETATM   31  C   UNL     1      40.155 -12.816  -1.598  1.00  0.00     0.001 A 
HETATM   32  C   UNL     1      40.282 -12.907  -2.982  1.00  0.00     0.000 A 
HETATM   33  C   UNL     1      40.742 -14.087  -3.561  1.00  0.00     0.001 A 
HETATM   34  C   UNL     1      41.072 -15.178  -2.754  1.00  0.00     0.009 A 
ENDBRANCH  28  29
ENDBRANCH  27  28
ENDBRANCH  10  27
TORSDOF 7
ENDMDL
MODEL 8
REMARK VINA RESULT:      -8.6      3.011      7.243
REMARK  7 active torsions:
REMARK  status: ('A' for Active; 'I' for Inactive)
REMARK    1  A    between atoms: C_7  and  C_8 
REMARK    2  A    between atoms: C_8  and  C_9 
REMARK       I    between atoms: C_9  and  N_10 
REMARK    3  A    between atoms: N_10  and  N_11 
REMARK       I    between atoms: N_11  and  C_12 
REMARK    4  A    between atoms: C_12  and  C_13 
REMARK    5  A    between atoms: C_23  and  O_24 
REMARK    6  A    between atoms: O_24  and  C_25 
REMARK    7  A    between atoms: C_25  and  C_26 
ROOT
HETATM    1  C   UNL     1      43.616 -19.323   6.702  1.00  0.00     0.068 C 
HETATM    2  C   UNL     1      43.358 -18.808   5.332  1.00  0.00     0.013 A 
HETATM    3  N   UNL     1      44.262 -18.989   4.316  1.00  0.00    -0.359 N 
HETATM    4  H   UNL     1      45.149 -19.467   4.403  1.00  0.00     0.166 HD
HETATM    5  C   UNL     1      43.794 -18.437   3.147  1.00  0.00     0.043 A 
HETATM    6  C   UNL     1      42.551 -17.875   3.428  1.00  0.00     0.002 A 
HETATM    7  C   UNL     1      42.281 -18.102   4.817  1.00  0.00    -0.015 A 
HETATM    8  C   UNL     1      44.373 -18.394   1.875  1.00  0.00     0.033 A 
HETATM    9  C   UNL     1      43.654 -17.765   0.850  1.00  0.00     0.039 A 
HETATM   10  C   UNL     1      42.403 -17.200   1.089  1.00  0.00     0.070 A 
HETATM   11  C   UNL     1      41.851 -17.244   2.378  1.00  0.00     0.051 A 
ENDROOT
BRANCH   7  12
HETATM   12  C   UNL     1      41.059 -17.664   5.567  1.00  0.00     0.146 C 
BRANCH  12  13
HETATM   13  C   UNL     1      41.140 -16.246   6.102  1.00  0.00     0.240 C 
HETATM   14  N   UNL     1      39.951 -15.542   6.141  1.00  0.00    -0.267 N 
HETATM   15  H   UNL     1      39.165 -15.792   5.536  1.00  0.00     0.190 HD
HETATM   16  O   UNL     1      42.185 -15.774   6.559  1.00  0.00    -0.272 OA
BRANCH  14  17
HETATM   17  N   UNL     1      40.019 -14.194   6.533  1.00  0.00    -0.263 N 
HETATM   18  C   UNL     1      40.025 -13.231   5.543  1.00  0.00     0.270 C 
HETATM   19  O   UNL     1      39.867 -13.499   4.355  1.00  0.00    -0.266 OA
HETATM   20  H   UNL     1      40.422 -14.039   7.455  1.00  0.00     0.190 HD
BRANCH  18  21
HETATM   21  C   UNL     1      40.262 -11.828   5.977  1.00  0.00     0.036 A 
HETATM   22  C   UNL     1      41.415 -11.553   6.715  1.00  0.00     0.036 A 
HETATM   23  C   UNL     1      41.641 -10.250   7.116  1.00  0.00     0.117 A 
HETATM   24  N   UNL     1      40.811  -9.225   6.828  1.00  0.00    -0.273 NA
HETATM   25  C   UNL     1      39.712  -9.513   6.099  1.00  0.00     0.117 A 
HETATM   26  C   UNL     1      39.396 -10.783   5.649  1.00  0.00     0.036 A 
ENDBRANCH  18  21
ENDBRANCH  14  17
ENDBRANCH  12  13
ENDBRANCH   7  12
BRANCH  10  27
HETATM   27  O   UNL     1      41.611 -16.577   0.162  1.00  0.00    -0.347 OA
BRANCH  27  28
HETATM   28  C   UNL     1      41.588 -15.148   0.178  1.00  0.00     0.214 C 
BRANCH  28  29
HETATM   29  C   UNL     1      40.166 -14.627   0.134  1.00  0.00    -0.034 A 
HETATM   30  C   UNL     1      39.620 -14.048  -1.020  1.00  0.00     0.009 A 
HETATM   31  C   UNL     1      38.295 -13.605  -1.036  1.00  0.00     0.001 A 
HETATM   32  C   UNL     1      37.497 -13.747   0.096  1.00  0.00     0.000 A 
HETATM   33  C   UNL     1      38.020 -14.334   1.246  1.00  0.00     0.001 A 
HETATM   34  C   UNL     1      39.345 -14.776   1.264  1.00  0.00     0.009 A 
ENDBRANCH  28  29
ENDBRANCH  27  28
ENDBRANCH  10  27
TORSDOF 7
ENDMDL
MODEL 9
REMARK VINA RESULT:      -8.6      1.639      2.141
REMARK  7 active torsions:
REMARK  status: ('A' for Active; 'I' for Inactive)
REMARK    1  A    between atoms: C_7  and  C_8 
REMARK    2  A    between atoms: C_8  and  C_9 
REMARK       I    between atoms: C_9  and  N_10 
REMARK    3  A    between atoms: N_10  and  N_11 
REMARK       I    between atoms: N_11  and  C_12 
REMARK    4  A    between atoms: C_12  and  C_13 
REMARK    5  A    between atoms: C_23  and  O_24 
REMARK    6  A    between atoms: O_24  and  C_25 
REMARK    7  A    between atoms: C_25  and  C_26 
ROOT
HETATM    1  C   UNL     1      39.764 -13.657   5.026  1.00  0.00     0.068 C 
HETATM    2  C   UNL     1      40.915 -14.579   5.215  1.00  0.00     0.013 A 
HETATM    3  N   UNL     1      41.799 -14.419   6.251  1.00  0.00    -0.359 N 
HETATM    4  H   UNL     1      41.752 -13.690   6.950  1.00  0.00     0.166 HD
HETATM    5  C   UNL     1      42.763 -15.398   6.220  1.00  0.00     0.043 A 
HETATM    6  C   UNL     1      42.491 -16.207   5.120  1.00  0.00     0.002 A 
HETATM    7  C   UNL     1      41.324 -15.679   4.476  1.00  0.00    -0.015 A 
HETATM    8  C   UNL     1      43.845 -15.626   7.077  1.00  0.00     0.033 A 
HETATM    9  C   UNL     1      44.673 -16.723   6.808  1.00  0.00     0.039 A 
HETATM   10  C   UNL     1      44.428 -17.561   5.722  1.00  0.00     0.070 A 
HETATM   11  C   UNL     1      43.344 -17.303   4.870  1.00  0.00     0.051 A 
ENDROOT
BRANCH   7  12
HETATM   12  C   UNL     1      40.668 -16.222   3.243  1.00  0.00     0.146 C 
BRANCH  12  13
HETATM   13  C   UNL     1      41.195 -15.624   1.951  1.00  0.00     0.240 C 
HETATM   14  N   UNL     1      40.710 -14.374   1.617  1.00  0.00    -0.267 N 
HETATM   15  H   UNL     1      39.817 -14.035   1.983  1.00  0.00     0.190 HD
HETATM   16  O   UNL     1      42.072 -16.176   1.281  1.00  0.00    -0.272 OA
BRANCH  14  17
HETATM   17  N   UNL     1      41.104 -13.847   0.375  1.00  0.00    -0.263 N 
HETATM   18  C   UNL     1      41.998 -12.794   0.374  1.00  0.00     0.270 C 
HETATM   19  O   UNL     1      42.536 -12.378   1.396  1.00  0.00    -0.266 OA
HETATM   20  H   UNL     1      40.449 -14.015  -0.386  1.00  0.00     0.190 HD
BRANCH  18  21
HETATM   21  C   UNL     1      42.271 -12.151  -0.941  1.00  0.00     0.036 A 
HETATM   22  C   UNL     1      42.014 -12.888  -2.099  1.00  0.00     0.036 A 
HETATM   23  C   UNL     1      42.261 -12.293  -3.321  1.00  0.00     0.117 A 
HETATM   24  N   UNL     1      42.732 -11.035  -3.459  1.00  0.00    -0.273 NA
HETATM   25  C   UNL     1      42.956 -10.337  -2.325  1.00  0.00     0.117 A 
HETATM   26  C   UNL     1      42.740 -10.841  -1.054  1.00  0.00     0.036 A 
ENDBRANCH  18  21
ENDBRANCH  14  17
ENDBRANCH  12  13
ENDBRANCH   7  12
BRANCH  10  27
HETATM   27  O   UNL     1      45.161 -18.666   5.377  1.00  0.00    -0.347 OA
BRANCH  27  28
HETATM   28  C   UNL     1      44.530 -19.939   5.521  1.00  0.00     0.214 C 
BRANCH  28  29
HETATM   29  C   UNL     1      44.369 -20.622   4.179  1.00  0.00    -0.034 A 
HETATM   30  C   UNL     1      43.894 -19.941   3.049  1.00  0.00     0.009 A 
HETATM   31  C   UNL     1      43.787 -20.593   1.818  1.00  0.00     0.001 A 
HETATM   32  C   UNL     1      44.165 -21.928   1.699  1.00  0.00     0.000 A 
HETATM   33  C   UNL     1      44.653 -22.614   2.808  1.00  0.00     0.001 A 
HETATM   34  C   UNL     1      44.758 -21.964   4.040  1.00  0.00     0.009 A 
ENDBRANCH  28  29
ENDBRANCH  27  28
ENDBRANCH  10  27
TORSDOF 7
ENDMDL
MODEL 10
REMARK VINA RESULT:      -8.3      3.718      7.923
REMARK  7 active torsions:
REMARK  status: ('A' for Active; 'I' for Inactive)
REMARK    1  A    between atoms: C_7  and  C_8 
REMARK    2  A    between atoms: C_8  and  C_9 
REMARK       I    between atoms: C_9  and  N_10 
REMARK    3  A    between atoms: N_10  and  N_11 
REMARK       I    between atoms: N_11  and  C_12 
REMARK    4  A    between atoms: C_12  and  C_13 
REMARK    5  A    between atoms: C_23  and  O_24 
REMARK    6  A    between atoms: O_24  and  C_25 
REMARK    7  A    between atoms: C_25  and  C_26 
ROOT
HETATM    1  C   UNL     1      39.929 -10.770   3.319  1.00  0.00     0.068 C 
HETATM    2  C   UNL     1      40.184 -12.234   3.267  1.00  0.00     0.013 A 
HETATM    3  N   UNL     1      39.477 -13.056   2.426  1.00  0.00    -0.359 N 
HETATM    4  H   UNL     1      38.748 -12.755   1.794  1.00  0.00     0.166 HD
HETATM    5  C   UNL     1      39.903 -14.357   2.552  1.00  0.00     0.043 A 
HETATM    6  C   UNL     1      40.911 -14.368   3.512  1.00  0.00     0.002 A 
HETATM    7  C   UNL     1      41.081 -13.022   3.974  1.00  0.00    -0.015 A 
HETATM    8  C   UNL     1      39.474 -15.513   1.891  1.00  0.00     0.033 A 
HETATM    9  C   UNL     1      40.103 -16.722   2.214  1.00  0.00     0.039 A 
HETATM   10  C   UNL     1      41.122 -16.773   3.163  1.00  0.00     0.070 A 
HETATM   11  C   UNL     1      41.523 -15.601   3.821  1.00  0.00     0.051 A 
ENDROOT
BRANCH   7  12
HETATM   12  C   UNL     1      42.051 -12.556   5.016  1.00  0.00     0.146 C 
BRANCH  12  13
HETATM   13  C   UNL     1      41.396 -12.110   6.311  1.00  0.00     0.240 C 
HETATM   14  N   UNL     1      42.176 -11.339   7.153  1.00  0.00    -0.267 N 
HETATM   15  H   UNL     1      43.197 -11.369   7.107  1.00  0.00     0.190 HD
HETATM   16  O   UNL     1      40.211 -12.343   6.562  1.00  0.00    -0.272 OA
BRANCH  14  17
HETATM   17  N   UNL     1      41.627 -11.002   8.401  1.00  0.00    -0.263 N 
HETATM   18  C   UNL     1      42.497 -10.706   9.432  1.00  0.00     0.270 C 
HETATM   19  O   UNL     1      43.712 -10.621   9.273  1.00  0.00    -0.266 OA
HETATM   20  H   UNL     1      40.683 -11.350   8.560  1.00  0.00     0.190 HD
BRANCH  18  21
HETATM   21  C   UNL     1      41.895 -10.513  10.780  1.00  0.00     0.036 A 
HETATM   22  C   UNL     1      40.725 -11.211  11.084  1.00  0.00     0.036 A 
HETATM   23  C   UNL     1      40.166 -11.039  12.335  1.00  0.00     0.117 A 
HETATM   24  N   UNL     1      40.693 -10.237  13.285  1.00  0.00    -0.273 NA
HETATM   25  C   UNL     1      41.833  -9.586  12.974  1.00  0.00     0.117 A 
HETATM   26  C   UNL     1      42.471  -9.690  11.750  1.00  0.00     0.036 A 
ENDBRANCH  18  21
ENDBRANCH  14  17
ENDBRANCH  12  13
ENDBRANCH   7  12
BRANCH  10  27
HETATM   27  O   UNL     1      41.812 -17.893   3.543  1.00  0.00    -0.347 OA
BRANCH  27  28
HETATM   28  C   UNL     1      43.204 -17.942   3.223  1.00  0.00     0.214 C 
BRANCH  28  29
HETATM   29  C   UNL     1      43.675 -19.373   3.065  1.00  0.00    -0.034 A 
HETATM   30  C   UNL     1      44.442 -20.017   4.047  1.00  0.00     0.009 A 
HETATM   31  C   UNL     1      44.835 -21.348   3.883  1.00  0.00     0.001 A 
HETATM   32  C   UNL     1      44.457 -22.053   2.744  1.00  0.00     0.000 A 
HETATM   33  C   UNL     1      43.682 -21.433   1.768  1.00  0.00     0.001 A 
HETATM   34  C   UNL     1      43.291 -20.102   1.929  1.00  0.00     0.009 A 
ENDBRANCH  28  29
ENDBRANCH  27  28
ENDBRANCH  10  27
TORSDOF 7
ENDMDL
