MODEL 1
REMARK VINA RESULT:      -9.8      0.000      0.000
REMARK  9 active torsions:
REMARK  status: ('A' for Active; 'I' for Inactive)
REMARK    1  A    between atoms: C_2  and  C_3 
REMARK    2  A    between atoms: C_6  and  N_7 
REMARK    3  A    between atoms: N_7  and  C_8 
REMARK    4  A    between atoms: C_12  and  C_13 
REMARK       I    between atoms: C_13  and  N_14 
REMARK    5  A    between atoms: N_14  and  C_15 
REMARK    6  A    between atoms: C_15  and  C_16 
REMARK    7  A    between atoms: C_16  and  C_17 
REMARK    8  A    between atoms: C_17  and  N_18 
REMARK    9  A    between atoms: N_22  and  C_23 
ROOT
HETATM    1  C   UNL     1      44.742 -13.732   7.657  1.00  0.00     0.129 A 
HETATM    2  N   UNL     1      44.337 -14.926   8.117  1.00  0.00    -0.231 NA
HETATM    3  C   UNL     1      43.617 -15.750   7.343  1.00  0.00     0.070 A 
HETATM    4  C   UNL     1      43.228 -15.430   6.028  1.00  0.00     0.009 A 
HETATM    5  C   UNL     1      43.719 -14.195   5.532  1.00  0.00     0.048 A 
HETATM    6  C   UNL     1      44.474 -13.352   6.356  1.00  0.00     0.068 A 
HETATM    7  C   UNL     1      43.223 -16.958   7.900  1.00  0.00     0.032 A 
HETATM    8  C   UNL     1      42.422 -17.865   7.209  1.00  0.00     0.002 A 
HETATM    9  C   UNL     1      41.981 -17.550   5.935  1.00  0.00     0.001 A 
HETATM   10  C   UNL     1      42.367 -16.343   5.353  1.00  0.00     0.015 A 
ENDROOT
BRANCH   5  11
HETATM   11  C   UNL     1      43.436 -13.645   4.180  1.00  0.00     0.252 C 
HETATM   12  N   UNL     1      42.169 -13.186   3.902  1.00  0.00    -0.357 N 
HETATM   13  H   UNL     1      41.419 -13.461   4.533  1.00  0.00     0.162 HD
HETATM   14  O   UNL     1      44.322 -13.623   3.325  1.00  0.00    -0.268 OA
BRANCH  12  15
HETATM   15  C   UNL     1      41.792 -12.714   2.583  1.00  0.00     0.124 C 
BRANCH  15  16
HETATM   16  C   UNL     1      41.615 -13.826   1.542  1.00  0.00     0.047 C 
BRANCH  16  17
HETATM   17  C   UNL     1      41.059 -15.174   2.017  1.00  0.00     0.236 C 
BRANCH  17  18
HETATM   18  N   UNL     1      41.824 -16.360   1.513  1.00  0.00    -0.068 N 
HETATM   19  H   UNL     1      41.633 -16.416   0.490  1.00  0.00     0.280 HD
HETATM   20  C   UNL     1      43.328 -16.316   1.737  1.00  0.00     0.254 C 
HETATM   21  C   UNL     1      44.014 -17.537   1.083  1.00  0.00     0.150 C 
HETATM   22  N   UNL     1      43.395 -18.816   1.482  1.00  0.00    -0.375 N 
HETATM   23  C   UNL     1      41.927 -18.871   1.313  1.00  0.00     0.150 C 
HETATM   24  C   UNL     1      41.248 -17.684   2.032  1.00  0.00     0.254 C 
BRANCH  22  25
HETATM   25  C   UNL     1      43.932 -19.566   2.534  1.00  0.00     0.069 A 
HETATM   26  C   UNL     1      44.166 -20.954   2.494  1.00  0.00     0.142 A 
HETATM   27  F   UNL     1      43.917 -21.653   1.376  1.00  0.00    -0.204 F 
HETATM   28  C   UNL     1      44.700 -21.654   3.578  1.00  0.00     0.044 A 
HETATM   29  C   UNL     1      45.005 -20.980   4.755  1.00  0.00     0.003 A 
HETATM   30  C   UNL     1      44.768 -19.613   4.841  1.00  0.00     0.002 A 
HETATM   31  C   UNL     1      44.237 -18.921   3.747  1.00  0.00     0.032 A 
ENDBRANCH  22  25
ENDBRANCH  17  18
ENDBRANCH  16  17
ENDBRANCH  15  16
ENDBRANCH  12  15
ENDBRANCH   5  11
BRANCH   1  32
HETATM   32  N   UNL     1      45.397 -12.804   8.492  1.00  0.00    -0.341 N 
HETATM   33  H   UNL     1      46.274 -13.176   8.839  1.00  0.00     0.167 HD
BRANCH  32  34
HETATM   34  C   UNL     1      44.843 -11.842   9.364  1.00  0.00     0.033 A 
HETATM   35  C   UNL     1      45.424 -11.497  10.588  1.00  0.00     0.030 A 
HETATM   36  C   UNL     1      44.796 -10.607  11.468  1.00  0.00     0.010 A 
HETATM   37  C   UNL     1      43.546 -10.058  11.160  1.00  0.00    -0.055 A 
HETATM   38  C   UNL     1      42.943 -10.424   9.951  1.00  0.00     0.010 A 
HETATM   39  C   UNL     1      43.578 -11.311   9.074  1.00  0.00     0.030 A 
BRANCH  37  40
HETATM   40  C   UNL     1      42.845  -9.091  12.099  1.00  0.00     0.010 C 
HETATM   41  C   UNL     1      43.234  -9.356  13.555  1.00  0.00     0.015 C 
HETATM   42  C   UNL     1      41.325  -9.128  11.925  1.00  0.00     0.015 C 
ENDBRANCH  37  40
ENDBRANCH  32  34
ENDBRANCH   1  32
TORSDOF 9
ENDMDL
MODEL 2
REMARK VINA RESULT:      -9.6      2.914      6.793
REMARK  9 active torsions:
REMARK  status: ('A' for Active; 'I' for Inactive)
REMARK    1  A    between atoms: C_2  and  C_3 
REMARK    2  A    between atoms: C_6  and  N_7 
REMARK    3  A    between atoms: N_7  and  C_8 
REMARK    4  A    between atoms: C_12  and  C_13 
REMARK       I    between atoms: C_13  and  N_14 
REMARK    5  A    between atoms: N_14  and  C_15 
REMARK    6  A    between atoms: C_15  and  C_16 
REMARK    7  A    between atoms: C_16  and  C_17 
REMARK    8  A    between atoms: C_17  and  N_18 
REMARK    9  A    between atoms: N_22  and  C_23 
ROOT
HETATM    1  C   UNL     1      40.517 -10.251   9.614  1.00  0.00     0.129 A 
HETATM    2  N   UNL     1      40.353  -9.735  10.842  1.00  0.00    -0.231 NA
HETATM    3  C   UNL     1      41.389  -9.633  11.686  1.00  0.00     0.070 A 
HETATM    4  C   UNL     1      42.692 -10.061  11.365  1.00  0.00     0.009 A 
HETATM    5  C   UNL     1      42.865 -10.543  10.042  1.00  0.00     0.048 A 
HETATM    6  C   UNL     1      41.769 -10.636   9.174  1.00  0.00     0.068 A 
HETATM    7  C   UNL     1      41.131  -9.104  12.943  1.00  0.00     0.032 A 
HETATM    8  C   UNL     1      42.119  -9.008  13.922  1.00  0.00     0.002 A 
HETATM    9  C   UNL     1      43.395  -9.472  13.649  1.00  0.00     0.001 A 
HETATM   10  C   UNL     1      43.678 -10.004  12.391  1.00  0.00     0.015 A 
ENDROOT
BRANCH   5  11
HETATM   11  C   UNL     1      44.143 -11.053   9.480  1.00  0.00     0.252 C 
HETATM   12  N   UNL     1      44.163 -12.304   8.907  1.00  0.00    -0.357 N 
HETATM   13  H   UNL     1      43.383 -12.926   9.106  1.00  0.00     0.162 HD
HETATM   14  O   UNL     1      45.163 -10.368   9.547  1.00  0.00    -0.268 OA
BRANCH  12  15
HETATM   15  C   UNL     1      45.387 -12.906   8.413  1.00  0.00     0.124 C 
BRANCH  15  16
HETATM   16  C   UNL     1      45.211 -13.732   7.132  1.00  0.00     0.047 C 
BRANCH  16  17
HETATM   17  C   UNL     1      43.798 -13.873   6.555  1.00  0.00     0.236 C 
BRANCH  17  18
HETATM   18  N   UNL     1      43.273 -15.276   6.564  1.00  0.00    -0.068 N 
HETATM   19  H   UNL     1      42.694 -15.364   7.427  1.00  0.00     0.280 HD
HETATM   20  C   UNL     1      42.433 -15.672   5.359  1.00  0.00     0.254 C 
HETATM   21  C   UNL     1      41.863 -17.098   5.534  1.00  0.00     0.150 C 
HETATM   22  N   UNL     1      42.904 -18.086   5.878  1.00  0.00    -0.375 N 
HETATM   23  C   UNL     1      43.762 -17.707   7.022  1.00  0.00     0.150 C 
HETATM   24  C   UNL     1      44.381 -16.309   6.801  1.00  0.00     0.254 C 
BRANCH  22  25
HETATM   25  C   UNL     1      43.500 -18.865   4.881  1.00  0.00     0.069 A 
HETATM   26  C   UNL     1      44.213 -20.058   5.110  1.00  0.00     0.142 A 
HETATM   27  F   UNL     1      44.323 -20.555   6.352  1.00  0.00    -0.204 F 
HETATM   28  C   UNL     1      44.793 -20.793   4.075  1.00  0.00     0.044 A 
HETATM   29  C   UNL     1      44.689 -20.344   2.763  1.00  0.00     0.003 A 
HETATM   30  C   UNL     1      44.011 -19.160   2.498  1.00  0.00     0.002 A 
HETATM   31  C   UNL     1      43.430 -18.433   3.543  1.00  0.00     0.032 A 
ENDBRANCH  22  25
ENDBRANCH  17  18
ENDBRANCH  16  17
ENDBRANCH  15  16
ENDBRANCH  12  15
ENDBRANCH   5  11
BRANCH   1  32
HETATM   32  N   UNL     1      39.421 -10.475   8.756  1.00  0.00    -0.341 N 
HETATM   33  H   UNL     1      38.586 -10.708   9.280  1.00  0.00     0.167 HD
BRANCH  32  34
HETATM   34  C   UNL     1      39.404 -11.020   7.454  1.00  0.00     0.033 A 
HETATM   35  C   UNL     1      39.407 -12.395   7.202  1.00  0.00     0.030 A 
HETATM   36  C   UNL     1      39.484 -12.896   5.896  1.00  0.00     0.010 A 
HETATM   37  C   UNL     1      39.593 -12.030   4.802  1.00  0.00    -0.055 A 
HETATM   38  C   UNL     1      39.623 -10.653   5.049  1.00  0.00     0.010 A 
HETATM   39  C   UNL     1      39.541 -10.158   6.356  1.00  0.00     0.030 A 
BRANCH  37  40
HETATM   40  C   UNL     1      39.678 -12.551   3.378  1.00  0.00     0.010 C 
HETATM   41  C   UNL     1      38.554 -11.977   2.511  1.00  0.00     0.015 C 
HETATM   42  C   UNL     1      39.678 -14.080   3.328  1.00  0.00     0.015 C 
ENDBRANCH  37  40
ENDBRANCH  32  34
ENDBRANCH   1  32
TORSDOF 9
ENDMDL
MODEL 3
REMARK VINA RESULT:      -9.6      3.899      9.212
REMARK  9 active torsions:
REMARK  status: ('A' for Active; 'I' for Inactive)
REMARK    1  A    between atoms: C_2  and  C_3 
REMARK    2  A    between atoms: C_6  and  N_7 
REMARK    3  A    between atoms: N_7  and  C_8 
REMARK    4  A    between atoms: C_12  and  C_13 
REMARK       I    between atoms: C_13  and  N_14 
REMARK    5  A    between atoms: N_14  and  C_15 
REMARK    6  A    between atoms: C_15  and  C_16 
REMARK    7  A    between atoms: C_16  and  C_17 
REMARK    8  A    between atoms: C_17  and  N_18 
REMARK    9  A    between atoms: N_22  and  C_23 
ROOT
HETATM    1  C   UNL     1      41.486 -17.125   1.509  1.00  0.00     0.129 A 
HETATM    2  N   UNL     1      42.127 -18.291   1.330  1.00  0.00    -0.231 NA
HETATM    3  C   UNL     1      42.885 -18.812   2.305  1.00  0.00     0.070 A 
HETATM    4  C   UNL     1      43.076 -18.187   3.553  1.00  0.00     0.009 A 
HETATM    5  C   UNL     1      42.342 -16.990   3.752  1.00  0.00     0.048 A 
HETATM    6  C   UNL     1      41.550 -16.466   2.722  1.00  0.00     0.068 A 
HETATM    7  C   UNL     1      43.526 -20.012   2.034  1.00  0.00     0.032 A 
HETATM    8  C   UNL     1      44.387 -20.615   2.950  1.00  0.00     0.002 A 
HETATM    9  C   UNL     1      44.633 -19.993   4.162  1.00  0.00     0.001 A 
HETATM   10  C   UNL     1      43.997 -18.788   4.458  1.00  0.00     0.015 A 
ENDROOT
BRANCH   5  11
HETATM   11  C   UNL     1      42.387 -16.156   4.982  1.00  0.00     0.252 C 
HETATM   12  N   UNL     1      43.119 -14.990   4.966  1.00  0.00    -0.357 N 
HETATM   13  H   UNL     1      43.793 -14.868   4.214  1.00  0.00     0.162 HD
HETATM   14  O   UNL     1      41.792 -16.519   5.996  1.00  0.00    -0.268 OA
BRANCH  12  15
HETATM   15  C   UNL     1      43.282 -14.166   6.148  1.00  0.00     0.124 C 
BRANCH  15  16
HETATM   16  C   UNL     1      42.586 -12.802   6.067  1.00  0.00     0.047 C 
BRANCH  16  17
HETATM   17  C   UNL     1      41.074 -12.780   5.817  1.00  0.00     0.236 C 
BRANCH  17  18
HETATM   18  N   UNL     1      40.663 -11.959   4.632  1.00  0.00    -0.068 N 
HETATM   19  H   UNL     1      40.763 -10.963   4.921  1.00  0.00     0.280 HD
HETATM   20  C   UNL     1      41.466 -12.192   3.361  1.00  0.00     0.254 C 
HETATM   21  C   UNL     1      41.020 -11.218   2.247  1.00  0.00     0.150 C 
HETATM   22  N   UNL     1      39.561 -11.229   2.034  1.00  0.00    -0.375 N 
HETATM   23  C   UNL     1      38.756 -11.045   3.261  1.00  0.00     0.150 C 
HETATM   24  C   UNL     1      39.162 -12.072   4.341  1.00  0.00     0.254 C 
BRANCH  22  25
HETATM   25  C   UNL     1      38.996 -12.022   1.029  1.00  0.00     0.069 A 
HETATM   26  C   UNL     1      38.961 -11.685  -0.338  1.00  0.00     0.142 A 
HETATM   27  F   UNL     1      39.535 -10.552  -0.773  1.00  0.00    -0.204 F 
HETATM   28  C   UNL     1      38.379 -12.514  -1.298  1.00  0.00     0.044 A 
HETATM   29  C   UNL     1      37.793 -13.715  -0.913  1.00  0.00     0.003 A 
HETATM   30  C   UNL     1      37.788 -14.074   0.430  1.00  0.00     0.002 A 
HETATM   31  C   UNL     1      38.379 -13.237   1.384  1.00  0.00     0.032 A 
ENDBRANCH  22  25
ENDBRANCH  17  18
ENDBRANCH  16  17
ENDBRANCH  15  16
ENDBRANCH  12  15
ENDBRANCH   5  11
BRANCH   1  32
HETATM   32  N   UNL     1      40.781 -16.503   0.459  1.00  0.00    -0.341 N 
HETATM   33  H   UNL     1      40.149 -17.152   0.005  1.00  0.00     0.167 HD
BRANCH  32  34
HETATM   34  C   UNL     1      41.199 -15.470  -0.408  1.00  0.00     0.033 A 
HETATM   35  C   UNL     1      41.753 -14.270   0.046  1.00  0.00     0.030 A 
HETATM   36  C   UNL     1      42.069 -13.232  -0.841  1.00  0.00     0.010 A 
HETATM   37  C   UNL     1      41.807 -13.355  -2.210  1.00  0.00    -0.055 A 
HETATM   38  C   UNL     1      41.222 -14.541  -2.667  1.00  0.00     0.010 A 
HETATM   39  C   UNL     1      40.913 -15.576  -1.777  1.00  0.00     0.030 A 
BRANCH  37  40
HETATM   40  C   UNL     1      42.140 -12.243  -3.189  1.00  0.00     0.010 C 
HETATM   41  C   UNL     1      42.730 -11.029  -2.467  1.00  0.00     0.015 C 
HETATM   42  C   UNL     1      40.927 -11.840  -4.030  1.00  0.00     0.015 C 
ENDBRANCH  37  40
ENDBRANCH  32  34
ENDBRANCH   1  32
TORSDOF 9
ENDMDL
MODEL 4
REMARK VINA RESULT:      -9.6      3.867      9.073
REMARK  9 active torsions:
REMARK  status: ('A' for Active; 'I' for Inactive)
REMARK    1  A    between atoms: C_2  and  C_3 
REMARK    2  A    between atoms: C_6  and  N_7 
REMARK    3  A    between atoms: N_7  and  C_8 
REMARK    4  A    between atoms: C_12  and  C_13 
REMARK       I    between atoms: C_13  and  N_14 
REMARK    5  A    between atoms: N_14  and  C_15 
REMARK    6  A    between atoms: C_15  and  C_16 
REMARK    7  A    between atoms: C_16  and  C_17 
REMARK    8  A    between atoms: C_17  and  N_18 
REMARK    9  A    between atoms: N_22  and  C_23 
ROOT
HETATM    1  C   UNL     1      41.314 -15.094  -0.330  1.00  0.00     0.129 A 
HETATM    2  N   UNL     1      41.110 -15.606  -1.554  1.00  0.00    -0.231 NA
HETATM    3  C   UNL     1      40.010 -15.293  -2.252  1.00  0.00     0.070 A 
HETATM    4  C   UNL     1      39.002 -14.438  -1.764  1.00  0.00     0.009 A 
HETATM    5  C   UNL     1      39.262 -13.853  -0.498  1.00  0.00     0.048 A 
HETATM    6  C   UNL     1      40.422 -14.190   0.212  1.00  0.00     0.068 A 
HETATM    7  C   UNL     1      39.866 -15.877  -3.503  1.00  0.00     0.032 A 
HETATM    8  C   UNL     1      38.735 -15.671  -4.290  1.00  0.00     0.002 A 
HETATM    9  C   UNL     1      37.706 -14.879  -3.809  1.00  0.00     0.001 A 
HETATM   10  C   UNL     1      37.829 -14.278  -2.557  1.00  0.00     0.015 A 
ENDROOT
BRANCH   5  11
HETATM   11  C   UNL     1      38.346 -12.927   0.219  1.00  0.00     0.252 C 
HETATM   12  N   UNL     1      38.795 -11.666   0.540  1.00  0.00    -0.357 N 
HETATM   13  H   UNL     1      39.798 -11.499   0.501  1.00  0.00     0.162 HD
HETATM   14  O   UNL     1      37.214 -13.298   0.531  1.00  0.00    -0.268 OA
BRANCH  12  15
HETATM   15  C   UNL     1      37.994 -10.736   1.311  1.00  0.00     0.124 C 
BRANCH  15  16
HETATM   16  C   UNL     1      38.591 -10.368   2.675  1.00  0.00     0.047 C 
BRANCH  16  17
HETATM   17  C   UNL     1      38.625 -11.450   3.761  1.00  0.00     0.236 C 
BRANCH  17  18
HETATM   18  N   UNL     1      40.007 -11.828   4.202  1.00  0.00    -0.068 N 
HETATM   19  H   UNL     1      40.583 -10.963   4.123  1.00  0.00     0.280 HD
HETATM   20  C   UNL     1      40.119 -12.374   5.618  1.00  0.00     0.254 C 
HETATM   21  C   UNL     1      41.597 -12.625   5.991  1.00  0.00     0.150 C 
HETATM   22  N   UNL     1      42.305 -13.442   4.986  1.00  0.00    -0.375 N 
HETATM   23  C   UNL     1      42.178 -12.956   3.595  1.00  0.00     0.150 C 
HETATM   24  C   UNL     1      40.693 -12.777   3.211  1.00  0.00     0.254 C 
BRANCH  22  25
HETATM   25  C   UNL     1      42.430 -14.825   5.156  1.00  0.00     0.069 A 
HETATM   26  C   UNL     1      43.541 -15.467   5.736  1.00  0.00     0.142 A 
HETATM   27  F   UNL     1      44.566 -14.746   6.220  1.00  0.00    -0.204 F 
HETATM   28  C   UNL     1      43.616 -16.853   5.876  1.00  0.00     0.044 A 
HETATM   29  C   UNL     1      42.573 -17.652   5.419  1.00  0.00     0.003 A 
HETATM   30  C   UNL     1      41.468 -17.058   4.821  1.00  0.00     0.002 A 
HETATM   31  C   UNL     1      41.402 -15.666   4.691  1.00  0.00     0.032 A 
ENDBRANCH  22  25
ENDBRANCH  17  18
ENDBRANCH  16  17
ENDBRANCH  15  16
ENDBRANCH  12  15
ENDBRANCH   5  11
BRANCH   1  32
HETATM   32  N   UNL     1      42.403 -15.501   0.467  1.00  0.00    -0.341 N 
HETATM   33  H   UNL     1      43.237 -14.967   0.251  1.00  0.00     0.167 HD
BRANCH  32  34
HETATM   34  C   UNL     1      42.708 -16.783   0.975  1.00  0.00     0.033 A 
HETATM   35  C   UNL     1      41.737 -17.761   1.212  1.00  0.00     0.030 A 
HETATM   36  C   UNL     1      42.067 -18.986   1.804  1.00  0.00     0.010 A 
HETATM   37  C   UNL     1      43.379 -19.256   2.209  1.00  0.00    -0.055 A 
HETATM   38  C   UNL     1      44.350 -18.269   2.006  1.00  0.00     0.010 A 
HETATM   39  C   UNL     1      44.015 -17.048   1.408  1.00  0.00     0.030 A 
BRANCH  37  40
HETATM   40  C   UNL     1      43.759 -20.578   2.854  1.00  0.00     0.010 C 
HETATM   41  C   UNL     1      44.905 -20.395   3.852  1.00  0.00     0.015 C 
HETATM   42  C   UNL     1      44.108 -21.642   1.812  1.00  0.00     0.015 C 
ENDBRANCH  37  40
ENDBRANCH  32  34
ENDBRANCH   1  32
TORSDOF 9
ENDMDL
MODEL 5
REMARK VINA RESULT:      -9.3      3.975      8.691
REMARK  9 active torsions:
REMARK  status: ('A' for Active; 'I' for Inactive)
REMARK    1  A    between atoms: C_2  and  C_3 
REMARK    2  A    between atoms: C_6  and  N_7 
REMARK    3  A    between atoms: N_7  and  C_8 
REMARK    4  A    between atoms: C_12  and  C_13 
REMARK       I    between atoms: C_13  and  N_14 
REMARK    5  A    between atoms: N_14  and  C_15 
REMARK    6  A    between atoms: C_15  and  C_16 
REMARK    7  A    between atoms: C_16  and  C_17 
REMARK    8  A    between atoms: C_17  and  N_18 
REMARK    9  A    between atoms: N_22  and  C_23 
ROOT
HETATM    1  C   UNL     1      40.865 -14.365  -0.061  1.00  0.00     0.129 A 
HETATM    2  N   UNL     1      41.429 -14.228  -1.271  1.00  0.00    -0.231 NA
HETATM    3  C   UNL     1      41.629 -13.013  -1.800  1.00  0.00     0.070 A 
HETATM    4  C   UNL     1      41.259 -11.818  -1.153  1.00  0.00     0.009 A 
HETATM    5  C   UNL     1      40.724 -11.974   0.152  1.00  0.00     0.048 A 
HETATM    6  C   UNL     1      40.530 -13.253   0.688  1.00  0.00     0.068 A 
HETATM    7  C   UNL     1      42.202 -12.960  -3.063  1.00  0.00     0.032 A 
HETATM    8  C   UNL     1      42.400 -11.755  -3.735  1.00  0.00     0.002 A 
HETATM    9  C   UNL     1      41.995 -10.571  -3.143  1.00  0.00     0.001 A 
HETATM   10  C   UNL     1      41.420 -10.599  -1.872  1.00  0.00     0.015 A 
ENDROOT
BRANCH   5  11
HETATM   11  C   UNL     1      40.260 -10.862   1.023  1.00  0.00     0.252 C 
HETATM   12  N   UNL     1      41.175 -10.227   1.831  1.00  0.00    -0.357 N 
HETATM   13  H   UNL     1      42.066 -10.691   1.990  1.00  0.00     0.162 HD
HETATM   14  O   UNL     1      39.073 -10.536   1.026  1.00  0.00    -0.268 OA
BRANCH  12  15
HETATM   15  C   UNL     1      40.786  -9.191   2.769  1.00  0.00     0.124 C 
BRANCH  15  16
HETATM   16  C   UNL     1      40.295  -9.719   4.123  1.00  0.00     0.047 C 
BRANCH  16  17
HETATM   17  C   UNL     1      41.245 -10.604   4.938  1.00  0.00     0.236 C 
BRANCH  17  18
HETATM   18  N   UNL     1      41.115 -12.069   4.646  1.00  0.00    -0.068 N 
HETATM   19  H   UNL     1      40.360 -12.156   3.933  1.00  0.00     0.280 HD
HETATM   20  C   UNL     1      42.372 -12.750   4.128  1.00  0.00     0.254 C 
HETATM   21  C   UNL     1      42.085 -14.224   3.765  1.00  0.00     0.150 C 
HETATM   22  N   UNL     1      41.425 -14.959   4.861  1.00  0.00    -0.375 N 
HETATM   23  C   UNL     1      40.222 -14.299   5.411  1.00  0.00     0.150 C 
HETATM   24  C   UNL     1      40.541 -12.848   5.836  1.00  0.00     0.254 C 
BRANCH  22  25
HETATM   25  C   UNL     1      42.178 -15.730   5.753  1.00  0.00     0.069 A 
HETATM   26  C   UNL     1      41.666 -16.779   6.541  1.00  0.00     0.142 A 
HETATM   27  F   UNL     1      40.376 -17.138   6.438  1.00  0.00    -0.204 F 
HETATM   28  C   UNL     1      42.464 -17.513   7.420  1.00  0.00     0.044 A 
HETATM   29  C   UNL     1      43.814 -17.206   7.550  1.00  0.00     0.003 A 
HETATM   30  C   UNL     1      44.354 -16.164   6.804  1.00  0.00     0.002 A 
HETATM   31  C   UNL     1      43.545 -15.438   5.923  1.00  0.00     0.032 A 
ENDBRANCH  22  25
ENDBRANCH  17  18
ENDBRANCH  16  17
ENDBRANCH  15  16
ENDBRANCH  12  15
ENDBRANCH   5  11
BRANCH   1  32
HETATM   32  N   UNL     1      40.539 -15.633   0.462  1.00  0.00    -0.341 N 
HETATM   33  H   UNL     1      39.611 -15.636   0.867  1.00  0.00     0.167 HD
BRANCH  32  34
HETATM   34  C   UNL     1      41.383 -16.598   1.053  1.00  0.00     0.033 A 
HETATM   35  C   UNL     1      41.082 -17.239   2.259  1.00  0.00     0.030 A 
HETATM   36  C   UNL     1      41.988 -18.121   2.861  1.00  0.00     0.010 A 
HETATM   37  C   UNL     1      43.241 -18.363   2.287  1.00  0.00    -0.055 A 
HETATM   38  C   UNL     1      43.563 -17.700   1.097  1.00  0.00     0.010 A 
HETATM   39  C   UNL     1      42.651 -16.823   0.497  1.00  0.00     0.030 A 
BRANCH  37  40
HETATM   40  C   UNL     1      44.240 -19.315   2.922  1.00  0.00     0.010 C 
HETATM   41  C   UNL     1      44.059 -20.740   2.392  1.00  0.00     0.015 C 
HETATM   42  C   UNL     1      44.162 -19.288   4.450  1.00  0.00     0.015 C 
ENDBRANCH  37  40
ENDBRANCH  32  34
ENDBRANCH   1  32
TORSDOF 9
ENDMDL
MODEL 6
REMARK VINA RESULT:      -8.9      3.485      6.570
REMARK  9 active torsions:
REMARK  status: ('A' for Active; 'I' for Inactive)
REMARK    1  A    between atoms: C_2  and  C_3 
REMARK    2  A    between atoms: C_6  and  N_7 
REMARK    3  A    between atoms: N_7  and  C_8 
REMARK    4  A    between atoms: C_12  and  C_13 
REMARK       I    between atoms: C_13  and  N_14 
REMARK    5  A    between atoms: N_14  and  C_15 
REMARK    6  A    between atoms: C_15  and  C_16 
REMARK    7  A    between atoms: C_16  and  C_17 
REMARK    8  A    between atoms: C_17  and  N_18 
REMARK    9  A    between atoms: N_22  and  C_23 
ROOT
HETATM    1  C   UNL     1      39.570 -13.328   5.867  1.00  0.00     0.129 A 
HETATM    2  N   UNL     1      39.471 -12.603   6.992  1.00  0.00    -0.231 NA
HETATM    3  C   UNL     1      39.455 -11.264   6.945  1.00  0.00     0.070 A 
HETATM    4  C   UNL     1      39.555 -10.532   5.746  1.00  0.00     0.009 A 
HETATM    5  C   UNL     1      39.594 -11.309   4.560  1.00  0.00     0.048 A 
HETATM    6  C   UNL     1      39.603 -12.708   4.632  1.00  0.00     0.068 A 
HETATM    7  C   UNL     1      39.367 -10.589   8.155  1.00  0.00     0.032 A 
HETATM    8  C   UNL     1      39.403  -9.198   8.231  1.00  0.00     0.002 A 
HETATM    9  C   UNL     1      39.556  -8.458   7.071  1.00  0.00     0.001 A 
HETATM   10  C   UNL     1      39.644  -9.113   5.843  1.00  0.00     0.015 A 
ENDROOT
BRANCH   5  11
HETATM   11  C   UNL     1      39.704 -10.761   3.183  1.00  0.00     0.252 C 
HETATM   12  N   UNL     1      38.571 -10.692   2.404  1.00  0.00    -0.357 N 
HETATM   13  H   UNL     1      37.764 -11.238   2.697  1.00  0.00     0.162 HD
HETATM   14  O   UNL     1      40.797 -10.394   2.750  1.00  0.00    -0.268 OA
BRANCH  12  15
HETATM   15  C   UNL     1      38.611 -10.249   1.024  1.00  0.00     0.124 C 
BRANCH  15  16
HETATM   16  C   UNL     1      38.416 -11.371  -0.004  1.00  0.00     0.047 C 
BRANCH  16  17
HETATM   17  C   UNL     1      39.609 -12.284  -0.309  1.00  0.00     0.236 C 
BRANCH  17  18
HETATM   18  N   UNL     1      40.101 -13.060   0.875  1.00  0.00    -0.068 N 
HETATM   19  H   UNL     1      39.922 -12.461   1.709  1.00  0.00     0.280 HD
HETATM   20  C   UNL     1      39.449 -14.418   1.088  1.00  0.00     0.254 C 
HETATM   21  C   UNL     1      39.960 -15.071   2.393  1.00  0.00     0.150 C 
HETATM   22  N   UNL     1      41.433 -15.104   2.470  1.00  0.00    -0.375 N 
HETATM   23  C   UNL     1      42.094 -13.804   2.227  1.00  0.00     0.150 C 
HETATM   24  C   UNL     1      41.628 -13.196   0.885  1.00  0.00     0.254 C 
BRANCH  22  25
HETATM   25  C   UNL     1      42.138 -16.248   2.079  1.00  0.00     0.069 A 
HETATM   26  C   UNL     1      41.553 -17.498   1.799  1.00  0.00     0.142 A 
HETATM   27  F   UNL     1      40.220 -17.651   1.851  1.00  0.00    -0.204 F 
HETATM   28  C   UNL     1      42.308 -18.608   1.418  1.00  0.00     0.044 A 
HETATM   29  C   UNL     1      43.691 -18.505   1.319  1.00  0.00     0.003 A 
HETATM   30  C   UNL     1      44.309 -17.293   1.608  1.00  0.00     0.002 A 
HETATM   31  C   UNL     1      43.541 -16.185   1.984  1.00  0.00     0.032 A 
ENDBRANCH  22  25
ENDBRANCH  17  18
ENDBRANCH  16  17
ENDBRANCH  15  16
ENDBRANCH  12  15
ENDBRANCH   5  11
BRANCH   1  32
HETATM   32  N   UNL     1      39.706 -14.730   5.903  1.00  0.00    -0.341 N 
HETATM   33  H   UNL     1      38.988 -15.155   6.477  1.00  0.00     0.167 HD
BRANCH  32  34
HETATM   34  C   UNL     1      40.878 -15.515   5.847  1.00  0.00     0.033 A 
HETATM   35  C   UNL     1      42.165 -14.969   5.869  1.00  0.00     0.030 A 
HETATM   36  C   UNL     1      43.301 -15.774   5.718  1.00  0.00     0.010 A 
HETATM   37  C   UNL     1      43.180 -17.152   5.508  1.00  0.00    -0.055 A 
HETATM   38  C   UNL     1      41.893 -17.702   5.453  1.00  0.00     0.010 A 
HETATM   39  C   UNL     1      40.762 -16.892   5.609  1.00  0.00     0.030 A 
BRANCH  37  40
HETATM   40  C   UNL     1      44.397 -18.045   5.341  1.00  0.00     0.010 C 
HETATM   41  C   UNL     1      43.992 -19.458   4.915  1.00  0.00     0.015 C 
HETATM   42  C   UNL     1      45.255 -18.082   6.608  1.00  0.00     0.015 C 
ENDBRANCH  37  40
ENDBRANCH  32  34
ENDBRANCH   1  32
TORSDOF 9
ENDMDL
MODEL 7
REMARK VINA RESULT:      -8.8      1.934      2.768
REMARK  9 active torsions:
REMARK  status: ('A' for Active; 'I' for Inactive)
REMARK    1  A    between atoms: C_2  and  C_3 
REMARK    2  A    between atoms: C_6  and  N_7 
REMARK    3  A    between atoms: N_7  and  C_8 
REMARK    4  A    between atoms: C_12  and  C_13 
REMARK       I    between atoms: C_13  and  N_14 
REMARK    5  A    between atoms: N_14  and  C_15 
REMARK    6  A    between atoms: C_15  and  C_16 
REMARK    7  A    between atoms: C_16  and  C_17 
REMARK    8  A    between atoms: C_17  and  N_18 
REMARK    9  A    between atoms: N_22  and  C_23 
ROOT
HETATM    1  C   UNL     1      44.154 -13.651   7.362  1.00  0.00     0.129 A 
HETATM    2  N   UNL     1      44.634 -14.884   7.134  1.00  0.00    -0.231 NA
HETATM    3  C   UNL     1      43.921 -15.777   6.434  1.00  0.00     0.070 A 
HETATM    4  C   UNL     1      42.642 -15.505   5.910  1.00  0.00     0.009 A 
HETATM    5  C   UNL     1      42.176 -14.179   6.101  1.00  0.00     0.048 A 
HETATM    6  C   UNL     1      42.940 -13.259   6.831  1.00  0.00     0.068 A 
HETATM    7  C   UNL     1      44.481 -17.035   6.258  1.00  0.00     0.032 A 
HETATM    8  C   UNL     1      43.804 -18.060   5.600  1.00  0.00     0.002 A 
HETATM    9  C   UNL     1      42.524 -17.834   5.123  1.00  0.00     0.001 A 
HETATM   10  C   UNL     1      41.942 -16.577   5.285  1.00  0.00     0.015 A 
ENDROOT
BRANCH   5  11
HETATM   11  C   UNL     1      40.860 -13.663   5.642  1.00  0.00     0.252 C 
HETATM   12  N   UNL     1      40.789 -12.385   5.136  1.00  0.00    -0.357 N 
HETATM   13  H   UNL     1      41.571 -11.761   5.319  1.00  0.00     0.162 HD
HETATM   14  O   UNL     1      39.854 -14.367   5.736  1.00  0.00    -0.268 OA
BRANCH  12  15
HETATM   15  C   UNL     1      39.529 -11.779   4.747  1.00  0.00     0.124 C 
BRANCH  15  16
HETATM   16  C   UNL     1      39.229 -11.857   3.245  1.00  0.00     0.047 C 
BRANCH  16  17
HETATM   17  C   UNL     1      40.414 -11.844   2.273  1.00  0.00     0.236 C 
BRANCH  17  18
HETATM   18  N   UNL     1      40.491 -13.051   1.388  1.00  0.00    -0.068 N 
HETATM   19  H   UNL     1      39.763 -12.919   0.654  1.00  0.00     0.280 HD
HETATM   20  C   UNL     1      41.836 -13.292   0.719  1.00  0.00     0.254 C 
HETATM   21  C   UNL     1      41.758 -14.497  -0.245  1.00  0.00     0.150 C 
HETATM   22  N   UNL     1      41.195 -15.701   0.397  1.00  0.00    -0.375 N 
HETATM   23  C   UNL     1      39.906 -15.485   1.090  1.00  0.00     0.150 C 
HETATM   24  C   UNL     1      40.018 -14.324   2.102  1.00  0.00     0.254 C 
BRANCH  22  25
HETATM   25  C   UNL     1      42.038 -16.679   0.934  1.00  0.00     0.069 A 
HETATM   26  C   UNL     1      41.652 -18.003   1.223  1.00  0.00     0.142 A 
HETATM   27  F   UNL     1      40.409 -18.425   0.943  1.00  0.00    -0.204 F 
HETATM   28  C   UNL     1      42.536 -18.937   1.765  1.00  0.00     0.044 A 
HETATM   29  C   UNL     1      43.846 -18.568   2.051  1.00  0.00     0.003 A 
HETATM   30  C   UNL     1      44.259 -17.265   1.799  1.00  0.00     0.002 A 
HETATM   31  C   UNL     1      43.366 -16.337   1.251  1.00  0.00     0.032 A 
ENDBRANCH  22  25
ENDBRANCH  17  18
ENDBRANCH  16  17
ENDBRANCH  15  16
ENDBRANCH  12  15
ENDBRANCH   5  11
BRANCH   1  32
HETATM   32  N   UNL     1      44.834 -12.737   8.193  1.00  0.00    -0.341 N 
HETATM   33  H   UNL     1      45.802 -13.006   8.320  1.00  0.00     0.167 HD
BRANCH  32  34
HETATM   34  C   UNL     1      44.342 -11.984   9.281  1.00  0.00     0.033 A 
HETATM   35  C   UNL     1      44.599 -12.313  10.615  1.00  0.00     0.030 A 
HETATM   36  C   UNL     1      44.016 -11.596  11.668  1.00  0.00     0.010 A 
HETATM   37  C   UNL     1      43.130 -10.543  11.413  1.00  0.00    -0.055 A 
HETATM   38  C   UNL     1      42.842 -10.229  10.080  1.00  0.00     0.010 A 
HETATM   39  C   UNL     1      43.432 -10.947   9.032  1.00  0.00     0.030 A 
BRANCH  37  40
HETATM   40  C   UNL     1      42.486  -9.752  12.538  1.00  0.00     0.010 C 
HETATM   41  C   UNL     1      43.528  -9.306  13.566  1.00  0.00     0.015 C 
HETATM   42  C   UNL     1      41.356 -10.534  13.212  1.00  0.00     0.015 C 
ENDBRANCH  37  40
ENDBRANCH  32  34
ENDBRANCH   1  32
TORSDOF 9
ENDMDL
MODEL 8
REMARK VINA RESULT:      -8.7      3.389      5.576
REMARK  9 active torsions:
REMARK  status: ('A' for Active; 'I' for Inactive)
REMARK    1  A    between atoms: C_2  and  C_3 
REMARK    2  A    between atoms: C_6  and  N_7 
REMARK    3  A    between atoms: N_7  and  C_8 
REMARK    4  A    between atoms: C_12  and  C_13 
REMARK       I    between atoms: C_13  and  N_14 
REMARK    5  A    between atoms: N_14  and  C_15 
REMARK    6  A    between atoms: C_15  and  C_16 
REMARK    7  A    between atoms: C_16  and  C_17 
REMARK    8  A    between atoms: C_17  and  N_18 
REMARK    9  A    between atoms: N_22  and  C_23 
ROOT
HETATM    1  C   UNL     1      44.388 -14.007   7.051  1.00  0.00     0.129 A 
HETATM    2  N   UNL     1      44.888 -15.252   7.115  1.00  0.00    -0.231 NA
HETATM    3  C   UNL     1      44.226 -16.284   6.576  1.00  0.00     0.070 A 
HETATM    4  C   UNL     1      42.981 -16.152   5.931  1.00  0.00     0.009 A 
HETATM    5  C   UNL     1      42.496 -14.824   5.812  1.00  0.00     0.048 A 
HETATM    6  C   UNL     1      43.207 -13.758   6.378  1.00  0.00     0.068 A 
HETATM    7  C   UNL     1      44.803 -17.540   6.701  1.00  0.00     0.032 A 
HETATM    8  C   UNL     1      44.175 -18.693   6.232  1.00  0.00     0.002 A 
HETATM    9  C   UNL     1      42.926 -18.595   5.643  1.00  0.00     0.001 A 
HETATM   10  C   UNL     1      42.327 -17.343   5.504  1.00  0.00     0.015 A 
ENDROOT
BRANCH   5  11
HETATM   11  C   UNL     1      41.207 -14.439   5.179  1.00  0.00     0.252 C 
HETATM   12  N   UNL     1      41.214 -14.009   3.871  1.00  0.00    -0.357 N 
HETATM   13  H   UNL     1      42.108 -13.736   3.469  1.00  0.00     0.162 HD
HETATM   14  O   UNL     1      40.162 -14.490   5.826  1.00  0.00    -0.268 OA
BRANCH  12  15
HETATM   15  C   UNL     1      40.013 -13.537   3.209  1.00  0.00     0.124 C 
BRANCH  15  16
HETATM   16  C   UNL     1      39.226 -14.629   2.475  1.00  0.00     0.047 C 
BRANCH  16  17
HETATM   17  C   UNL     1      39.985 -15.521   1.486  1.00  0.00     0.236 C 
BRANCH  17  18
HETATM   18  N   UNL     1      39.941 -15.036   0.069  1.00  0.00    -0.068 N 
HETATM   19  H   UNL     1      39.445 -15.774  -0.475  1.00  0.00     0.280 HD
HETATM   20  C   UNL     1      39.243 -13.702  -0.148  1.00  0.00     0.254 C 
HETATM   21  C   UNL     1      39.169 -13.362  -1.654  1.00  0.00     0.150 C 
HETATM   22  N   UNL     1      40.481 -13.457  -2.321  1.00  0.00    -0.375 N 
HETATM   23  C   UNL     1      41.200 -14.729  -2.094  1.00  0.00     0.150 C 
HETATM   24  C   UNL     1      41.330 -15.021  -0.582  1.00  0.00     0.254 C 
BRANCH  22  25
HETATM   25  C   UNL     1      41.271 -12.316  -2.499  1.00  0.00     0.069 A 
HETATM   26  C   UNL     1      41.213 -11.464  -3.619  1.00  0.00     0.142 A 
HETATM   27  F   UNL     1      40.322 -11.689  -4.598  1.00  0.00    -0.204 F 
HETATM   28  C   UNL     1      42.030 -10.339  -3.747  1.00  0.00     0.044 A 
HETATM   29  C   UNL     1      42.953 -10.038  -2.752  1.00  0.00     0.003 A 
HETATM   30  C   UNL     1      43.056 -10.866  -1.641  1.00  0.00     0.002 A 
HETATM   31  C   UNL     1      42.228 -11.988  -1.521  1.00  0.00     0.032 A 
ENDBRANCH  22  25
ENDBRANCH  17  18
ENDBRANCH  16  17
ENDBRANCH  15  16
ENDBRANCH  12  15
ENDBRANCH   5  11
BRANCH   1  32
HETATM   32  N   UNL     1      45.009 -12.928   7.711  1.00  0.00    -0.341 N 
HETATM   33  H   UNL     1      46.019 -13.006   7.674  1.00  0.00     0.167 HD
BRANCH  32  34
HETATM   34  C   UNL     1      44.572 -12.201   8.840  1.00  0.00     0.033 A 
HETATM   35  C   UNL     1      43.419 -11.410   8.839  1.00  0.00     0.030 A 
HETATM   36  C   UNL     1      43.070 -10.630   9.948  1.00  0.00     0.010 A 
HETATM   37  C   UNL     1      43.885 -10.595  11.084  1.00  0.00    -0.055 A 
HETATM   38  C   UNL     1      45.059 -11.359  11.080  1.00  0.00     0.010 A 
HETATM   39  C   UNL     1      45.400 -12.140   9.970  1.00  0.00     0.030 A 
BRANCH  37  40
HETATM   40  C   UNL     1      43.527  -9.756  12.299  1.00  0.00     0.010 C 
HETATM   41  C   UNL     1      42.809 -10.596  13.358  1.00  0.00     0.015 C 
HETATM   42  C   UNL     1      42.694  -8.530  11.920  1.00  0.00     0.015 C 
ENDBRANCH  37  40
ENDBRANCH  32  34
ENDBRANCH   1  32
TORSDOF 9
ENDMDL
MODEL 9
REMARK VINA RESULT:      -8.7      4.048      8.707
REMARK  9 active torsions:
REMARK  status: ('A' for Active; 'I' for Inactive)
REMARK    1  A    between atoms: C_2  and  C_3 
REMARK    2  A    between atoms: C_6  and  N_7 
REMARK    3  A    between atoms: N_7  and  C_8 
REMARK    4  A    between atoms: C_12  and  C_13 
REMARK       I    between atoms: C_13  and  N_14 
REMARK    5  A    between atoms: N_14  and  C_15 
REMARK    6  A    between atoms: C_15  and  C_16 
REMARK    7  A    between atoms: C_16  and  C_17 
REMARK    8  A    between atoms: C_17  and  N_18 
REMARK    9  A    between atoms: N_22  and  C_23 
ROOT
HETATM    1  C   UNL     1      40.234 -15.581   1.062  1.00  0.00     0.129 A 
HETATM    2  N   UNL     1      40.854 -15.726  -0.120  1.00  0.00    -0.231 NA
HETATM    3  C   UNL     1      40.683 -14.826  -1.098  1.00  0.00     0.070 A 
HETATM    4  C   UNL     1      39.850 -13.697  -0.971  1.00  0.00     0.009 A 
HETATM    5  C   UNL     1      39.254 -13.521   0.304  1.00  0.00     0.048 A 
HETATM    6  C   UNL     1      39.451 -14.471   1.314  1.00  0.00     0.068 A 
HETATM    7  C   UNL     1      41.345 -15.058  -2.295  1.00  0.00     0.032 A 
HETATM    8  C   UNL     1      41.193 -14.222  -3.399  1.00  0.00     0.002 A 
HETATM    9  C   UNL     1      40.338 -13.136  -3.317  1.00  0.00     0.001 A 
HETATM   10  C   UNL     1      39.664 -12.880  -2.124  1.00  0.00     0.015 A 
ENDROOT
BRANCH   5  11
HETATM   11  C   UNL     1      38.336 -12.410   0.671  1.00  0.00     0.252 C 
HETATM   12  N   UNL     1      38.808 -11.118   0.628  1.00  0.00    -0.357 N 
HETATM   13  H   UNL     1      39.816 -10.986   0.590  1.00  0.00     0.162 HD
HETATM   14  O   UNL     1      37.182 -12.654   1.024  1.00  0.00    -0.268 OA
BRANCH  12  15
HETATM   15  C   UNL     1      38.003  -9.989   1.052  1.00  0.00     0.124 C 
BRANCH  15  16
HETATM   16  C   UNL     1      38.566  -9.230   2.259  1.00  0.00     0.047 C 
BRANCH  16  17
HETATM   17  C   UNL     1      37.937  -9.492   3.632  1.00  0.00     0.236 C 
BRANCH  17  18
HETATM   18  N   UNL     1      38.828 -10.236   4.579  1.00  0.00    -0.068 N 
HETATM   19  H   UNL     1      38.605  -9.876   5.531  1.00  0.00     0.280 HD
HETATM   20  C   UNL     1      38.679 -11.751   4.572  1.00  0.00     0.254 C 
HETATM   21  C   UNL     1      39.569 -12.393   5.660  1.00  0.00     0.150 C 
HETATM   22  N   UNL     1      40.970 -11.938   5.587  1.00  0.00    -0.375 N 
HETATM   23  C   UNL     1      41.143 -10.470   5.552  1.00  0.00     0.150 C 
HETATM   24  C   UNL     1      40.303  -9.848   4.414  1.00  0.00     0.254 C 
BRANCH  22  25
HETATM   25  C   UNL     1      41.927 -12.697   4.905  1.00  0.00     0.069 A 
HETATM   26  C   UNL     1      41.997 -12.834   3.505  1.00  0.00     0.142 A 
HETATM   27  F   UNL     1      41.134 -12.176   2.714  1.00  0.00    -0.204 F 
HETATM   28  C   UNL     1      42.973 -13.610   2.877  1.00  0.00     0.044 A 
HETATM   29  C   UNL     1      43.912 -14.294   3.641  1.00  0.00     0.003 A 
HETATM   30  C   UNL     1      43.864 -14.201   5.027  1.00  0.00     0.002 A 
HETATM   31  C   UNL     1      42.884 -13.416   5.646  1.00  0.00     0.032 A 
ENDBRANCH  22  25
ENDBRANCH  17  18
ENDBRANCH  16  17
ENDBRANCH  15  16
ENDBRANCH  12  15
ENDBRANCH   5  11
BRANCH   1  32
HETATM   32  N   UNL     1      40.307 -16.574   2.060  1.00  0.00    -0.341 N 
HETATM   33  H   UNL     1      39.449 -16.620   2.597  1.00  0.00     0.167 HD
BRANCH  32  34
HETATM   34  C   UNL     1      41.425 -17.013   2.802  1.00  0.00     0.033 A 
HETATM   35  C   UNL     1      42.538 -17.623   2.216  1.00  0.00     0.030 A 
HETATM   36  C   UNL     1      43.586 -18.129   2.996  1.00  0.00     0.010 A 
HETATM   37  C   UNL     1      43.533 -18.068   4.393  1.00  0.00    -0.055 A 
HETATM   38  C   UNL     1      42.406 -17.489   4.988  1.00  0.00     0.010 A 
HETATM   39  C   UNL     1      41.365 -16.980   4.203  1.00  0.00     0.030 A 
BRANCH  37  40
HETATM   40  C   UNL     1      44.657 -18.611   5.259  1.00  0.00     0.010 C 
HETATM   41  C   UNL     1      44.987 -20.060   4.890  1.00  0.00     0.015 C 
HETATM   42  C   UNL     1      44.339 -18.488   6.751  1.00  0.00     0.015 C 
ENDBRANCH  37  40
ENDBRANCH  32  34
ENDBRANCH   1  32
TORSDOF 9
ENDMDL
MODEL 10
REMARK VINA RESULT:      -8.5      3.928      8.685
REMARK  9 active torsions:
REMARK  status: ('A' for Active; 'I' for Inactive)
REMARK    1  A    between atoms: C_2  and  C_3 
REMARK    2  A    between atoms: C_6  and  N_7 
REMARK    3  A    between atoms: N_7  and  C_8 
REMARK    4  A    between atoms: C_12  and  C_13 
REMARK       I    between atoms: C_13  and  N_14 
REMARK    5  A    between atoms: N_14  and  C_15 
REMARK    6  A    between atoms: C_15  and  C_16 
REMARK    7  A    between atoms: C_16  and  C_17 
REMARK    8  A    between atoms: C_17  and  N_18 
REMARK    9  A    between atoms: N_22  and  C_23 
ROOT
HETATM    1  C   UNL     1      40.859 -15.066  -0.977  1.00  0.00     0.129 A 
HETATM    2  N   UNL     1      40.156 -15.036  -2.120  1.00  0.00    -0.231 NA
HETATM    3  C   UNL     1      39.142 -14.175  -2.279  1.00  0.00     0.070 A 
HETATM    4  C   UNL     1      38.736 -13.269  -1.280  1.00  0.00     0.009 A 
HETATM    5  C   UNL     1      39.528 -13.265  -0.103  1.00  0.00     0.048 A 
HETATM    6  C   UNL     1      40.587 -14.170   0.039  1.00  0.00     0.068 A 
HETATM    7  C   UNL     1      38.456 -14.220  -3.484  1.00  0.00     0.032 A 
HETATM    8  C   UNL     1      37.348 -13.413  -3.735  1.00  0.00     0.002 A 
HETATM    9  C   UNL     1      36.895 -12.553  -2.749  1.00  0.00     0.001 A 
HETATM   10  C   UNL     1      37.571 -12.488  -1.530  1.00  0.00     0.015 A 
ENDROOT
BRANCH   5  11
HETATM   11  C   UNL     1      39.289 -12.403   1.084  1.00  0.00     0.252 C 
HETATM   12  N   UNL     1      39.573 -11.059   0.995  1.00  0.00    -0.357 N 
HETATM   13  H   UNL     1      40.159 -10.751   0.222  1.00  0.00     0.162 HD
HETATM   14  O   UNL     1      38.862 -12.895   2.129  1.00  0.00    -0.268 OA
BRANCH  12  15
HETATM   15  C   UNL     1      39.448 -10.168   2.133  1.00  0.00     0.124 C 
BRANCH  15  16
HETATM   16  C   UNL     1      40.755  -9.939   2.902  1.00  0.00     0.047 C 
BRANCH  16  17
HETATM   17  C   UNL     1      40.934 -10.652   4.246  1.00  0.00     0.236 C 
BRANCH  17  18
HETATM   18  N   UNL     1      40.860 -12.146   4.159  1.00  0.00    -0.068 N 
HETATM   19  H   UNL     1      40.140 -12.359   3.435  1.00  0.00     0.280 HD
HETATM   20  C   UNL     1      42.158 -12.849   3.791  1.00  0.00     0.254 C 
HETATM   21  C   UNL     1      41.930 -14.369   3.628  1.00  0.00     0.150 C 
HETATM   22  N   UNL     1      41.244 -14.966   4.789  1.00  0.00    -0.375 N 
HETATM   23  C   UNL     1      39.999 -14.278   5.193  1.00  0.00     0.150 C 
HETATM   24  C   UNL     1      40.257 -12.772   5.422  1.00  0.00     0.254 C 
BRANCH  22  25
HETATM   25  C   UNL     1      41.979 -15.579   5.810  1.00  0.00     0.069 A 
HETATM   26  C   UNL     1      41.573 -16.727   6.517  1.00  0.00     0.142 A 
HETATM   27  F   UNL     1      40.425 -17.348   6.202  1.00  0.00    -0.204 F 
HETATM   28  C   UNL     1      42.346 -17.293   7.532  1.00  0.00     0.044 A 
HETATM   29  C   UNL     1      43.558 -16.712   7.886  1.00  0.00     0.003 A 
HETATM   30  C   UNL     1      43.985 -15.565   7.225  1.00  0.00     0.002 A 
HETATM   31  C   UNL     1      43.204 -15.009   6.206  1.00  0.00     0.032 A 
ENDBRANCH  22  25
ENDBRANCH  17  18
ENDBRANCH  16  17
ENDBRANCH  15  16
ENDBRANCH  12  15
ENDBRANCH   5  11
BRANCH   1  32
HETATM   32  N   UNL     1      41.850 -16.041  -0.746  1.00  0.00    -0.341 N 
HETATM   33  H   UNL     1      41.938 -16.671  -1.535  1.00  0.00     0.167 HD
BRANCH  32  34
HETATM   34  C   UNL     1      42.239 -16.649   0.467  1.00  0.00     0.033 A 
HETATM   35  C   UNL     1      43.567 -16.712   0.898  1.00  0.00     0.030 A 
HETATM   36  C   UNL     1      43.924 -17.406   2.062  1.00  0.00     0.010 A 
HETATM   37  C   UNL     1      42.960 -18.088   2.813  1.00  0.00    -0.055 A 
HETATM   38  C   UNL     1      41.632 -18.056   2.369  1.00  0.00     0.010 A 
HETATM   39  C   UNL     1      41.282 -17.357   1.208  1.00  0.00     0.030 A 
BRANCH  37  40
HETATM   40  C   UNL     1      43.323 -18.847   4.077  1.00  0.00     0.010 C 
HETATM   41  C   UNL     1      44.484 -18.172   4.812  1.00  0.00     0.015 C 
HETATM   42  C   UNL     1      43.640 -20.316   3.790  1.00  0.00     0.015 C 
ENDBRANCH  37  40
ENDBRANCH  32  34
ENDBRANCH   1  32
TORSDOF 9
ENDMDL
