MODEL 1
REMARK VINA RESULT:      -8.4      0.000      0.000
REMARK  8 active torsions:
REMARK  status: ('A' for Active; 'I' for Inactive)
REMARK    1  A    between atoms: C_2  and  C_3 
REMARK    2  A    between atoms: C_3  and  O_4 
REMARK    3  A    between atoms: O_4  and  C_5 
REMARK    4  A    between atoms: C_6  and  C_7 
REMARK    5  A    between atoms: C_11  and  C_12 
REMARK       I    between atoms: C_12  and  N_13 
REMARK    6  A    between atoms: N_13  and  N_14 
REMARK    7  A    between atoms: C_15  and  C_16 
REMARK    8  A    between atoms: C_19  and  N_20 
ROOT
HETATM    1  C   UNL     1      44.223 -10.892  10.116  1.00  0.00     0.092 A 
HETATM    2  N   UNL     1      45.482 -10.533   9.808  1.00  0.00    -0.174 NA
HETATM    3  N   UNL     1      45.861 -11.399   8.859  1.00  0.00    -0.272 N 
HETATM    4  H   UNL     1      46.796 -11.328   8.469  1.00  0.00     0.189 HD
HETATM    5  C   UNL     1      44.899 -12.303   8.505  1.00  0.00     0.121 A 
HETATM    6  C   UNL     1      43.819 -11.991   9.305  1.00  0.00     0.071 A 
ENDROOT
BRANCH   5   7
HETATM    7  C   UNL     1      45.151 -13.290   7.484  1.00  0.00     0.289 C 
HETATM    8  N   UNL     1      44.172 -14.266   7.364  1.00  0.00    -0.242 N 
HETATM    9  H   UNL     1      43.361 -14.256   7.967  1.00  0.00     0.192 HD
HETATM   10  O   UNL     1      46.163 -13.235   6.789  1.00  0.00    -0.264 OA
BRANCH   8  11
HETATM   11  N   UNL     1      44.284 -15.227   6.402  1.00  0.00    -0.184 NA
HETATM   12  C   UNL     1      44.098 -16.446   6.796  1.00  0.00     0.150 C 
BRANCH  12  13
HETATM   13  C   UNL     1      44.167 -17.579   5.852  1.00  0.00    -0.017 A 
HETATM   14  C   UNL     1      45.019 -18.657   6.086  1.00  0.00     0.015 A 
HETATM   15  C   UNL     1      45.090 -19.708   5.163  1.00  0.00     0.030 A 
HETATM   16  C   UNL     1      44.309 -19.722   3.995  1.00  0.00     0.029 A 
HETATM   17  C   UNL     1      43.463 -18.615   3.787  1.00  0.00     0.030 A 
HETATM   18  C   UNL     1      43.385 -17.554   4.699  1.00  0.00     0.015 A 
BRANCH  16  19
HETATM   19  N   UNL     1      44.376 -20.746   3.038  1.00  0.00    -0.390 N 
HETATM   20  C   UNL     1      43.494 -20.568   1.881  1.00  0.00     0.149 C 
HETATM   21  C   UNL     1      44.483 -22.128   3.508  1.00  0.00     0.149 C 
ENDBRANCH  16  19
ENDBRANCH  12  13
ENDBRANCH   8  11
ENDBRANCH   5   7
BRANCH   1  22
HETATM   22  C   UNL     1      43.452 -10.158  11.133  1.00  0.00     0.028 A 
HETATM   23  C   UNL     1      42.259  -9.460  10.845  1.00  0.00     0.081 A 
HETATM   24  C   UNL     1      41.593  -8.780  11.879  1.00  0.00     0.038 A 
HETATM   25  C   UNL     1      42.090  -8.796  13.184  1.00  0.00     0.003 A 
HETATM   26  C   UNL     1      43.257  -9.488  13.476  1.00  0.00     0.001 A 
HETATM   27  C   UNL     1      43.930 -10.163  12.459  1.00  0.00     0.017 A 
BRANCH  23  28
HETATM   28  O   UNL     1      41.804  -9.490   9.549  1.00  0.00    -0.350 OA
BRANCH  28  29
HETATM   29  C   UNL     1      40.969  -8.420   9.108  1.00  0.00     0.175 C 
BRANCH  29  30
HETATM   30  C   UNL     1      39.740  -9.035   8.445  1.00  0.00     0.022 C 
HETATM   31  C   UNL     1      38.753  -9.566   9.468  1.00  0.00     0.007 C 
ENDBRANCH  29  30
ENDBRANCH  28  29
ENDBRANCH  23  28
ENDBRANCH   1  22
TORSDOF 8
ENDMDL
MODEL 2
REMARK VINA RESULT:      -8.1      7.539     12.069
REMARK  8 active torsions:
REMARK  status: ('A' for Active; 'I' for Inactive)
REMARK    1  A    between atoms: C_2  and  C_3 
REMARK    2  A    between atoms: C_3  and  O_4 
REMARK    3  A    between atoms: O_4  and  C_5 
REMARK    4  A    between atoms: C_6  and  C_7 
REMARK    5  A    between atoms: C_11  and  C_12 
REMARK       I    between atoms: C_12  and  N_13 
REMARK    6  A    between atoms: N_13  and  N_14 
REMARK    7  A    between atoms: C_15  and  C_16 
REMARK    8  A    between atoms: C_19  and  N_20 
ROOT
HETATM    1  C   UNL     1      43.408 -18.635   1.903  1.00  0.00     0.092 A 
HETATM    2  N   UNL     1      44.271 -17.764   1.351  1.00  0.00    -0.174 NA
HETATM    3  N   UNL     1      43.498 -16.799   0.835  1.00  0.00    -0.272 N 
HETATM    4  H   UNL     1      43.936 -16.020   0.352  1.00  0.00     0.189 HD
HETATM    5  C   UNL     1      42.160 -16.979   1.041  1.00  0.00     0.121 A 
HETATM    6  C   UNL     1      42.073 -18.165   1.740  1.00  0.00     0.071 A 
ENDROOT
BRANCH   5   7
HETATM    7  C   UNL     1      41.201 -16.016   0.560  1.00  0.00     0.289 C 
HETATM    8  N   UNL     1      41.334 -15.681  -0.780  1.00  0.00    -0.242 N 
HETATM    9  H   UNL     1      42.063 -16.098  -1.343  1.00  0.00     0.192 HD
HETATM   10  O   UNL     1      40.342 -15.553   1.306  1.00  0.00    -0.264 OA
BRANCH   8  11
HETATM   11  N   UNL     1      40.454 -14.811  -1.355  1.00  0.00    -0.184 NA
HETATM   12  C   UNL     1      39.739 -15.287  -2.324  1.00  0.00     0.150 C 
BRANCH  12  13
HETATM   13  C   UNL     1      38.733 -14.458  -3.016  1.00  0.00    -0.017 A 
HETATM   14  C   UNL     1      38.849 -13.070  -3.054  1.00  0.00     0.015 A 
HETATM   15  C   UNL     1      37.868 -12.301  -3.693  1.00  0.00     0.030 A 
HETATM   16  C   UNL     1      36.758 -12.890  -4.320  1.00  0.00     0.029 A 
HETATM   17  C   UNL     1      36.668 -14.294  -4.258  1.00  0.00     0.030 A 
HETATM   18  C   UNL     1      37.639 -15.076  -3.619  1.00  0.00     0.015 A 
BRANCH  16  19
HETATM   19  N   UNL     1      35.744 -12.147  -4.945  1.00  0.00    -0.390 N 
HETATM   20  C   UNL     1      34.447 -12.825  -5.034  1.00  0.00     0.149 C 
HETATM   21  C   UNL     1      36.093 -11.355  -6.125  1.00  0.00     0.149 C 
ENDBRANCH  16  19
ENDBRANCH  12  13
ENDBRANCH   8  11
ENDBRANCH   5   7
BRANCH   1  22
HETATM   22  C   UNL     1      43.887 -19.848   2.588  1.00  0.00     0.028 A 
HETATM   23  C   UNL     1      44.355 -19.850   3.919  1.00  0.00     0.081 A 
HETATM   24  C   UNL     1      44.801 -21.055   4.489  1.00  0.00     0.038 A 
HETATM   25  C   UNL     1      44.776 -22.247   3.760  1.00  0.00     0.003 A 
HETATM   26  C   UNL     1      44.307 -22.252   2.453  1.00  0.00     0.001 A 
HETATM   27  C   UNL     1      43.866 -21.064   1.874  1.00  0.00     0.017 A 
BRANCH  23  28
HETATM   28  O   UNL     1      44.344 -18.657   4.598  1.00  0.00    -0.350 OA
BRANCH  28  29
HETATM   29  C   UNL     1      43.534 -18.559   5.768  1.00  0.00     0.175 C 
BRANCH  29  30
HETATM   30  C   UNL     1      42.520 -17.441   5.538  1.00  0.00     0.022 C 
HETATM   31  C   UNL     1      43.128 -16.274   4.782  1.00  0.00     0.007 C 
ENDBRANCH  29  30
ENDBRANCH  28  29
ENDBRANCH  23  28
ENDBRANCH   1  22
TORSDOF 8
ENDMDL
MODEL 3
REMARK VINA RESULT:      -8.0      6.965     11.686
REMARK  8 active torsions:
REMARK  status: ('A' for Active; 'I' for Inactive)
REMARK    1  A    between atoms: C_2  and  C_3 
REMARK    2  A    between atoms: C_3  and  O_4 
REMARK    3  A    between atoms: O_4  and  C_5 
REMARK    4  A    between atoms: C_6  and  C_7 
REMARK    5  A    between atoms: C_11  and  C_12 
REMARK       I    between atoms: C_12  and  N_13 
REMARK    6  A    between atoms: N_13  and  N_14 
REMARK    7  A    between atoms: C_15  and  C_16 
REMARK    8  A    between atoms: C_19  and  N_20 
ROOT
HETATM    1  C   UNL     1      43.436 -18.663   1.965  1.00  0.00     0.092 A 
HETATM    2  N   UNL     1      44.302 -17.750   1.490  1.00  0.00    -0.174 NA
HETATM    3  N   UNL     1      43.531 -16.804   0.939  1.00  0.00    -0.272 N 
HETATM    4  H   UNL     1      43.972 -16.000   0.501  1.00  0.00     0.189 HD
HETATM    5  C   UNL     1      42.189 -17.034   1.050  1.00  0.00     0.121 A 
HETATM    6  C   UNL     1      42.099 -18.237   1.719  1.00  0.00     0.071 A 
ENDROOT
BRANCH   5   7
HETATM    7  C   UNL     1      41.230 -16.096   0.521  1.00  0.00     0.289 C 
HETATM    8  N   UNL     1      40.291 -15.645   1.437  1.00  0.00    -0.242 N 
HETATM    9  H   UNL     1      40.307 -15.974   2.392  1.00  0.00     0.192 HD
HETATM   10  O   UNL     1      41.276 -15.743  -0.655  1.00  0.00    -0.264 OA
BRANCH   8  11
HETATM   11  N   UNL     1      39.361 -14.722   1.058  1.00  0.00    -0.184 NA
HETATM   12  C   UNL     1      39.127 -13.772   1.906  1.00  0.00     0.150 C 
BRANCH  12  13
HETATM   13  C   UNL     1      38.160 -12.696   1.611  1.00  0.00    -0.017 A 
HETATM   14  C   UNL     1      38.206 -11.483   2.294  1.00  0.00     0.015 A 
HETATM   15  C   UNL     1      37.261 -10.486   2.017  1.00  0.00     0.030 A 
HETATM   16  C   UNL     1      36.260 -10.664   1.048  1.00  0.00     0.029 A 
HETATM   17  C   UNL     1      36.240 -11.904   0.380  1.00  0.00     0.030 A 
HETATM   18  C   UNL     1      37.175 -12.911   0.650  1.00  0.00     0.015 A 
BRANCH  16  19
HETATM   19  N   UNL     1      35.283  -9.696   0.766  1.00  0.00    -0.390 N 
HETATM   20  C   UNL     1      33.974  -9.945   1.377  1.00  0.00     0.149 C 
HETATM   21  C   UNL     1      35.221  -9.149  -0.590  1.00  0.00     0.149 C 
ENDBRANCH  16  19
ENDBRANCH  12  13
ENDBRANCH   8  11
ENDBRANCH   5   7
BRANCH   1  22
HETATM   22  C   UNL     1      43.911 -19.872   2.659  1.00  0.00     0.028 A 
HETATM   23  C   UNL     1      44.372 -19.866   3.994  1.00  0.00     0.081 A 
HETATM   24  C   UNL     1      44.814 -21.068   4.572  1.00  0.00     0.038 A 
HETATM   25  C   UNL     1      44.794 -22.263   3.850  1.00  0.00     0.003 A 
HETATM   26  C   UNL     1      44.333 -22.276   2.540  1.00  0.00     0.001 A 
HETATM   27  C   UNL     1      43.895 -21.091   1.952  1.00  0.00     0.017 A 
BRANCH  23  28
HETATM   28  O   UNL     1      44.356 -18.669   4.665  1.00  0.00    -0.350 OA
BRANCH  28  29
HETATM   29  C   UNL     1      43.450 -18.526   5.759  1.00  0.00     0.175 C 
BRANCH  29  30
HETATM   30  C   UNL     1      42.422 -17.466   5.373  1.00  0.00     0.022 C 
HETATM   31  C   UNL     1      43.077 -16.241   4.761  1.00  0.00     0.007 C 
ENDBRANCH  29  30
ENDBRANCH  28  29
ENDBRANCH  23  28
ENDBRANCH   1  22
TORSDOF 8
ENDMDL
MODEL 4
REMARK VINA RESULT:      -7.8      7.951     11.935
REMARK  8 active torsions:
REMARK  status: ('A' for Active; 'I' for Inactive)
REMARK    1  A    between atoms: C_2  and  C_3 
REMARK    2  A    between atoms: C_3  and  O_4 
REMARK    3  A    between atoms: O_4  and  C_5 
REMARK    4  A    between atoms: C_6  and  C_7 
REMARK    5  A    between atoms: C_11  and  C_12 
REMARK       I    between atoms: C_12  and  N_13 
REMARK    6  A    between atoms: N_13  and  N_14 
REMARK    7  A    between atoms: C_15  and  C_16 
REMARK    8  A    between atoms: C_19  and  N_20 
ROOT
HETATM    1  C   UNL     1      42.337 -17.868   1.695  1.00  0.00     0.092 A 
HETATM    2  N   UNL     1      40.995 -17.875   1.788  1.00  0.00    -0.174 NA
HETATM    3  N   UNL     1      40.592 -16.893   0.972  1.00  0.00    -0.272 N 
HETATM    4  H   UNL     1      39.598 -16.701   0.881  1.00  0.00     0.189 HD
HETATM    5  C   UNL     1      41.606 -16.249   0.321  1.00  0.00     0.121 A 
HETATM    6  C   UNL     1      42.754 -16.869   0.770  1.00  0.00     0.071 A 
ENDROOT
BRANCH   5   7
HETATM    7  C   UNL     1      41.330 -15.179  -0.605  1.00  0.00     0.289 C 
HETATM    8  N   UNL     1      41.775 -13.929  -0.200  1.00  0.00    -0.242 N 
HETATM    9  H   UNL     1      42.249 -13.815   0.686  1.00  0.00     0.192 HD
HETATM   10  O   UNL     1      40.748 -15.396  -1.665  1.00  0.00    -0.264 OA
BRANCH   8  11
HETATM   11  N   UNL     1      41.606 -12.849  -1.016  1.00  0.00    -0.184 NA
HETATM   12  C   UNL     1      42.606 -12.560  -1.787  1.00  0.00     0.150 C 
BRANCH  12  13
HETATM   13  C   UNL     1      42.546 -11.430  -2.735  1.00  0.00    -0.017 A 
HETATM   14  C   UNL     1      42.647 -10.114  -2.291  1.00  0.00     0.015 A 
HETATM   15  C   UNL     1      42.560  -9.056  -3.205  1.00  0.00     0.030 A 
HETATM   16  C   UNL     1      42.384  -9.279  -4.581  1.00  0.00     0.029 A 
HETATM   17  C   UNL     1      42.279 -10.621  -4.995  1.00  0.00     0.030 A 
HETATM   18  C   UNL     1      42.361 -11.689  -4.092  1.00  0.00     0.015 A 
BRANCH  16  19
HETATM   19  N   UNL     1      42.265  -8.242  -5.518  1.00  0.00    -0.390 N 
HETATM   20  C   UNL     1      40.910  -7.705  -5.676  1.00  0.00     0.149 C 
HETATM   21  C   UNL     1      43.021  -8.346  -6.767  1.00  0.00     0.149 C 
ENDBRANCH  16  19
ENDBRANCH  12  13
ENDBRANCH   8  11
ENDBRANCH   5   7
BRANCH   1  22
HETATM   22  C   UNL     1      43.155 -18.828   2.455  1.00  0.00     0.028 A 
HETATM   23  C   UNL     1      43.556 -18.614   3.792  1.00  0.00     0.081 A 
HETATM   24  C   UNL     1      44.344 -19.583   4.436  1.00  0.00     0.038 A 
HETATM   25  C   UNL     1      44.725 -20.754   3.776  1.00  0.00     0.003 A 
HETATM   26  C   UNL     1      44.325 -20.974   2.464  1.00  0.00     0.001 A 
HETATM   27  C   UNL     1      43.547 -20.020   1.812  1.00  0.00     0.017 A 
BRANCH  23  28
HETATM   28  O   UNL     1      43.142 -17.455   4.400  1.00  0.00    -0.350 OA
BRANCH  28  29
HETATM   29  C   UNL     1      42.114 -17.546   5.386  1.00  0.00     0.175 C 
BRANCH  29  30
HETATM   30  C   UNL     1      41.341 -16.230   5.373  1.00  0.00     0.022 C 
HETATM   31  C   UNL     1      41.830 -15.299   4.278  1.00  0.00     0.007 C 
ENDBRANCH  29  30
ENDBRANCH  28  29
ENDBRANCH  23  28
ENDBRANCH   1  22
TORSDOF 8
ENDMDL
MODEL 5
REMARK VINA RESULT:      -7.6      4.035     11.052
REMARK  8 active torsions:
REMARK  status: ('A' for Active; 'I' for Inactive)
REMARK    1  A    between atoms: C_2  and  C_3 
REMARK    2  A    between atoms: C_3  and  O_4 
REMARK    3  A    between atoms: O_4  and  C_5 
REMARK    4  A    between atoms: C_6  and  C_7 
REMARK    5  A    between atoms: C_11  and  C_12 
REMARK       I    between atoms: C_12  and  N_13 
REMARK    6  A    between atoms: N_13  and  N_14 
REMARK    7  A    between atoms: C_15  and  C_16 
REMARK    8  A    between atoms: C_19  and  N_20 
ROOT
HETATM    1  C   UNL     1      43.863 -18.148   2.739  1.00  0.00     0.092 A 
HETATM    2  N   UNL     1      44.294 -17.530   1.624  1.00  0.00    -0.174 NA
HETATM    3  N   UNL     1      43.933 -16.250   1.784  1.00  0.00    -0.272 N 
HETATM    4  H   UNL     1      44.150 -15.580   1.051  1.00  0.00     0.189 HD
HETATM    5  C   UNL     1      43.303 -15.984   2.967  1.00  0.00     0.121 A 
HETATM    6  C   UNL     1      43.249 -17.203   3.611  1.00  0.00     0.071 A 
ENDROOT
BRANCH   5   7
HETATM    7  C   UNL     1      42.869 -14.648   3.291  1.00  0.00     0.289 C 
HETATM    8  N   UNL     1      41.670 -14.578   3.986  1.00  0.00    -0.242 N 
HETATM    9  H   UNL     1      41.165 -15.421   4.225  1.00  0.00     0.192 HD
HETATM   10  O   UNL     1      43.538 -13.671   2.966  1.00  0.00    -0.264 OA
BRANCH   8  11
HETATM   11  N   UNL     1      41.184 -13.367   4.383  1.00  0.00    -0.184 NA
HETATM   12  C   UNL     1      41.261 -13.114   5.651  1.00  0.00     0.150 C 
BRANCH  12  13
HETATM   13  C   UNL     1      40.793 -11.830   6.209  1.00  0.00    -0.017 A 
HETATM   14  C   UNL     1      39.868 -11.795   7.252  1.00  0.00     0.015 A 
HETATM   15  C   UNL     1      39.417 -10.566   7.748  1.00  0.00     0.030 A 
HETATM   16  C   UNL     1      39.881  -9.344   7.233  1.00  0.00     0.029 A 
HETATM   17  C   UNL     1      40.809  -9.415   6.177  1.00  0.00     0.030 A 
HETATM   18  C   UNL     1      41.267 -10.638   5.667  1.00  0.00     0.015 A 
BRANCH  16  19
HETATM   19  N   UNL     1      39.428  -8.097   7.689  1.00  0.00    -0.390 N 
HETATM   20  C   UNL     1      39.519  -7.900   9.139  1.00  0.00     0.149 C 
HETATM   21  C   UNL     1      38.224  -7.531   7.079  1.00  0.00     0.149 C 
ENDBRANCH  16  19
ENDBRANCH  12  13
ENDBRANCH   8  11
ENDBRANCH   5   7
BRANCH   1  22
HETATM   22  C   UNL     1      44.083 -19.589   2.941  1.00  0.00     0.028 A 
HETATM   23  C   UNL     1      44.623 -20.130   4.128  1.00  0.00     0.081 A 
HETATM   24  C   UNL     1      44.806 -21.519   4.229  1.00  0.00     0.038 A 
HETATM   25  C   UNL     1      44.452 -22.369   3.178  1.00  0.00     0.003 A 
HETATM   26  C   UNL     1      43.911 -21.844   2.012  1.00  0.00     0.001 A 
HETATM   27  C   UNL     1      43.728 -20.467   1.897  1.00  0.00     0.017 A 
BRANCH  23  28
HETATM   28  O   UNL     1      44.940 -19.254   5.137  1.00  0.00    -0.350 OA
BRANCH  28  29
HETATM   29  C   UNL     1      44.289 -19.419   6.396  1.00  0.00     0.175 C 
BRANCH  29  30
HETATM   30  C   UNL     1      44.463 -18.122   7.181  1.00  0.00     0.022 C 
HETATM   31  C   UNL     1      43.134 -17.578   7.674  1.00  0.00     0.007 C 
ENDBRANCH  29  30
ENDBRANCH  28  29
ENDBRANCH  23  28
ENDBRANCH   1  22
TORSDOF 8
ENDMDL
MODEL 6
REMARK VINA RESULT:      -7.5      2.669      4.098
REMARK  8 active torsions:
REMARK  status: ('A' for Active; 'I' for Inactive)
REMARK    1  A    between atoms: C_2  and  C_3 
REMARK    2  A    between atoms: C_3  and  O_4 
REMARK    3  A    between atoms: O_4  and  C_5 
REMARK    4  A    between atoms: C_6  and  C_7 
REMARK    5  A    between atoms: C_11  and  C_12 
REMARK       I    between atoms: C_12  and  N_13 
REMARK    6  A    between atoms: N_13  and  N_14 
REMARK    7  A    between atoms: C_15  and  C_16 
REMARK    8  A    between atoms: C_19  and  N_20 
ROOT
HETATM    1  C   UNL     1      40.223 -11.174   7.309  1.00  0.00     0.092 A 
HETATM    2  N   UNL     1      39.193 -12.009   7.535  1.00  0.00    -0.174 NA
HETATM    3  N   UNL     1      39.462 -13.090   6.792  1.00  0.00    -0.272 N 
HETATM    4  H   UNL     1      38.808 -13.868   6.796  1.00  0.00     0.189 HD
HETATM    5  C   UNL     1      40.638 -13.021   6.101  1.00  0.00     0.121 A 
HETATM    6  C   UNL     1      41.158 -11.785   6.424  1.00  0.00     0.071 A 
ENDROOT
BRANCH   5   7
HETATM    7  C   UNL     1      41.074 -14.115   5.269  1.00  0.00     0.289 C 
HETATM    8  N   UNL     1      42.387 -14.515   5.474  1.00  0.00    -0.242 N 
HETATM    9  H   UNL     1      42.965 -14.048   6.160  1.00  0.00     0.192 HD
HETATM   10  O   UNL     1      40.312 -14.633   4.456  1.00  0.00    -0.264 OA
BRANCH   8  11
HETATM   11  N   UNL     1      42.894 -15.570   4.772  1.00  0.00    -0.184 NA
HETATM   12  C   UNL     1      42.796 -16.728   5.342  1.00  0.00     0.150 C 
BRANCH  12  13
HETATM   13  C   UNL     1      43.284 -17.955   4.681  1.00  0.00    -0.017 A 
HETATM   14  C   UNL     1      42.874 -18.287   3.392  1.00  0.00     0.015 A 
HETATM   15  C   UNL     1      43.327 -19.470   2.794  1.00  0.00     0.030 A 
HETATM   16  C   UNL     1      44.208 -20.342   3.454  1.00  0.00     0.029 A 
HETATM   17  C   UNL     1      44.599 -19.979   4.758  1.00  0.00     0.030 A 
HETATM   18  C   UNL     1      44.150 -18.802   5.370  1.00  0.00     0.015 A 
BRANCH  16  19
HETATM   19  N   UNL     1      44.659 -21.547   2.894  1.00  0.00    -0.390 N 
HETATM   20  C   UNL     1      44.127 -21.846   1.561  1.00  0.00     0.149 C 
HETATM   21  C   UNL     1      44.784 -22.714   3.768  1.00  0.00     0.149 C 
ENDBRANCH  16  19
ENDBRANCH  12  13
ENDBRANCH   8  11
ENDBRANCH   5   7
BRANCH   1  22
HETATM   22  C   UNL     1      40.292  -9.858   7.967  1.00  0.00     0.028 A 
HETATM   23  C   UNL     1      41.025  -9.623   9.151  1.00  0.00     0.081 A 
HETATM   24  C   UNL     1      41.027  -8.335   9.713  1.00  0.00     0.038 A 
HETATM   25  C   UNL     1      40.325  -7.288   9.111  1.00  0.00     0.003 A 
HETATM   26  C   UNL     1      39.611  -7.511   7.942  1.00  0.00     0.001 A 
HETATM   27  C   UNL     1      39.596  -8.785   7.376  1.00  0.00     0.017 A 
BRANCH  23  28
HETATM   28  O   UNL     1      41.710 -10.682   9.693  1.00  0.00    -0.350 OA
BRANCH  28  29
HETATM   29  C   UNL     1      41.545 -10.943  11.087  1.00  0.00     0.175 C 
BRANCH  29  30
HETATM   30  C   UNL     1      42.913 -11.312  11.654  1.00  0.00     0.022 C 
HETATM   31  C   UNL     1      43.733 -10.081  11.995  1.00  0.00     0.007 C 
ENDBRANCH  29  30
ENDBRANCH  28  29
ENDBRANCH  23  28
ENDBRANCH   1  22
TORSDOF 8
ENDMDL
MODEL 7
REMARK VINA RESULT:      -7.5      6.752     11.788
REMARK  8 active torsions:
REMARK  status: ('A' for Active; 'I' for Inactive)
REMARK    1  A    between atoms: C_2  and  C_3 
REMARK    2  A    between atoms: C_3  and  O_4 
REMARK    3  A    between atoms: O_4  and  C_5 
REMARK    4  A    between atoms: C_6  and  C_7 
REMARK    5  A    between atoms: C_11  and  C_12 
REMARK       I    between atoms: C_12  and  N_13 
REMARK    6  A    between atoms: N_13  and  N_14 
REMARK    7  A    between atoms: C_15  and  C_16 
REMARK    8  A    between atoms: C_19  and  N_20 
ROOT
HETATM    1  C   UNL     1      43.464 -18.490   2.144  1.00  0.00     0.092 A 
HETATM    2  N   UNL     1      44.283 -17.718   1.408  1.00  0.00    -0.174 NA
HETATM    3  N   UNL     1      43.573 -16.612   1.155  1.00  0.00    -0.272 N 
HETATM    4  H   UNL     1      43.991 -15.872   0.597  1.00  0.00     0.189 HD
HETATM    5  C   UNL     1      42.325 -16.603   1.711  1.00  0.00     0.121 A 
HETATM    6  C   UNL     1      42.230 -17.814   2.366  1.00  0.00     0.071 A 
ENDROOT
BRANCH   5   7
HETATM    7  C   UNL     1      41.446 -15.473   1.541  1.00  0.00     0.289 C 
HETATM    8  N   UNL     1      40.114 -15.798   1.328  1.00  0.00    -0.242 N 
HETATM    9  H   UNL     1      39.820 -16.765   1.297  1.00  0.00     0.192 HD
HETATM   10  O   UNL     1      41.878 -14.324   1.593  1.00  0.00    -0.264 OA
BRANCH   8  11
HETATM   11  N   UNL     1      39.185 -14.807   1.196  1.00  0.00    -0.184 NA
HETATM   12  C   UNL     1      39.051 -14.312   0.008  1.00  0.00     0.150 C 
BRANCH  12  13
HETATM   13  C   UNL     1      38.065 -13.251  -0.277  1.00  0.00    -0.017 A 
HETATM   14  C   UNL     1      37.918 -12.734  -1.563  1.00  0.00     0.015 A 
HETATM   15  C   UNL     1      36.995 -11.708  -1.805  1.00  0.00     0.030 A 
HETATM   16  C   UNL     1      36.189 -11.181  -0.783  1.00  0.00     0.029 A 
HETATM   17  C   UNL     1      36.367 -11.722   0.505  1.00  0.00     0.030 A 
HETATM   18  C   UNL     1      37.288 -12.745   0.763  1.00  0.00     0.015 A 
BRANCH  16  19
HETATM   19  N   UNL     1      35.275 -10.135  -0.987  1.00  0.00    -0.390 N 
HETATM   20  C   UNL     1      34.969  -9.342   0.207  1.00  0.00     0.149 C 
HETATM   21  C   UNL     1      34.126 -10.380  -1.860  1.00  0.00     0.149 C 
ENDBRANCH  16  19
ENDBRANCH  12  13
ENDBRANCH   8  11
ENDBRANCH   5   7
BRANCH   1  22
HETATM   22  C   UNL     1      43.898 -19.810   2.631  1.00  0.00     0.028 A 
HETATM   23  C   UNL     1      44.435 -20.021   3.919  1.00  0.00     0.081 A 
HETATM   24  C   UNL     1      44.831 -21.316   4.295  1.00  0.00     0.038 A 
HETATM   25  C   UNL     1      44.689 -22.393   3.418  1.00  0.00     0.003 A 
HETATM   26  C   UNL     1      44.152 -22.194   2.153  1.00  0.00     0.001 A 
HETATM   27  C   UNL     1      43.760 -20.914   1.765  1.00  0.00     0.017 A 
BRANCH  23  28
HETATM   28  O   UNL     1      44.539 -18.932   4.749  1.00  0.00    -0.350 OA
BRANCH  28  29
HETATM   29  C   UNL     1      43.694 -18.883   5.899  1.00  0.00     0.175 C 
BRANCH  29  30
HETATM   30  C   UNL     1      44.429 -18.096   6.981  1.00  0.00     0.022 C 
HETATM   31  C   UNL     1      43.467 -17.467   7.972  1.00  0.00     0.007 C 
ENDBRANCH  29  30
ENDBRANCH  28  29
ENDBRANCH  23  28
ENDBRANCH   1  22
TORSDOF 8
ENDMDL
MODEL 8
REMARK VINA RESULT:      -7.5      7.909     11.497
REMARK  8 active torsions:
REMARK  status: ('A' for Active; 'I' for Inactive)
REMARK    1  A    between atoms: C_2  and  C_3 
REMARK    2  A    between atoms: C_3  and  O_4 
REMARK    3  A    between atoms: O_4  and  C_5 
REMARK    4  A    between atoms: C_6  and  C_7 
REMARK    5  A    between atoms: C_11  and  C_12 
REMARK       I    between atoms: C_12  and  N_13 
REMARK    6  A    between atoms: N_13  and  N_14 
REMARK    7  A    between atoms: C_15  and  C_16 
REMARK    8  A    between atoms: C_19  and  N_20 
ROOT
HETATM    1  C   UNL     1      42.588 -16.384   3.475  1.00  0.00     0.092 A 
HETATM    2  N   UNL     1      43.211 -15.747   2.467  1.00  0.00    -0.174 NA
HETATM    3  N   UNL     1      42.221 -15.283   1.694  1.00  0.00    -0.272 N 
HETATM    4  H   UNL     1      42.453 -14.764   0.852  1.00  0.00     0.189 HD
HETATM    5  C   UNL     1      40.966 -15.561   2.157  1.00  0.00     0.121 A 
HETATM    6  C   UNL     1      41.176 -16.274   3.319  1.00  0.00     0.071 A 
ENDROOT
BRANCH   5   7
HETATM    7  C   UNL     1      39.797 -15.112   1.443  1.00  0.00     0.289 C 
HETATM    8  N   UNL     1      40.047 -14.610   0.174  1.00  0.00    -0.242 N 
HETATM    9  H   UNL     1      40.991 -14.574  -0.187  1.00  0.00     0.192 HD
HETATM   10  O   UNL     1      38.680 -15.189   1.949  1.00  0.00    -0.264 OA
BRANCH   8  11
HETATM   11  N   UNL     1      39.010 -14.195  -0.610  1.00  0.00    -0.184 NA
HETATM   12  C   UNL     1      39.174 -14.337  -1.887  1.00  0.00     0.150 C 
BRANCH  12  13
HETATM   13  C   UNL     1      38.120 -13.949  -2.845  1.00  0.00    -0.017 A 
HETATM   14  C   UNL     1      37.439 -14.910  -3.591  1.00  0.00     0.015 A 
HETATM   15  C   UNL     1      36.462 -14.518  -4.515  1.00  0.00     0.030 A 
HETATM   16  C   UNL     1      36.128 -13.168  -4.710  1.00  0.00     0.029 A 
HETATM   17  C   UNL     1      36.838 -12.223  -3.945  1.00  0.00     0.030 A 
HETATM   18  C   UNL     1      37.821 -12.600  -3.021  1.00  0.00     0.015 A 
BRANCH  16  19
HETATM   19  N   UNL     1      35.173 -12.741  -5.647  1.00  0.00    -0.390 N 
HETATM   20  C   UNL     1      33.855 -12.430  -5.087  1.00  0.00     0.149 C 
HETATM   21  C   UNL     1      35.133 -13.410  -6.948  1.00  0.00     0.149 C 
ENDBRANCH  16  19
ENDBRANCH  12  13
ENDBRANCH   8  11
ENDBRANCH   5   7
BRANCH   1  22
HETATM   22  C   UNL     1      43.354 -17.033   4.552  1.00  0.00     0.028 A 
HETATM   23  C   UNL     1      43.720 -18.396   4.528  1.00  0.00     0.081 A 
HETATM   24  C   UNL     1      44.445 -18.932   5.606  1.00  0.00     0.038 A 
HETATM   25  C   UNL     1      44.816 -18.133   6.690  1.00  0.00     0.003 A 
HETATM   26  C   UNL     1      44.468 -16.790   6.714  1.00  0.00     0.001 A 
HETATM   27  C   UNL     1      43.745 -16.246   5.654  1.00  0.00     0.017 A 
BRANCH  23  28
HETATM   28  O   UNL     1      43.344 -19.135   3.433  1.00  0.00    -0.350 OA
BRANCH  28  29
HETATM   29  C   UNL     1      44.342 -19.446   2.461  1.00  0.00     0.175 C 
BRANCH  29  30
HETATM   30  C   UNL     1      44.599 -20.949   2.525  1.00  0.00     0.022 C 
HETATM   31  C   UNL     1      43.549 -21.734   1.760  1.00  0.00     0.007 C 
ENDBRANCH  29  30
ENDBRANCH  28  29
ENDBRANCH  23  28
ENDBRANCH   1  22
TORSDOF 8
ENDMDL
MODEL 9
REMARK VINA RESULT:      -7.3      8.258     11.787
REMARK  8 active torsions:
REMARK  status: ('A' for Active; 'I' for Inactive)
REMARK    1  A    between atoms: C_2  and  C_3 
REMARK    2  A    between atoms: C_3  and  O_4 
REMARK    3  A    between atoms: O_4  and  C_5 
REMARK    4  A    between atoms: C_6  and  C_7 
REMARK    5  A    between atoms: C_11  and  C_12 
REMARK       I    between atoms: C_12  and  N_13 
REMARK    6  A    between atoms: N_13  and  N_14 
REMARK    7  A    between atoms: C_15  and  C_16 
REMARK    8  A    between atoms: C_19  and  N_20 
ROOT
HETATM    1  C   UNL     1      42.589 -16.950   2.348  1.00  0.00     0.092 A 
HETATM    2  N   UNL     1      43.144 -15.728   2.265  1.00  0.00    -0.174 NA
HETATM    3  N   UNL     1      42.198 -14.961   1.708  1.00  0.00    -0.272 N 
HETATM    4  H   UNL     1      42.395 -13.979   1.536  1.00  0.00     0.189 HD
HETATM    5  C   UNL     1      41.029 -15.614   1.439  1.00  0.00     0.121 A 
HETATM    6  C   UNL     1      41.254 -16.912   1.851  1.00  0.00     0.071 A 
ENDROOT
BRANCH   5   7
HETATM    7  C   UNL     1      39.910 -14.919   0.853  1.00  0.00     0.289 C 
HETATM    8  N   UNL     1      39.937 -14.834  -0.531  1.00  0.00    -0.242 N 
HETATM    9  H   UNL     1      40.701 -15.237  -1.055  1.00  0.00     0.192 HD
HETATM   10  O   UNL     1      39.016 -14.455   1.558  1.00  0.00    -0.264 OA
BRANCH   8  11
HETATM   11  N   UNL     1      38.907 -14.235  -1.196  1.00  0.00    -0.184 NA
HETATM   12  C   UNL     1      38.880 -14.414  -2.478  1.00  0.00     0.150 C 
BRANCH  12  13
HETATM   13  C   UNL     1      37.807 -13.839  -3.313  1.00  0.00    -0.017 A 
HETATM   14  C   UNL     1      36.948 -14.660  -4.041  1.00  0.00     0.015 A 
HETATM   15  C   UNL     1      35.954 -14.092  -4.849  1.00  0.00     0.030 A 
HETATM   16  C   UNL     1      35.780 -12.702  -4.943  1.00  0.00     0.029 A 
HETATM   17  C   UNL     1      36.669 -11.902  -4.199  1.00  0.00     0.030 A 
HETATM   18  C   UNL     1      37.670 -12.455  -3.390  1.00  0.00     0.015 A 
BRANCH  16  19
HETATM   19  N   UNL     1      34.812 -12.102  -5.764  1.00  0.00    -0.390 N 
HETATM   20  C   UNL     1      33.610 -11.639  -5.064  1.00  0.00     0.149 C 
HETATM   21  C   UNL     1      34.555 -12.694  -7.077  1.00  0.00     0.149 C 
ENDBRANCH  16  19
ENDBRANCH  12  13
ENDBRANCH   8  11
ENDBRANCH   5   7
BRANCH   1  22
HETATM   22  C   UNL     1      43.332 -18.084   2.924  1.00  0.00     0.028 A 
HETATM   23  C   UNL     1      43.743 -18.133   4.274  1.00  0.00     0.081 A 
HETATM   24  C   UNL     1      44.455 -19.253   4.734  1.00  0.00     0.038 A 
HETATM   25  C   UNL     1      44.750 -20.318   3.880  1.00  0.00     0.003 A 
HETATM   26  C   UNL     1      44.339 -20.280   2.554  1.00  0.00     0.001 A 
HETATM   27  C   UNL     1      43.636 -19.173   2.082  1.00  0.00     0.017 A 
BRANCH  23  28
HETATM   28  O   UNL     1      43.415 -17.068   5.076  1.00  0.00    -0.350 OA
BRANCH  28  29
HETATM   29  C   UNL     1      42.603 -17.319   6.223  1.00  0.00     0.175 C 
BRANCH  29  30
HETATM   30  C   UNL     1      41.144 -17.165   5.801  1.00  0.00     0.022 C 
HETATM   31  C   UNL     1      40.763 -15.708   5.607  1.00  0.00     0.007 C 
ENDBRANCH  29  30
ENDBRANCH  28  29
ENDBRANCH  23  28
ENDBRANCH   1  22
TORSDOF 8
ENDMDL
MODEL 10
REMARK VINA RESULT:      -7.2      7.227     10.785
REMARK  8 active torsions:
REMARK  status: ('A' for Active; 'I' for Inactive)
REMARK    1  A    between atoms: C_2  and  C_3 
REMARK    2  A    between atoms: C_3  and  O_4 
REMARK    3  A    between atoms: O_4  and  C_5 
REMARK    4  A    between atoms: C_6  and  C_7 
REMARK    5  A    between atoms: C_11  and  C_12 
REMARK       I    between atoms: C_12  and  N_13 
REMARK    6  A    between atoms: N_13  and  N_14 
REMARK    7  A    between atoms: C_15  and  C_16 
REMARK    8  A    between atoms: C_19  and  N_20 
ROOT
HETATM    1  C   UNL     1      42.208 -16.187   4.749  1.00  0.00     0.092 A 
HETATM    2  N   UNL     1      40.884 -16.095   4.527  1.00  0.00    -0.174 NA
HETATM    3  N   UNL     1      40.747 -15.033   3.722  1.00  0.00    -0.272 N 
HETATM    4  H   UNL     1      39.817 -14.758   3.420  1.00  0.00     0.189 HD
HETATM    5  C   UNL     1      41.924 -14.429   3.380  1.00  0.00     0.121 A 
HETATM    6  C   UNL     1      42.893 -15.165   4.031  1.00  0.00     0.071 A 
ENDROOT
BRANCH   5   7
HETATM    7  C   UNL     1      41.941 -13.283   2.505  1.00  0.00     0.289 C 
HETATM    8  N   UNL     1      42.160 -13.575   1.167  1.00  0.00    -0.242 N 
HETATM    9  H   UNL     1      42.297 -14.530   0.866  1.00  0.00     0.192 HD
HETATM   10  O   UNL     1      41.766 -12.150   2.947  1.00  0.00    -0.264 OA
BRANCH   8  11
HETATM   11  N   UNL     1      42.155 -12.571   0.242  1.00  0.00    -0.184 NA
HETATM   12  C   UNL     1      42.435 -12.920  -0.973  1.00  0.00     0.150 C 
BRANCH  12  13
HETATM   13  C   UNL     1      42.442 -11.936  -2.074  1.00  0.00    -0.017 A 
HETATM   14  C   UNL     1      42.163 -12.323  -3.383  1.00  0.00     0.015 A 
HETATM   15  C   UNL     1      42.201 -11.378  -4.417  1.00  0.00     0.030 A 
HETATM   16  C   UNL     1      42.503 -10.028  -4.174  1.00  0.00     0.029 A 
HETATM   17  C   UNL     1      42.785  -9.673  -2.841  1.00  0.00     0.030 A 
HETATM   18  C   UNL     1      42.754 -10.607  -1.798  1.00  0.00     0.015 A 
BRANCH  16  19
HETATM   19  N   UNL     1      42.576  -9.063  -5.191  1.00  0.00    -0.390 N 
HETATM   20  C   UNL     1      42.386  -7.680  -4.744  1.00  0.00     0.149 C 
HETATM   21  C   UNL     1      41.959  -9.369  -6.482  1.00  0.00     0.149 C 
ENDBRANCH  16  19
ENDBRANCH  12  13
ENDBRANCH   8  11
ENDBRANCH   5   7
BRANCH   1  22
HETATM   22  C   UNL     1      42.762 -17.255   5.597  1.00  0.00     0.028 A 
HETATM   23  C   UNL     1      43.116 -18.529   5.103  1.00  0.00     0.081 A 
HETATM   24  C   UNL     1      43.632 -19.491   5.989  1.00  0.00     0.038 A 
HETATM   25  C   UNL     1      43.808 -19.198   7.344  1.00  0.00     0.003 A 
HETATM   26  C   UNL     1      43.471 -17.943   7.833  1.00  0.00     0.001 A 
HETATM   27  C   UNL     1      42.954 -16.981   6.967  1.00  0.00     0.017 A 
BRANCH  23  28
HETATM   28  O   UNL     1      42.938 -18.762   3.762  1.00  0.00    -0.350 OA
BRANCH  28  29
HETATM   29  C   UNL     1      43.996 -19.399   3.046  1.00  0.00     0.175 C 
BRANCH  29  30
HETATM   30  C   UNL     1      43.364 -20.291   1.981  1.00  0.00     0.022 C 
HETATM   31  C   UNL     1      44.078 -21.626   1.866  1.00  0.00     0.007 C 
ENDBRANCH  29  30
ENDBRANCH  28  29
ENDBRANCH  23  28
ENDBRANCH   1  22
TORSDOF 8
ENDMDL
