MODEL 1
REMARK VINA RESULT:      -8.0      0.000      0.000
REMARK  9 active torsions:
REMARK  status: ('A' for Active; 'I' for Inactive)
REMARK    1  A    between atoms: C_2  and  C_3 
REMARK    2  A    between atoms: C_3  and  O_4 
REMARK    3  A    between atoms: O_4  and  C_5 
REMARK    4  A    between atoms: C_8  and  C_9 
REMARK    5  A    between atoms: N_11  and  C_12 
REMARK    6  A    between atoms: C_19  and  C_20 
REMARK    7  A    between atoms: C_20  and  S_21 
REMARK    8  A    between atoms: S_21  and  C_22 
REMARK    9  A    between atoms: C_22  and  N_23 
ROOT
HETATM    1  C   UNL     1      41.993 -16.382   2.126  1.00  0.00     0.096 C 
HETATM    2  N   UNL     1      42.188 -17.689   1.920  1.00  0.00    -0.167 NA
HETATM    3  N   UNL     1      43.058 -18.100   2.869  1.00  0.00    -0.244 N 
HETATM    4  C   UNL     1      43.266 -17.104   3.795  1.00  0.00     0.129 C 
HETATM    5  C   UNL     1      42.572 -15.985   3.372  1.00  0.00     0.001 C 
ENDROOT
BRANCH   1   6
HETATM    6  C   UNL     1      41.142 -15.615   1.212  1.00  0.00    -0.005 A 
HETATM    7  C   UNL     1      41.579 -15.352  -0.095  1.00  0.00     0.016 A 
HETATM    8  C   UNL     1      40.754 -14.688  -1.011  1.00  0.00     0.037 A 
HETATM    9  C   UNL     1      39.478 -14.279  -0.633  1.00  0.00     0.068 A 
HETATM   10  C   UNL     1      39.057 -14.493   0.681  1.00  0.00     0.037 A 
HETATM   11  C   UNL     1      39.883 -15.147   1.602  1.00  0.00     0.016 A 
BRANCH   9  12
HETATM   12  O   UNL     1      38.558 -13.665  -1.432  1.00  0.00    -0.351 OA
BRANCH  12  13
HETATM   13  C   UNL     1      38.737 -13.778  -2.847  1.00  0.00     0.179 C 
BRANCH  13  14
HETATM   14  C   UNL     1      37.941 -14.991  -3.351  1.00  0.00     0.002 C 
HETATM   15  C   UNL     1      38.843 -15.959  -4.121  1.00  0.00     0.011 C 
HETATM   16  C   UNL     1      36.779 -14.536  -4.232  1.00  0.00     0.011 C 
ENDBRANCH  13  14
ENDBRANCH  12  13
ENDBRANCH   9  12
ENDBRANCH   1   6
BRANCH   5  17
HETATM   17  C   UNL     1      42.467 -14.694   4.108  1.00  0.00     0.125 C 
BRANCH  17  18
HETATM   18  S   UNL     1      42.116 -14.909   5.880  1.00  0.00    -0.090 SA
BRANCH  18  19
HETATM   19  C   UNL     1      40.491 -15.453   5.858  1.00  0.00     0.131 C 
HETATM   20  N   UNL     1      39.582 -14.659   5.353  1.00  0.00    -0.380 N 
HETATM   21  H   UNL     1      39.878 -13.761   4.987  1.00  0.00     0.158 HD
HETATM   22  H   UNL     1      38.609 -14.918   5.274  1.00  0.00     0.158 HD
BRANCH  19  23
HETATM   23  N   UNL     1      40.199 -16.651   6.293  1.00  0.00    -0.380 N 
HETATM   24  H   UNL     1      39.633 -17.259   5.707  1.00  0.00     0.158 HD
HETATM   25  H   UNL     1      40.507 -17.013   7.184  1.00  0.00     0.158 HD
ENDBRANCH  19  23
ENDBRANCH  18  19
ENDBRANCH  17  18
ENDBRANCH   5  17
BRANCH   3  26
HETATM   26  C   UNL     1      43.557 -19.432   2.879  1.00  0.00     0.058 A 
HETATM   27  C   UNL     1      43.252 -20.289   1.809  1.00  0.00     0.031 A 
HETATM   28  C   UNL     1      43.719 -21.605   1.805  1.00  0.00     0.002 A 
HETATM   29  C   UNL     1      44.492 -22.074   2.863  1.00  0.00     0.000 A 
HETATM   30  C   UNL     1      44.806 -21.228   3.926  1.00  0.00     0.002 A 
HETATM   31  C   UNL     1      44.343 -19.909   3.938  1.00  0.00     0.031 A 
ENDBRANCH   3  26
TORSDOF 9
ENDMDL
MODEL 2
REMARK VINA RESULT:      -8.0      0.211      1.139
REMARK  9 active torsions:
REMARK  status: ('A' for Active; 'I' for Inactive)
REMARK    1  A    between atoms: C_2  and  C_3 
REMARK    2  A    between atoms: C_3  and  O_4 
REMARK    3  A    between atoms: O_4  and  C_5 
REMARK    4  A    between atoms: C_8  and  C_9 
REMARK    5  A    between atoms: N_11  and  C_12 
REMARK    6  A    between atoms: C_19  and  C_20 
REMARK    7  A    between atoms: C_20  and  S_21 
REMARK    8  A    between atoms: S_21  and  C_22 
REMARK    9  A    between atoms: C_22  and  N_23 
ROOT
HETATM    1  C   UNL     1      42.092 -16.441   2.251  1.00  0.00     0.096 C 
HETATM    2  N   UNL     1      42.255 -17.748   2.012  1.00  0.00    -0.167 NA
HETATM    3  N   UNL     1      43.132 -18.199   2.936  1.00  0.00    -0.244 N 
HETATM    4  C   UNL     1      43.377 -17.229   3.880  1.00  0.00     0.129 C 
HETATM    5  C   UNL     1      42.702 -16.086   3.495  1.00  0.00     0.001 C 
ENDROOT
BRANCH   1   6
HETATM    6  C   UNL     1      41.243 -15.635   1.369  1.00  0.00    -0.005 A 
HETATM    7  C   UNL     1      41.725 -15.225   0.117  1.00  0.00     0.016 A 
HETATM    8  C   UNL     1      40.908 -14.520  -0.775  1.00  0.00     0.037 A 
HETATM    9  C   UNL     1      39.595 -14.216  -0.426  1.00  0.00     0.068 A 
HETATM   10  C   UNL     1      39.125 -14.577   0.839  1.00  0.00     0.037 A 
HETATM   11  C   UNL     1      39.943 -15.272   1.736  1.00  0.00     0.016 A 
BRANCH   9  12
HETATM   12  O   UNL     1      38.680 -13.576  -1.211  1.00  0.00    -0.351 OA
BRANCH  12  13
HETATM   13  C   UNL     1      38.872 -13.637  -2.627  1.00  0.00     0.179 C 
BRANCH  13  14
HETATM   14  C   UNL     1      38.159 -14.884  -3.171  1.00  0.00     0.002 C 
HETATM   15  C   UNL     1      39.132 -15.782  -3.939  1.00  0.00     0.011 C 
HETATM   16  C   UNL     1      36.991 -14.480  -4.068  1.00  0.00     0.011 C 
ENDBRANCH  13  14
ENDBRANCH  12  13
ENDBRANCH   9  12
ENDBRANCH   1   6
BRANCH   5  17
HETATM   17  C   UNL     1      42.637 -14.810   4.262  1.00  0.00     0.125 C 
BRANCH  17  18
HETATM   18  S   UNL     1      42.172 -15.047   6.005  1.00  0.00    -0.090 SA
BRANCH  18  19
HETATM   19  C   UNL     1      40.539 -15.548   5.873  1.00  0.00     0.131 C 
HETATM   20  N   UNL     1      40.220 -16.735   6.322  1.00  0.00    -0.380 N 
HETATM   21  H   UNL     1      40.949 -17.303   6.739  1.00  0.00     0.158 HD
HETATM   22  H   UNL     1      39.275 -17.091   6.311  1.00  0.00     0.158 HD
BRANCH  19  23
HETATM   23  N   UNL     1      39.645 -14.731   5.380  1.00  0.00    -0.380 N 
HETATM   24  H   UNL     1      39.590 -14.617   4.373  1.00  0.00     0.158 HD
HETATM   25  H   UNL     1      38.998 -14.202   5.948  1.00  0.00     0.158 HD
ENDBRANCH  19  23
ENDBRANCH  18  19
ENDBRANCH  17  18
ENDBRANCH   5  17
BRANCH   3  26
HETATM   26  C   UNL     1      43.601 -19.542   2.907  1.00  0.00     0.058 A 
HETATM   27  C   UNL     1      44.363 -20.027   3.981  1.00  0.00     0.031 A 
HETATM   28  C   UNL     1      44.847 -21.337   3.967  1.00  0.00     0.002 A 
HETATM   29  C   UNL     1      44.573 -22.170   2.887  1.00  0.00     0.000 A 
HETATM   30  C   UNL     1      43.810 -21.699   1.819  1.00  0.00     0.002 A 
HETATM   31  C   UNL     1      43.322 -20.389   1.825  1.00  0.00     0.031 A 
ENDBRANCH   3  26
TORSDOF 9
ENDMDL
MODEL 3
REMARK VINA RESULT:      -7.8      0.706      1.398
REMARK  9 active torsions:
REMARK  status: ('A' for Active; 'I' for Inactive)
REMARK    1  A    between atoms: C_2  and  C_3 
REMARK    2  A    between atoms: C_3  and  O_4 
REMARK    3  A    between atoms: O_4  and  C_5 
REMARK    4  A    between atoms: C_8  and  C_9 
REMARK    5  A    between atoms: N_11  and  C_12 
REMARK    6  A    between atoms: C_19  and  C_20 
REMARK    7  A    between atoms: C_20  and  S_21 
REMARK    8  A    between atoms: S_21  and  C_22 
REMARK    9  A    between atoms: C_22  and  N_23 
ROOT
HETATM    1  C   UNL     1      42.265 -16.679   2.497  1.00  0.00     0.096 C 
HETATM    2  N   UNL     1      42.412 -17.983   2.235  1.00  0.00    -0.167 NA
HETATM    3  N   UNL     1      43.322 -18.451   3.118  1.00  0.00    -0.244 N 
HETATM    4  C   UNL     1      43.609 -17.494   4.065  1.00  0.00     0.129 C 
HETATM    5  C   UNL     1      42.925 -16.343   3.721  1.00  0.00     0.001 C 
ENDROOT
BRANCH   1   6
HETATM    6  C   UNL     1      41.386 -15.858   1.660  1.00  0.00    -0.005 A 
HETATM    7  C   UNL     1      40.048 -15.661   2.033  1.00  0.00     0.016 A 
HETATM    8  C   UNL     1      39.209 -14.821   1.292  1.00  0.00     0.037 A 
HETATM    9  C   UNL     1      39.697 -14.163   0.167  1.00  0.00     0.068 A 
HETATM   10  C   UNL     1      41.013 -14.395  -0.239  1.00  0.00     0.037 A 
HETATM   11  C   UNL     1      41.851 -15.242   0.494  1.00  0.00     0.016 A 
BRANCH   9  12
HETATM   12  O   UNL     1      39.006 -13.287  -0.619  1.00  0.00    -0.351 OA
BRANCH  12  13
HETATM   13  C   UNL     1      37.934 -13.813  -1.405  1.00  0.00     0.179 C 
BRANCH  13  14
HETATM   14  C   UNL     1      38.516 -14.445  -2.678  1.00  0.00     0.002 C 
HETATM   15  C   UNL     1      39.310 -13.417  -3.488  1.00  0.00     0.011 C 
HETATM   16  C   UNL     1      37.401 -15.045  -3.532  1.00  0.00     0.011 C 
ENDBRANCH  13  14
ENDBRANCH  12  13
ENDBRANCH   9  12
ENDBRANCH   1   6
BRANCH   5  17
HETATM   17  C   UNL     1      42.897 -15.077   4.506  1.00  0.00     0.125 C 
BRANCH  17  18
HETATM   18  S   UNL     1      42.272 -15.302   6.201  1.00  0.00    -0.090 SA
BRANCH  18  19
HETATM   19  C   UNL     1      40.650 -15.779   5.922  1.00  0.00     0.131 C 
HETATM   20  N   UNL     1      40.338 -17.036   6.106  1.00  0.00    -0.380 N 
HETATM   21  H   UNL     1      41.064 -17.672   6.415  1.00  0.00     0.158 HD
HETATM   22  H   UNL     1      39.399 -17.390   5.994  1.00  0.00     0.158 HD
BRANCH  19  23
HETATM   23  N   UNL     1      39.757 -14.885   5.586  1.00  0.00    -0.380 N 
HETATM   24  H   UNL     1      39.974 -14.235   4.837  1.00  0.00     0.158 HD
HETATM   25  H   UNL     1      38.854 -14.803   6.031  1.00  0.00     0.158 HD
ENDBRANCH  19  23
ENDBRANCH  18  19
ENDBRANCH  17  18
ENDBRANCH   5  17
BRANCH   3  26
HETATM   26  C   UNL     1      43.783 -19.795   3.053  1.00  0.00     0.058 A 
HETATM   27  C   UNL     1      43.574 -20.537   1.880  1.00  0.00     0.031 A 
HETATM   28  C   UNL     1      44.005 -21.863   1.799  1.00  0.00     0.002 A 
HETATM   29  C   UNL     1      44.646 -22.455   2.883  1.00  0.00     0.000 A 
HETATM   30  C   UNL     1      44.864 -21.723   4.050  1.00  0.00     0.002 A 
HETATM   31  C   UNL     1      44.436 -20.395   4.139  1.00  0.00     0.031 A 
ENDBRANCH   3  26
TORSDOF 9
ENDMDL
MODEL 4
REMARK VINA RESULT:      -7.4      4.163      7.764
REMARK  9 active torsions:
REMARK  status: ('A' for Active; 'I' for Inactive)
REMARK    1  A    between atoms: C_2  and  C_3 
REMARK    2  A    between atoms: C_3  and  O_4 
REMARK    3  A    between atoms: O_4  and  C_5 
REMARK    4  A    between atoms: C_8  and  C_9 
REMARK    5  A    between atoms: N_11  and  C_12 
REMARK    6  A    between atoms: C_19  and  C_20 
REMARK    7  A    between atoms: C_20  and  S_21 
REMARK    8  A    between atoms: S_21  and  C_22 
REMARK    9  A    between atoms: C_22  and  N_23 
ROOT
HETATM    1  C   UNL     1      43.129 -16.735   4.631  1.00  0.00     0.096 C 
HETATM    2  N   UNL     1      43.850 -17.844   4.434  1.00  0.00    -0.167 NA
HETATM    3  N   UNL     1      43.204 -18.558   3.485  1.00  0.00    -0.244 N 
HETATM    4  C   UNL     1      42.181 -17.815   2.940  1.00  0.00     0.129 C 
HETATM    5  C   UNL     1      42.116 -16.619   3.629  1.00  0.00     0.001 C 
ENDROOT
BRANCH   1   6
HETATM    6  C   UNL     1      43.532 -15.772   5.660  1.00  0.00    -0.005 A 
HETATM    7  C   UNL     1      43.631 -16.180   6.999  1.00  0.00     0.016 A 
HETATM    8  C   UNL     1      44.087 -15.301   7.989  1.00  0.00     0.037 A 
HETATM    9  C   UNL     1      44.452 -14.001   7.652  1.00  0.00     0.068 A 
HETATM   10  C   UNL     1      44.307 -13.573   6.331  1.00  0.00     0.037 A 
HETATM   11  C   UNL     1      43.842 -14.447   5.341  1.00  0.00     0.016 A 
BRANCH   9  12
HETATM   12  O   UNL     1      44.950 -13.058   8.504  1.00  0.00    -0.351 OA
BRANCH  12  13
HETATM   13  C   UNL     1      44.139 -11.908   8.759  1.00  0.00     0.179 C 
BRANCH  13  14
HETATM   14  C   UNL     1      44.454 -11.382  10.168  1.00  0.00     0.002 C 
HETATM   15  C   UNL     1      45.868 -10.799  10.234  1.00  0.00     0.011 C 
HETATM   16  C   UNL     1      44.292 -12.497  11.200  1.00  0.00     0.011 C 
ENDBRANCH  13  14
ENDBRANCH  12  13
ENDBRANCH   9  12
ENDBRANCH   1   6
BRANCH   5  17
HETATM   17  C   UNL     1      41.194 -15.487   3.327  1.00  0.00     0.125 C 
BRANCH  17  18
HETATM   18  S   UNL     1      41.345 -14.879   1.619  1.00  0.00    -0.090 SA
BRANCH  18  19
HETATM   19  C   UNL     1      39.730 -14.990   1.057  1.00  0.00     0.131 C 
HETATM   20  N   UNL     1      39.479 -14.624  -0.173  1.00  0.00    -0.380 N 
HETATM   21  H   UNL     1      40.251 -14.300  -0.746  1.00  0.00     0.158 HD
HETATM   22  H   UNL     1      38.561 -14.689  -0.589  1.00  0.00     0.158 HD
BRANCH  19  23
HETATM   23  N   UNL     1      38.801 -15.477   1.837  1.00  0.00    -0.380 N 
HETATM   24  H   UNL     1      39.079 -15.947   2.694  1.00  0.00     0.158 HD
HETATM   25  H   UNL     1      37.813 -15.414   1.637  1.00  0.00     0.158 HD
ENDBRANCH  19  23
ENDBRANCH  18  19
ENDBRANCH  17  18
ENDBRANCH   5  17
BRANCH   3  26
HETATM   26  C   UNL     1      43.657 -19.850   3.103  1.00  0.00     0.058 A 
HETATM   27  C   UNL     1      44.454 -20.589   3.992  1.00  0.00     0.031 A 
HETATM   28  C   UNL     1      44.923 -21.855   3.631  1.00  0.00     0.002 A 
HETATM   29  C   UNL     1      44.599 -22.391   2.389  1.00  0.00     0.000 A 
HETATM   30  C   UNL     1      43.801 -21.667   1.503  1.00  0.00     0.002 A 
HETATM   31  C   UNL     1      43.328 -20.399   1.856  1.00  0.00     0.031 A 
ENDBRANCH   3  26
TORSDOF 9
ENDMDL
MODEL 5
REMARK VINA RESULT:      -7.4      1.651      2.004
REMARK  9 active torsions:
REMARK  status: ('A' for Active; 'I' for Inactive)
REMARK    1  A    between atoms: C_2  and  C_3 
REMARK    2  A    between atoms: C_3  and  O_4 
REMARK    3  A    between atoms: O_4  and  C_5 
REMARK    4  A    between atoms: C_8  and  C_9 
REMARK    5  A    between atoms: N_11  and  C_12 
REMARK    6  A    between atoms: C_19  and  C_20 
REMARK    7  A    between atoms: C_20  and  S_21 
REMARK    8  A    between atoms: S_21  and  C_22 
REMARK    9  A    between atoms: C_22  and  N_23 
ROOT
HETATM    1  C   UNL     1      42.593 -16.514   2.113  1.00  0.00     0.096 C 
HETATM    2  N   UNL     1      42.725 -17.829   1.904  1.00  0.00    -0.167 NA
HETATM    3  N   UNL     1      43.428 -18.314   2.952  1.00  0.00    -0.244 N 
HETATM    4  C   UNL     1      43.574 -17.347   3.921  1.00  0.00     0.129 C 
HETATM    5  C   UNL     1      43.022 -16.177   3.434  1.00  0.00     0.001 C 
ENDROOT
BRANCH   1   6
HETATM    6  C   UNL     1      41.928 -15.677   1.110  1.00  0.00    -0.005 A 
HETATM    7  C   UNL     1      41.562 -16.226  -0.128  1.00  0.00     0.016 A 
HETATM    8  C   UNL     1      40.859 -15.470  -1.073  1.00  0.00     0.037 A 
HETATM    9  C   UNL     1      40.512 -14.151  -0.793  1.00  0.00     0.068 A 
HETATM   10  C   UNL     1      40.919 -13.583   0.416  1.00  0.00     0.037 A 
HETATM   11  C   UNL     1      41.630 -14.334   1.359  1.00  0.00     0.016 A 
BRANCH   9  12
HETATM   12  O   UNL     1      39.794 -13.317  -1.601  1.00  0.00    -0.351 OA
BRANCH  12  13
HETATM   13  C   UNL     1      40.433 -12.115  -2.038  1.00  0.00     0.179 C 
BRANCH  13  14
HETATM   14  C   UNL     1      41.326 -12.439  -3.244  1.00  0.00     0.002 C 
HETATM   15  C   UNL     1      42.793 -12.568  -2.825  1.00  0.00     0.011 C 
HETATM   16  C   UNL     1      41.176 -11.365  -4.320  1.00  0.00     0.011 C 
ENDBRANCH  13  14
ENDBRANCH  12  13
ENDBRANCH   9  12
ENDBRANCH   1   6
BRANCH   5  17
HETATM   17  C   UNL     1      42.904 -14.892   4.180  1.00  0.00     0.125 C 
BRANCH  17  18
HETATM   18  S   UNL     1      42.245 -15.101   5.863  1.00  0.00    -0.090 SA
BRANCH  18  19
HETATM   19  C   UNL     1      40.617 -15.538   5.557  1.00  0.00     0.131 C 
HETATM   20  N   UNL     1      40.112 -16.541   6.227  1.00  0.00    -0.380 N 
HETATM   21  H   UNL     1      40.700 -17.011   6.906  1.00  0.00     0.158 HD
HETATM   22  H   UNL     1      39.153 -16.840   6.128  1.00  0.00     0.158 HD
BRANCH  19  23
HETATM   23  N   UNL     1      39.904 -14.841   4.710  1.00  0.00    -0.380 N 
HETATM   24  H   UNL     1      38.921 -14.683   4.913  1.00  0.00     0.158 HD
HETATM   25  H   UNL     1      40.276 -14.446   3.859  1.00  0.00     0.158 HD
ENDBRANCH  19  23
ENDBRANCH  18  19
ENDBRANCH  17  18
ENDBRANCH   5  17
BRANCH   3  26
HETATM   26  C   UNL     1      43.830 -19.677   2.998  1.00  0.00     0.058 A 
HETATM   27  C   UNL     1      43.580 -20.505   1.892  1.00  0.00     0.031 A 
HETATM   28  C   UNL     1      43.952 -21.851   1.921  1.00  0.00     0.002 A 
HETATM   29  C   UNL     1      44.576 -22.378   3.048  1.00  0.00     0.000 A 
HETATM   30  C   UNL     1      44.835 -21.561   4.148  1.00  0.00     0.002 A 
HETATM   31  C   UNL     1      44.466 -20.212   4.127  1.00  0.00     0.031 A 
ENDBRANCH   3  26
TORSDOF 9
ENDMDL
MODEL 6
REMARK VINA RESULT:      -7.4      2.617      7.766
REMARK  9 active torsions:
REMARK  status: ('A' for Active; 'I' for Inactive)
REMARK    1  A    between atoms: C_2  and  C_3 
REMARK    2  A    between atoms: C_3  and  O_4 
REMARK    3  A    between atoms: O_4  and  C_5 
REMARK    4  A    between atoms: C_8  and  C_9 
REMARK    5  A    between atoms: N_11  and  C_12 
REMARK    6  A    between atoms: C_19  and  C_20 
REMARK    7  A    between atoms: C_20  and  S_21 
REMARK    8  A    between atoms: S_21  and  C_22 
REMARK    9  A    between atoms: C_22  and  N_23 
ROOT
HETATM    1  C   UNL     1      41.969 -15.679   1.387  1.00  0.00     0.096 C 
HETATM    2  N   UNL     1      41.362 -15.784   0.199  1.00  0.00    -0.167 NA
HETATM    3  N   UNL     1      40.775 -14.590  -0.038  1.00  0.00    -0.244 N 
HETATM    4  C   UNL     1      41.169 -13.666   0.902  1.00  0.00     0.129 C 
HETATM    5  C   UNL     1      41.966 -14.318   1.824  1.00  0.00     0.001 C 
ENDROOT
BRANCH   1   6
HETATM    6  C   UNL     1      42.648 -16.840   1.968  1.00  0.00    -0.005 A 
HETATM    7  C   UNL     1      42.270 -17.311   3.234  1.00  0.00     0.016 A 
HETATM    8  C   UNL     1      42.851 -18.463   3.778  1.00  0.00     0.037 A 
HETATM    9  C   UNL     1      43.818 -19.161   3.061  1.00  0.00     0.068 A 
HETATM   10  C   UNL     1      44.235 -18.670   1.823  1.00  0.00     0.037 A 
HETATM   11  C   UNL     1      43.664 -17.513   1.281  1.00  0.00     0.016 A 
BRANCH   9  12
HETATM   12  O   UNL     1      44.432 -20.317   3.451  1.00  0.00    -0.351 OA
BRANCH  12  13
HETATM   13  C   UNL     1      45.159 -20.292   4.682  1.00  0.00     0.179 C 
BRANCH  13  14
HETATM   14  C   UNL     1      44.906 -21.607   5.434  1.00  0.00     0.002 C 
HETATM   15  C   UNL     1      44.504 -22.725   4.468  1.00  0.00     0.011 C 
HETATM   16  C   UNL     1      43.825 -21.412   6.496  1.00  0.00     0.011 C 
ENDBRANCH  13  14
ENDBRANCH  12  13
ENDBRANCH   9  12
ENDBRANCH   1   6
BRANCH   5  17
HETATM   17  C   UNL     1      42.663 -13.683   2.979  1.00  0.00     0.125 C 
BRANCH  17  18
HETATM   18  S   UNL     1      41.519 -12.917   4.169  1.00  0.00    -0.090 SA
BRANCH  18  19
HETATM   19  C   UNL     1      40.965 -14.275   5.055  1.00  0.00     0.131 C 
HETATM   20  N   UNL     1      39.892 -14.891   4.632  1.00  0.00    -0.380 N 
HETATM   21  H   UNL     1      39.439 -14.546   3.792  1.00  0.00     0.158 HD
HETATM   22  H   UNL     1      39.520 -15.717   5.078  1.00  0.00     0.158 HD
BRANCH  19  23
HETATM   23  N   UNL     1      41.642 -14.696   6.092  1.00  0.00    -0.380 N 
HETATM   24  H   UNL     1      41.594 -15.680   6.340  1.00  0.00     0.158 HD
HETATM   25  H   UNL     1      42.216 -14.095   6.666  1.00  0.00     0.158 HD
ENDBRANCH  19  23
ENDBRANCH  18  19
ENDBRANCH  17  18
ENDBRANCH   5  17
BRANCH   3  26
HETATM   26  C   UNL     1      39.958 -14.389  -1.185  1.00  0.00     0.058 A 
HETATM   27  C   UNL     1      40.377 -14.899  -2.425  1.00  0.00     0.031 A 
HETATM   28  C   UNL     1      39.598 -14.701  -3.567  1.00  0.00     0.002 A 
HETATM   29  C   UNL     1      38.400 -13.998  -3.481  1.00  0.00     0.000 A 
HETATM   30  C   UNL     1      37.972 -13.496  -2.252  1.00  0.00     0.002 A 
HETATM   31  C   UNL     1      38.746 -13.690  -1.104  1.00  0.00     0.031 A 
ENDBRANCH   3  26
TORSDOF 9
ENDMDL
MODEL 7
REMARK VINA RESULT:      -7.3      4.872      8.415
REMARK  9 active torsions:
REMARK  status: ('A' for Active; 'I' for Inactive)
REMARK    1  A    between atoms: C_2  and  C_3 
REMARK    2  A    between atoms: C_3  and  O_4 
REMARK    3  A    between atoms: O_4  and  C_5 
REMARK    4  A    between atoms: C_8  and  C_9 
REMARK    5  A    between atoms: N_11  and  C_12 
REMARK    6  A    between atoms: C_19  and  C_20 
REMARK    7  A    between atoms: C_20  and  S_21 
REMARK    8  A    between atoms: S_21  and  C_22 
REMARK    9  A    between atoms: C_22  and  N_23 
ROOT
HETATM    1  C   UNL     1      43.678 -14.745   6.024  1.00  0.00     0.096 C 
HETATM    2  N   UNL     1      44.110 -14.342   7.225  1.00  0.00    -0.167 NA
HETATM    3  N   UNL     1      43.793 -13.032   7.326  1.00  0.00    -0.244 N 
HETATM    4  C   UNL     1      42.989 -12.650   6.276  1.00  0.00     0.129 C 
HETATM    5  C   UNL     1      42.864 -13.733   5.427  1.00  0.00     0.001 C 
ENDROOT
BRANCH   1   6
HETATM    6  C   UNL     1      43.934 -16.117   5.577  1.00  0.00    -0.005 A 
HETATM    7  C   UNL     1      44.612 -17.012   6.418  1.00  0.00     0.016 A 
HETATM    8  C   UNL     1      44.801 -18.348   6.046  1.00  0.00     0.037 A 
HETATM    9  C   UNL     1      44.314 -18.809   4.826  1.00  0.00     0.068 A 
HETATM   10  C   UNL     1      43.683 -17.910   3.962  1.00  0.00     0.037 A 
HETATM   11  C   UNL     1      43.502 -16.572   4.328  1.00  0.00     0.016 A 
BRANCH   9  12
HETATM   12  O   UNL     1      44.389 -20.089   4.359  1.00  0.00    -0.351 OA
BRANCH  12  13
HETATM   13  C   UNL     1      44.906 -20.278   3.039  1.00  0.00     0.179 C 
BRANCH  13  14
HETATM   14  C   UNL     1      44.671 -21.736   2.618  1.00  0.00     0.002 C 
HETATM   15  C   UNL     1      43.428 -21.859   1.732  1.00  0.00     0.011 C 
HETATM   16  C   UNL     1      44.533 -22.629   3.850  1.00  0.00     0.011 C 
ENDBRANCH  13  14
ENDBRANCH  12  13
ENDBRANCH   9  12
ENDBRANCH   1   6
BRANCH   5  17
HETATM   17  C   UNL     1      42.027 -13.783   4.195  1.00  0.00     0.125 C 
BRANCH  17  18
HETATM   18  S   UNL     1      40.348 -13.127   4.444  1.00  0.00    -0.090 SA
BRANCH  18  19
HETATM   19  C   UNL     1      39.810 -14.031   5.797  1.00  0.00     0.131 C 
HETATM   20  N   UNL     1      39.790 -15.335   5.698  1.00  0.00    -0.380 N 
HETATM   21  H   UNL     1      40.104 -15.757   4.831  1.00  0.00     0.158 HD
HETATM   22  H   UNL     1      39.517 -15.939   6.460  1.00  0.00     0.158 HD
BRANCH  19  23
HETATM   23  N   UNL     1      39.481 -13.415   6.903  1.00  0.00    -0.380 N 
HETATM   24  H   UNL     1      39.457 -13.945   7.769  1.00  0.00     0.158 HD
HETATM   25  H   UNL     1      39.249 -12.433   6.947  1.00  0.00     0.158 HD
ENDBRANCH  19  23
ENDBRANCH  18  19
ENDBRANCH  17  18
ENDBRANCH   5  17
BRANCH   3  26
HETATM   26  C   UNL     1      44.198 -12.264   8.453  1.00  0.00     0.058 A 
HETATM   27  C   UNL     1      43.309 -11.326   9.000  1.00  0.00     0.031 A 
HETATM   28  C   UNL     1      43.690 -10.550  10.098  1.00  0.00     0.002 A 
HETATM   29  C   UNL     1      44.956 -10.706  10.655  1.00  0.00     0.000 A 
HETATM   30  C   UNL     1      45.843 -11.642  10.122  1.00  0.00     0.002 A 
HETATM   31  C   UNL     1      45.468 -12.422   9.025  1.00  0.00     0.031 A 
ENDBRANCH   3  26
TORSDOF 9
ENDMDL
MODEL 8
REMARK VINA RESULT:      -7.2      1.428      2.121
REMARK  9 active torsions:
REMARK  status: ('A' for Active; 'I' for Inactive)
REMARK    1  A    between atoms: C_2  and  C_3 
REMARK    2  A    between atoms: C_3  and  O_4 
REMARK    3  A    between atoms: O_4  and  C_5 
REMARK    4  A    between atoms: C_8  and  C_9 
REMARK    5  A    between atoms: N_11  and  C_12 
REMARK    6  A    between atoms: C_19  and  C_20 
REMARK    7  A    between atoms: C_20  and  S_21 
REMARK    8  A    between atoms: S_21  and  C_22 
REMARK    9  A    between atoms: C_22  and  N_23 
ROOT
HETATM    1  C   UNL     1      41.427 -16.320   2.579  1.00  0.00     0.096 C 
HETATM    2  N   UNL     1      41.926 -17.492   2.170  1.00  0.00    -0.167 NA
HETATM    3  N   UNL     1      42.541 -18.040   3.242  1.00  0.00    -0.244 N 
HETATM    4  C   UNL     1      42.267 -17.312   4.378  1.00  0.00     0.129 C 
HETATM    5  C   UNL     1      41.524 -16.209   4.001  1.00  0.00     0.001 C 
ENDROOT
BRANCH   1   6
HETATM    6  C   UNL     1      40.750 -15.440   1.622  1.00  0.00    -0.005 A 
HETATM    7  C   UNL     1      39.376 -15.189   1.753  1.00  0.00     0.016 A 
HETATM    8  C   UNL     1      38.721 -14.293   0.899  1.00  0.00     0.037 A 
HETATM    9  C   UNL     1      39.434 -13.634  -0.099  1.00  0.00     0.068 A 
HETATM   10  C   UNL     1      40.790 -13.918  -0.268  1.00  0.00     0.037 A 
HETATM   11  C   UNL     1      41.445 -14.821   0.578  1.00  0.00     0.016 A 
BRANCH   9  12
HETATM   12  O   UNL     1      38.934 -12.708  -0.969  1.00  0.00    -0.351 OA
BRANCH  12  13
HETATM   13  C   UNL     1      37.854 -13.116  -1.814  1.00  0.00     0.179 C 
BRANCH  13  14
HETATM   14  C   UNL     1      38.378 -13.265  -3.250  1.00  0.00     0.002 C 
HETATM   15  C   UNL     1      38.752 -14.719  -3.550  1.00  0.00     0.011 C 
HETATM   16  C   UNL     1      39.581 -12.352  -3.474  1.00  0.00     0.011 C 
ENDBRANCH  13  14
ENDBRANCH  12  13
ENDBRANCH   9  12
ENDBRANCH   1   6
BRANCH   5  17
HETATM   17  C   UNL     1      40.955 -15.184   4.921  1.00  0.00     0.125 C 
BRANCH  17  18
HETATM   18  S   UNL     1      42.195 -13.998   5.524  1.00  0.00    -0.090 SA
BRANCH  18  19
HETATM   19  C   UNL     1      42.806 -13.346   4.061  1.00  0.00     0.131 C 
HETATM   20  N   UNL     1      43.924 -13.833   3.589  1.00  0.00    -0.380 N 
HETATM   21  H   UNL     1      44.377 -14.582   4.102  1.00  0.00     0.158 HD
HETATM   22  H   UNL     1      44.332 -13.526   2.718  1.00  0.00     0.158 HD
BRANCH  19  23
HETATM   23  N   UNL     1      42.129 -12.425   3.426  1.00  0.00    -0.380 N 
HETATM   24  H   UNL     1      41.994 -11.523   3.872  1.00  0.00     0.158 HD
HETATM   25  H   UNL     1      41.728 -12.559   2.508  1.00  0.00     0.158 HD
ENDBRANCH  19  23
ENDBRANCH  18  19
ENDBRANCH  17  18
ENDBRANCH   5  17
BRANCH   3  26
HETATM   26  C   UNL     1      43.266 -19.258   3.128  1.00  0.00     0.058 A 
HETATM   27  C   UNL     1      43.107 -20.048   1.978  1.00  0.00     0.031 A 
HETATM   28  C   UNL     1      43.798 -21.255   1.852  1.00  0.00     0.002 A 
HETATM   29  C   UNL     1      44.650 -21.681   2.867  1.00  0.00     0.000 A 
HETATM   30  C   UNL     1      44.819 -20.899   4.009  1.00  0.00     0.002 A 
HETATM   31  C   UNL     1      44.132 -19.689   4.143  1.00  0.00     0.031 A 
ENDBRANCH   3  26
TORSDOF 9
ENDMDL
MODEL 9
REMARK VINA RESULT:      -7.1      3.715      7.092
REMARK  9 active torsions:
REMARK  status: ('A' for Active; 'I' for Inactive)
REMARK    1  A    between atoms: C_2  and  C_3 
REMARK    2  A    between atoms: C_3  and  O_4 
REMARK    3  A    between atoms: O_4  and  C_5 
REMARK    4  A    between atoms: C_8  and  C_9 
REMARK    5  A    between atoms: N_11  and  C_12 
REMARK    6  A    between atoms: C_19  and  C_20 
REMARK    7  A    between atoms: C_20  and  S_21 
REMARK    8  A    between atoms: S_21  and  C_22 
REMARK    9  A    between atoms: C_22  and  N_23 
ROOT
HETATM    1  C   UNL     1      41.132 -15.534   3.769  1.00  0.00     0.096 C 
HETATM    2  N   UNL     1      42.153 -16.367   4.005  1.00  0.00    -0.167 NA
HETATM    3  N   UNL     1      42.025 -17.387   3.128  1.00  0.00    -0.244 N 
HETATM    4  C   UNL     1      41.040 -17.109   2.207  1.00  0.00     0.129 C 
HETATM    5  C   UNL     1      40.458 -15.907   2.565  1.00  0.00     0.001 C 
ENDROOT
BRANCH   1   6
HETATM    6  C   UNL     1      40.946 -14.347   4.609  1.00  0.00    -0.005 A 
HETATM    7  C   UNL     1      39.706 -14.111   5.221  1.00  0.00     0.016 A 
HETATM    8  C   UNL     1      39.525 -13.027   6.088  1.00  0.00     0.037 A 
HETATM    9  C   UNL     1      40.583 -12.163   6.355  1.00  0.00     0.068 A 
HETATM   10  C   UNL     1      41.805 -12.363   5.709  1.00  0.00     0.037 A 
HETATM   11  C   UNL     1      41.986 -13.440   4.835  1.00  0.00     0.016 A 
BRANCH   9  12
HETATM   12  O   UNL     1      40.559 -11.098   7.209  1.00  0.00    -0.351 OA
BRANCH  12  13
HETATM   13  C   UNL     1      41.814 -10.517   7.571  1.00  0.00     0.179 C 
BRANCH  13  14
HETATM   14  C   UNL     1      41.983 -10.611   9.094  1.00  0.00     0.002 C 
HETATM   15  C   UNL     1      41.562  -9.306   9.776  1.00  0.00     0.011 C 
HETATM   16  C   UNL     1      43.429 -10.951   9.449  1.00  0.00     0.011 C 
ENDBRANCH  13  14
ENDBRANCH  12  13
ENDBRANCH   9  12
ENDBRANCH   1   6
BRANCH   5  17
HETATM   17  C   UNL     1      39.390 -15.196   1.806  1.00  0.00     0.125 C 
BRANCH  17  18
HETATM   18  S   UNL     1      40.020 -13.797   0.828  1.00  0.00    -0.090 SA
BRANCH  18  19
HETATM   19  C   UNL     1      40.497 -14.566  -0.627  1.00  0.00     0.131 C 
HETATM   20  N   UNL     1      41.738 -14.965  -0.736  1.00  0.00    -0.380 N 
HETATM   21  H   UNL     1      42.362 -14.813   0.049  1.00  0.00     0.158 HD
HETATM   22  H   UNL     1      42.089 -15.454  -1.546  1.00  0.00     0.158 HD
BRANCH  19  23
HETATM   23  N   UNL     1      39.615 -14.782  -1.568  1.00  0.00    -0.380 N 
HETATM   24  H   UNL     1      39.824 -14.475  -2.514  1.00  0.00     0.158 HD
HETATM   25  H   UNL     1      38.730 -15.243  -1.410  1.00  0.00     0.158 HD
ENDBRANCH  19  23
ENDBRANCH  18  19
ENDBRANCH  17  18
ENDBRANCH   5  17
BRANCH   3  26
HETATM   26  C   UNL     1      42.902 -18.506   3.172  1.00  0.00     0.058 A 
HETATM   27  C   UNL     1      43.696 -18.713   4.311  1.00  0.00     0.031 A 
HETATM   28  C   UNL     1      44.576 -19.796   4.369  1.00  0.00     0.002 A 
HETATM   29  C   UNL     1      44.667 -20.679   3.297  1.00  0.00     0.000 A 
HETATM   30  C   UNL     1      43.876 -20.485   2.165  1.00  0.00     0.002 A 
HETATM   31  C   UNL     1      42.993 -19.404   2.098  1.00  0.00     0.031 A 
ENDBRANCH   3  26
TORSDOF 9
ENDMDL
MODEL 10
REMARK VINA RESULT:      -6.9      3.657      6.587
REMARK  9 active torsions:
REMARK  status: ('A' for Active; 'I' for Inactive)
REMARK    1  A    between atoms: C_2  and  C_3 
REMARK    2  A    between atoms: C_3  and  O_4 
REMARK    3  A    between atoms: O_4  and  C_5 
REMARK    4  A    between atoms: C_8  and  C_9 
REMARK    5  A    between atoms: N_11  and  C_12 
REMARK    6  A    between atoms: C_19  and  C_20 
REMARK    7  A    between atoms: C_20  and  S_21 
REMARK    8  A    between atoms: S_21  and  C_22 
REMARK    9  A    between atoms: C_22  and  N_23 
ROOT
HETATM    1  C   UNL     1      42.001 -15.059   3.924  1.00  0.00     0.096 C 
HETATM    2  N   UNL     1      42.632 -16.116   4.448  1.00  0.00    -0.167 NA
HETATM    3  N   UNL     1      43.083 -16.848   3.405  1.00  0.00    -0.244 N 
HETATM    4  C   UNL     1      42.910 -16.161   2.225  1.00  0.00     0.129 C 
HETATM    5  C   UNL     1      42.243 -14.986   2.517  1.00  0.00     0.001 C 
ENDROOT
BRANCH   1   6
HETATM    6  C   UNL     1      41.333 -14.096   4.803  1.00  0.00    -0.005 A 
HETATM    7  C   UNL     1      41.992 -12.915   5.177  1.00  0.00     0.016 A 
HETATM    8  C   UNL     1      41.348 -11.944   5.953  1.00  0.00     0.037 A 
HETATM    9  C   UNL     1      40.034 -12.141   6.367  1.00  0.00     0.068 A 
HETATM   10  C   UNL     1      39.389 -13.336   6.041  1.00  0.00     0.037 A 
HETATM   11  C   UNL     1      40.034 -14.313   5.274  1.00  0.00     0.016 A 
BRANCH   9  12
HETATM   12  O   UNL     1      39.275 -11.263   7.086  1.00  0.00    -0.351 OA
BRANCH  12  13
HETATM   13  C   UNL     1      39.233 -11.441   8.505  1.00  0.00     0.179 C 
BRANCH  13  14
HETATM   14  C   UNL     1      39.498 -10.087   9.181  1.00  0.00     0.002 C 
HETATM   15  C   UNL     1      39.173  -8.927   8.237  1.00  0.00     0.011 C 
HETATM   16  C   UNL     1      40.950 -10.001   9.646  1.00  0.00     0.011 C 
ENDBRANCH  13  14
ENDBRANCH  12  13
ENDBRANCH   9  12
ENDBRANCH   1   6
BRANCH   5  17
HETATM   17  C   UNL     1      41.905 -13.909   1.543  1.00  0.00     0.125 C 
BRANCH  17  18
HETATM   18  S   UNL     1      40.536 -14.355   0.431  1.00  0.00    -0.090 SA
BRANCH  18  19
HETATM   19  C   UNL     1      39.216 -14.464   1.518  1.00  0.00     0.131 C 
HETATM   20  N   UNL     1      38.658 -13.353   1.924  1.00  0.00    -0.380 N 
HETATM   21  H   UNL     1      39.023 -12.475   1.570  1.00  0.00     0.158 HD
HETATM   22  H   UNL     1      37.857 -13.332   2.538  1.00  0.00     0.158 HD
BRANCH  19  23
HETATM   23  N   UNL     1      38.763 -15.637   1.877  1.00  0.00    -0.380 N 
HETATM   24  H   UNL     1      39.428 -16.355   2.150  1.00  0.00     0.158 HD
HETATM   25  H   UNL     1      37.781 -15.874   1.901  1.00  0.00     0.158 HD
ENDBRANCH  19  23
ENDBRANCH  18  19
ENDBRANCH  17  18
ENDBRANCH   5  17
BRANCH   3  26
HETATM   26  C   UNL     1      43.724 -18.101   3.611  1.00  0.00     0.058 A 
HETATM   27  C   UNL     1      43.886 -18.977   2.526  1.00  0.00     0.031 A 
HETATM   28  C   UNL     1      44.499 -20.218   2.708  1.00  0.00     0.002 A 
HETATM   29  C   UNL     1      44.957 -20.592   3.968  1.00  0.00     0.000 A 
HETATM   30  C   UNL     1      44.807 -19.725   5.050  1.00  0.00     0.002 A 
HETATM   31  C   UNL     1      44.195 -18.480   4.876  1.00  0.00     0.031 A 
ENDBRANCH   3  26
TORSDOF 9
ENDMDL
