MODEL 1
REMARK VINA RESULT:      -7.9      0.000      0.000
REMARK  4 active torsions:
REMARK  status: ('A' for Active; 'I' for Inactive)
REMARK    1  A    between atoms: C_2  and  C_3 
REMARK    2  A    between atoms: C_4  and  N_5 
REMARK       I    between atoms: N_5  and  C_6 
REMARK       I    between atoms: C_6  and  N_7 
REMARK    3  A    between atoms: C_8  and  C_9 
REMARK    4  A    between atoms: C_21  and  C_22 
ROOT
HETATM    1  N   UNL     1      42.708 -16.078   3.827  1.00  0.00    -0.308 N 
HETATM    2  C   UNL     1      41.399 -15.740   4.093  1.00  0.00     0.323 C 
HETATM    3  N   UNL     1      40.839 -14.857   3.184  1.00  0.00    -0.325 N 
HETATM    4  C   UNL     1      41.568 -14.002   2.244  1.00  0.00     0.126 C 
HETATM    5  C   UNL     1      40.831 -12.660   2.384  1.00  0.00     0.032 C 
HETATM    6  C   UNL     1      39.384 -13.083   2.593  1.00  0.00     0.022 C 
HETATM    7  C   UNL     1      39.532 -14.294   3.499  1.00  0.00     0.128 C 
HETATM    8  O   UNL     1      40.754 -16.167   5.048  1.00  0.00    -0.247 OA
HETATM    9  H   UNL     1      42.839 -16.297   2.851  1.00  0.00     0.170 HD
ENDROOT
BRANCH   1  10
HETATM   10  C   UNL     1      43.494 -16.815   4.750  1.00  0.00     0.049 A 
HETATM   11  C   UNL     1      43.830 -18.156   4.441  1.00  0.00    -0.031 A 
HETATM   12  C   UNL     1      44.604 -18.902   5.347  1.00  0.00     0.009 A 
HETATM   13  C   UNL     1      45.041 -18.343   6.540  1.00  0.00     0.001 A 
HETATM   14  C   UNL     1      44.733 -17.019   6.832  1.00  0.00     0.009 A 
HETATM   15  C   UNL     1      43.982 -16.222   5.942  1.00  0.00    -0.031 A 
BRANCH  11  16
HETATM   16  C   UNL     1      43.360 -18.867   3.189  1.00  0.00     0.036 C 
HETATM   17  C   UNL     1      44.325 -19.960   2.757  1.00  0.00     0.010 C 
ENDBRANCH  11  16
BRANCH  15  18
HETATM   18  C   UNL     1      43.783 -14.774   6.353  1.00  0.00     0.036 C 
HETATM   19  C   UNL     1      44.976 -14.104   7.026  1.00  0.00     0.010 C 
ENDBRANCH  15  18
ENDBRANCH   1  10
BRANCH   4  20
HETATM   20  C   UNL     1      41.538 -14.541   0.830  1.00  0.00     0.014 A 
HETATM   21  C   UNL     1      41.251 -15.852   0.328  1.00  0.00     0.061 A 
HETATM   22  C   UNL     1      40.887 -17.097   1.053  1.00  0.00     0.073 C 
HETATM   23  N   UNL     1      41.330 -15.905  -1.007  1.00  0.00    -0.179 NA
HETATM   24  N   UNL     1      41.636 -14.661  -1.373  1.00  0.00    -0.282 N 
HETATM   25  H   UNL     1      41.720 -14.462  -2.365  1.00  0.00     0.189 HD
HETATM   26  C   UNL     1      41.799 -13.806  -0.324  1.00  0.00     0.034 A 
HETATM   27  C   UNL     1      42.148 -12.382  -0.550  1.00  0.00     0.070 C 
ENDBRANCH   4  20
TORSDOF 4
ENDMDL
MODEL 2
REMARK VINA RESULT:      -7.8      0.082      2.711
REMARK  4 active torsions:
REMARK  status: ('A' for Active; 'I' for Inactive)
REMARK    1  A    between atoms: C_2  and  C_3 
REMARK    2  A    between atoms: C_4  and  N_5 
REMARK       I    between atoms: N_5  and  C_6 
REMARK       I    between atoms: C_6  and  N_7 
REMARK    3  A    between atoms: C_8  and  C_9 
REMARK    4  A    between atoms: C_21  and  C_22 
ROOT
HETATM    1  N   UNL     1      42.739 -16.081   3.817  1.00  0.00    -0.308 N 
HETATM    2  C   UNL     1      41.430 -15.748   4.093  1.00  0.00     0.323 C 
HETATM    3  N   UNL     1      40.869 -14.849   3.201  1.00  0.00    -0.325 N 
HETATM    4  C   UNL     1      41.595 -13.978   2.274  1.00  0.00     0.126 C 
HETATM    5  C   UNL     1      40.858 -12.638   2.439  1.00  0.00     0.032 C 
HETATM    6  C   UNL     1      39.412 -13.066   2.646  1.00  0.00     0.022 C 
HETATM    7  C   UNL     1      39.562 -14.292   3.529  1.00  0.00     0.128 C 
HETATM    8  O   UNL     1      40.789 -16.192   5.042  1.00  0.00    -0.247 OA
HETATM    9  H   UNL     1      42.868 -16.284   2.837  1.00  0.00     0.170 HD
ENDROOT
BRANCH   1  10
HETATM   10  C   UNL     1      43.528 -16.835   4.725  1.00  0.00     0.049 A 
HETATM   11  C   UNL     1      43.989 -16.209   5.910  1.00  0.00    -0.031 A 
HETATM   12  C   UNL     1      44.774 -16.941   6.817  1.00  0.00     0.009 A 
HETATM   13  C   UNL     1      45.106 -18.265   6.567  1.00  0.00     0.001 A 
HETATM   14  C   UNL     1      44.633 -18.887   5.417  1.00  0.00     0.009 A 
HETATM   15  C   UNL     1      43.819 -18.203   4.490  1.00  0.00    -0.031 A 
BRANCH  11  16
HETATM   16  C   UNL     1      43.719 -14.758   6.246  1.00  0.00     0.036 C 
HETATM   17  C   UNL     1      44.862 -14.132   7.030  1.00  0.00     0.010 C 
ENDBRANCH  11  16
BRANCH  15  18
HETATM   18  C   UNL     1      43.312 -19.023   3.317  1.00  0.00     0.036 C 
HETATM   19  C   UNL     1      44.319 -19.983   2.693  1.00  0.00     0.010 C 
ENDBRANCH  15  18
ENDBRANCH   1  10
BRANCH   4  20
HETATM   20  C   UNL     1      41.561 -14.492   0.851  1.00  0.00     0.014 A 
HETATM   21  C   UNL     1      41.280 -15.796   0.328  1.00  0.00     0.061 A 
HETATM   22  C   UNL     1      40.930 -17.057   1.033  1.00  0.00     0.073 C 
HETATM   23  N   UNL     1      41.352 -15.825  -1.008  1.00  0.00    -0.179 NA
HETATM   24  N   UNL     1      41.647 -14.573  -1.355  1.00  0.00    -0.282 N 
HETATM   25  H   UNL     1      41.724 -14.355  -2.343  1.00  0.00     0.189 HD
HETATM   26  C   UNL     1      41.809 -13.735  -0.291  1.00  0.00     0.034 A 
HETATM   27  C   UNL     1      42.147 -12.304  -0.494  1.00  0.00     0.070 C 
ENDBRANCH   4  20
TORSDOF 4
ENDMDL
MODEL 3
REMARK VINA RESULT:      -7.6      2.135      4.080
REMARK  4 active torsions:
REMARK  status: ('A' for Active; 'I' for Inactive)
REMARK    1  A    between atoms: C_2  and  C_3 
REMARK    2  A    between atoms: C_4  and  N_5 
REMARK       I    between atoms: N_5  and  C_6 
REMARK       I    between atoms: C_6  and  N_7 
REMARK    3  A    between atoms: C_8  and  C_9 
REMARK    4  A    between atoms: C_21  and  C_22 
ROOT
HETATM    1  N   UNL     1      42.526 -16.368   4.110  1.00  0.00    -0.308 N 
HETATM    2  C   UNL     1      42.981 -15.292   3.378  1.00  0.00     0.323 C 
HETATM    3  N   UNL     1      42.021 -14.325   3.124  1.00  0.00    -0.325 N 
HETATM    4  C   UNL     1      40.571 -14.498   3.220  1.00  0.00     0.126 C 
HETATM    5  C   UNL     1      40.074 -13.804   1.940  1.00  0.00     0.032 C 
HETATM    6  C   UNL     1      41.037 -12.635   1.788  1.00  0.00     0.022 C 
HETATM    7  C   UNL     1      42.363 -13.256   2.194  1.00  0.00     0.128 C 
HETATM    8  O   UNL     1      44.134 -15.171   2.969  1.00  0.00    -0.247 OA
HETATM    9  H   UNL     1      41.974 -16.068   4.899  1.00  0.00     0.170 HD
ENDROOT
BRANCH   1  10
HETATM   10  C   UNL     1      43.314 -17.533   4.298  1.00  0.00     0.049 A 
HETATM   11  C   UNL     1      43.393 -18.481   3.248  1.00  0.00    -0.031 A 
HETATM   12  C   UNL     1      44.166 -19.642   3.421  1.00  0.00     0.009 A 
HETATM   13  C   UNL     1      44.850 -19.873   4.606  1.00  0.00     0.001 A 
HETATM   14  C   UNL     1      44.795 -18.931   5.627  1.00  0.00     0.009 A 
HETATM   15  C   UNL     1      44.054 -17.737   5.491  1.00  0.00    -0.031 A 
BRANCH  11  16
HETATM   16  C   UNL     1      42.644 -18.340   1.940  1.00  0.00     0.036 C 
HETATM   17  C   UNL     1      43.534 -17.806   0.828  1.00  0.00     0.010 C 
ENDBRANCH  11  16
BRANCH  15  18
HETATM   18  C   UNL     1      44.140 -16.764   6.653  1.00  0.00     0.036 C 
HETATM   19  C   UNL     1      43.510 -17.233   7.960  1.00  0.00     0.010 C 
ENDBRANCH  15  18
ENDBRANCH   1  10
BRANCH   4  20
HETATM   20  C   UNL     1      39.996 -13.883   4.478  1.00  0.00     0.014 A 
HETATM   21  C   UNL     1      39.303 -12.646   4.690  1.00  0.00     0.061 A 
HETATM   22  C   UNL     1      38.930 -11.580   3.725  1.00  0.00     0.073 C 
HETATM   23  N   UNL     1      38.955 -12.481   5.971  1.00  0.00    -0.179 NA
HETATM   24  N   UNL     1      39.385 -13.586   6.580  1.00  0.00    -0.282 N 
HETATM   25  H   UNL     1      39.199 -13.688   7.572  1.00  0.00     0.189 HD
HETATM   26  C   UNL     1      40.036 -14.450   5.749  1.00  0.00     0.034 A 
HETATM   27  C   UNL     1      40.586 -15.729   6.262  1.00  0.00     0.070 C 
ENDBRANCH   4  20
TORSDOF 4
ENDMDL
MODEL 4
REMARK VINA RESULT:      -7.6      0.424      1.670
REMARK  4 active torsions:
REMARK  status: ('A' for Active; 'I' for Inactive)
REMARK    1  A    between atoms: C_2  and  C_3 
REMARK    2  A    between atoms: C_4  and  N_5 
REMARK       I    between atoms: N_5  and  C_6 
REMARK       I    between atoms: C_6  and  N_7 
REMARK    3  A    between atoms: C_8  and  C_9 
REMARK    4  A    between atoms: C_21  and  C_22 
ROOT
HETATM    1  N   UNL     1      42.608 -15.925   3.953  1.00  0.00    -0.308 N 
HETATM    2  C   UNL     1      41.335 -15.512   4.287  1.00  0.00     0.323 C 
HETATM    3  N   UNL     1      40.765 -14.630   3.383  1.00  0.00    -0.325 N 
HETATM    4  C   UNL     1      41.475 -13.844   2.372  1.00  0.00     0.126 C 
HETATM    5  C   UNL     1      40.816 -12.462   2.509  1.00  0.00     0.032 C 
HETATM    6  C   UNL     1      39.365 -12.804   2.820  1.00  0.00     0.022 C 
HETATM    7  C   UNL     1      39.509 -13.991   3.756  1.00  0.00     0.128 C 
HETATM    8  O   UNL     1      40.731 -15.874   5.293  1.00  0.00    -0.247 OA
HETATM    9  H   UNL     1      42.667 -16.182   2.979  1.00  0.00     0.170 HD
ENDROOT
BRANCH   1  10
HETATM   10  C   UNL     1      43.412 -16.673   4.853  1.00  0.00     0.049 A 
HETATM   11  C   UNL     1      43.674 -18.034   4.562  1.00  0.00    -0.031 A 
HETATM   12  C   UNL     1      44.465 -18.790   5.445  1.00  0.00     0.009 A 
HETATM   13  C   UNL     1      44.990 -18.221   6.597  1.00  0.00     0.001 A 
HETATM   14  C   UNL     1      44.755 -16.878   6.869  1.00  0.00     0.009 A 
HETATM   15  C   UNL     1      43.989 -16.072   6.000  1.00  0.00    -0.031 A 
BRANCH  11  16
HETATM   16  C   UNL     1      43.106 -18.755   3.358  1.00  0.00     0.036 C 
HETATM   17  C   UNL     1      44.038 -18.682   2.157  1.00  0.00     0.010 C 
ENDBRANCH  11  16
BRANCH  15  18
HETATM   18  C   UNL     1      43.874 -14.606   6.381  1.00  0.00     0.036 C 
HETATM   19  C   UNL     1      45.108 -13.989   7.029  1.00  0.00     0.010 C 
ENDBRANCH  15  18
ENDBRANCH   1  10
BRANCH   4  20
HETATM   20  C   UNL     1      41.331 -14.425   0.982  1.00  0.00     0.014 A 
HETATM   21  C   UNL     1      41.591 -13.857  -0.308  1.00  0.00     0.061 A 
HETATM   22  C   UNL     1      42.090 -12.507  -0.677  1.00  0.00     0.073 C 
HETATM   23  N   UNL     1      41.334 -14.721  -1.297  1.00  0.00    -0.179 NA
HETATM   24  N   UNL     1      40.941 -15.832  -0.676  1.00  0.00    -0.282 N 
HETATM   25  H   UNL     1      40.716 -16.644  -1.243  1.00  0.00     0.189 HD
HETATM   26  C   UNL     1      40.893 -15.713   0.682  1.00  0.00     0.034 A 
HETATM   27  C   UNL     1      40.470 -16.853   1.531  1.00  0.00     0.070 C 
ENDBRANCH   4  20
TORSDOF 4
ENDMDL
MODEL 5
REMARK VINA RESULT:      -7.6      1.226      3.432
REMARK  4 active torsions:
REMARK  status: ('A' for Active; 'I' for Inactive)
REMARK    1  A    between atoms: C_2  and  C_3 
REMARK    2  A    between atoms: C_4  and  N_5 
REMARK       I    between atoms: N_5  and  C_6 
REMARK       I    between atoms: C_6  and  N_7 
REMARK    3  A    between atoms: C_8  and  C_9 
REMARK    4  A    between atoms: C_21  and  C_22 
ROOT
HETATM    1  N   UNL     1      42.360 -15.915   2.897  1.00  0.00    -0.308 N 
HETATM    2  C   UNL     1      41.006 -16.086   2.700  1.00  0.00     0.323 C 
HETATM    3  N   UNL     1      40.400 -15.067   1.983  1.00  0.00    -0.325 N 
HETATM    4  C   UNL     1      40.942 -13.726   1.754  1.00  0.00     0.126 C 
HETATM    5  C   UNL     1      39.717 -12.831   2.008  1.00  0.00     0.032 C 
HETATM    6  C   UNL     1      38.566 -13.663   1.460  1.00  0.00     0.022 C 
HETATM    7  C   UNL     1      38.945 -15.066   1.901  1.00  0.00     0.128 C 
HETATM    8  O   UNL     1      40.362 -17.046   3.115  1.00  0.00    -0.247 OA
HETATM    9  H   UNL     1      42.822 -15.632   2.046  1.00  0.00     0.170 HD
ENDROOT
BRANCH   1  10
HETATM   10  C   UNL     1      43.102 -16.757   3.767  1.00  0.00     0.049 A 
HETATM   11  C   UNL     1      43.321 -16.335   5.101  1.00  0.00    -0.031 A 
HETATM   12  C   UNL     1      44.058 -17.154   5.974  1.00  0.00     0.009 A 
HETATM   13  C   UNL     1      44.575 -18.369   5.545  1.00  0.00     0.001 A 
HETATM   14  C   UNL     1      44.338 -18.795   4.243  1.00  0.00     0.009 A 
HETATM   15  C   UNL     1      43.582 -18.020   3.338  1.00  0.00    -0.031 A 
BRANCH  11  16
HETATM   16  C   UNL     1      42.839 -15.007   5.646  1.00  0.00     0.036 C 
HETATM   17  C   UNL     1      43.993 -14.073   5.979  1.00  0.00     0.010 C 
ENDBRANCH  11  16
BRANCH  15  18
HETATM   18  C   UNL     1      43.339 -18.640   1.973  1.00  0.00     0.036 C 
HETATM   19  C   UNL     1      43.484 -20.156   1.896  1.00  0.00     0.010 C 
ENDBRANCH  15  18
ENDBRANCH   1  10
BRANCH   4  20
HETATM   20  C   UNL     1      41.507 -13.560   0.360  1.00  0.00     0.014 A 
HETATM   21  C   UNL     1      42.047 -12.412  -0.307  1.00  0.00     0.061 A 
HETATM   22  C   UNL     1      42.219 -11.017   0.175  1.00  0.00     0.073 C 
HETATM   23  N   UNL     1      42.449 -12.699  -1.551  1.00  0.00    -0.179 NA
HETATM   24  N   UNL     1      42.204 -14.001  -1.689  1.00  0.00    -0.282 N 
HETATM   25  H   UNL     1      42.461 -14.446  -2.565  1.00  0.00     0.189 HD
HETATM   26  C   UNL     1      41.620 -14.568  -0.595  1.00  0.00     0.034 A 
HETATM   27  C   UNL     1      41.272 -16.010  -0.579  1.00  0.00     0.070 C 
ENDBRANCH   4  20
TORSDOF 4
ENDMDL
MODEL 6
REMARK VINA RESULT:      -7.6      2.139      4.682
REMARK  4 active torsions:
REMARK  status: ('A' for Active; 'I' for Inactive)
REMARK    1  A    between atoms: C_2  and  C_3 
REMARK    2  A    between atoms: C_4  and  N_5 
REMARK       I    between atoms: N_5  and  C_6 
REMARK       I    between atoms: C_6  and  N_7 
REMARK    3  A    between atoms: C_8  and  C_9 
REMARK    4  A    between atoms: C_21  and  C_22 
ROOT
HETATM    1  N   UNL     1      42.562 -16.357   4.130  1.00  0.00    -0.308 N 
HETATM    2  C   UNL     1      43.011 -15.285   3.389  1.00  0.00     0.323 C 
HETATM    3  N   UNL     1      42.046 -14.324   3.133  1.00  0.00    -0.325 N 
HETATM    4  C   UNL     1      40.596 -14.501   3.236  1.00  0.00     0.126 C 
HETATM    5  C   UNL     1      40.092 -13.818   1.954  1.00  0.00     0.032 C 
HETATM    6  C   UNL     1      41.050 -12.647   1.789  1.00  0.00     0.022 C 
HETATM    7  C   UNL     1      42.380 -13.260   2.193  1.00  0.00     0.128 C 
HETATM    8  O   UNL     1      44.161 -15.163   2.974  1.00  0.00    -0.247 OA
HETATM    9  H   UNL     1      42.012 -16.054   4.920  1.00  0.00     0.170 HD
ENDROOT
BRANCH   1  10
HETATM   10  C   UNL     1      43.356 -17.518   4.324  1.00  0.00     0.049 A 
HETATM   11  C   UNL     1      44.032 -17.684   5.558  1.00  0.00    -0.031 A 
HETATM   12  C   UNL     1      44.825 -18.826   5.764  1.00  0.00     0.009 A 
HETATM   13  C   UNL     1      44.957 -19.790   4.774  1.00  0.00     0.001 A 
HETATM   14  C   UNL     1      44.273 -19.641   3.573  1.00  0.00     0.009 A 
HETATM   15  C   UNL     1      43.444 -18.526   3.330  1.00  0.00    -0.031 A 
BRANCH  11  16
HETATM   16  C   UNL     1      43.988 -16.665   6.676  1.00  0.00     0.036 C 
HETATM   17  C   UNL     1      43.454 -17.260   7.970  1.00  0.00     0.010 C 
ENDBRANCH  11  16
BRANCH  15  18
HETATM   18  C   UNL     1      42.699 -18.526   2.006  1.00  0.00     0.036 C 
HETATM   19  C   UNL     1      43.413 -17.846   0.843  1.00  0.00     0.010 C 
ENDBRANCH  15  18
ENDBRANCH   1  10
BRANCH   4  20
HETATM   20  C   UNL     1      40.026 -13.879   4.492  1.00  0.00     0.014 A 
HETATM   21  C   UNL     1      39.384 -12.616   4.710  1.00  0.00     0.061 A 
HETATM   22  C   UNL     1      39.078 -11.519   3.755  1.00  0.00     0.073 C 
HETATM   23  N   UNL     1      39.018 -12.454   5.987  1.00  0.00    -0.179 NA
HETATM   24  N   UNL     1      39.386 -13.586   6.586  1.00  0.00    -0.282 N 
HETATM   25  H   UNL     1      39.176 -13.694   7.573  1.00  0.00     0.189 HD
HETATM   26  C   UNL     1      40.014 -14.466   5.755  1.00  0.00     0.034 A 
HETATM   27  C   UNL     1      40.496 -15.775   6.259  1.00  0.00     0.070 C 
ENDBRANCH   4  20
TORSDOF 4
ENDMDL
MODEL 7
REMARK VINA RESULT:      -7.3      2.388      3.157
REMARK  4 active torsions:
REMARK  status: ('A' for Active; 'I' for Inactive)
REMARK    1  A    between atoms: C_2  and  C_3 
REMARK    2  A    between atoms: C_4  and  N_5 
REMARK       I    between atoms: N_5  and  C_6 
REMARK       I    between atoms: C_6  and  N_7 
REMARK    3  A    between atoms: C_8  and  C_9 
REMARK    4  A    between atoms: C_21  and  C_22 
ROOT
HETATM    1  N   UNL     1      41.094 -15.083   1.705  1.00  0.00    -0.308 N 
HETATM    2  C   UNL     1      39.785 -14.962   1.288  1.00  0.00     0.323 C 
HETATM    3  N   UNL     1      39.600 -14.089   0.228  1.00  0.00    -0.325 N 
HETATM    4  C   UNL     1      40.538 -13.057  -0.219  1.00  0.00     0.126 C 
HETATM    5  C   UNL     1      39.612 -11.853  -0.454  1.00  0.00     0.032 C 
HETATM    6  C   UNL     1      38.342 -12.497  -0.994  1.00  0.00     0.022 C 
HETATM    7  C   UNL     1      38.232 -13.751  -0.144  1.00  0.00     0.128 C 
HETATM    8  O   UNL     1      38.839 -15.562   1.794  1.00  0.00    -0.247 OA
HETATM    9  H   UNL     1      41.720 -15.192   0.921  1.00  0.00     0.170 HD
ENDROOT
BRANCH   1  10
HETATM   10  C   UNL     1      41.441 -15.781   2.891  1.00  0.00     0.049 A 
HETATM   11  C   UNL     1      41.966 -17.092   2.781  1.00  0.00    -0.031 A 
HETATM   12  C   UNL     1      42.311 -17.799   3.946  1.00  0.00     0.009 A 
HETATM   13  C   UNL     1      42.140 -17.230   5.201  1.00  0.00     0.001 A 
HETATM   14  C   UNL     1      41.649 -15.935   5.308  1.00  0.00     0.009 A 
HETATM   15  C   UNL     1      41.315 -15.175   4.167  1.00  0.00    -0.031 A 
BRANCH  11  16
HETATM   16  C   UNL     1      42.142 -17.813   1.461  1.00  0.00     0.036 C 
HETATM   17  C   UNL     1      43.581 -17.761   0.970  1.00  0.00     0.010 C 
ENDBRANCH  11  16
BRANCH  15  18
HETATM   18  C   UNL     1      40.860 -13.749   4.425  1.00  0.00     0.036 C 
HETATM   19  C   UNL     1      41.936 -12.677   4.302  1.00  0.00     0.010 C 
ENDBRANCH  15  18
ENDBRANCH   1  10
BRANCH   4  20
HETATM   20  C   UNL     1      41.294 -13.464  -1.465  1.00  0.00     0.014 A 
HETATM   21  C   UNL     1      41.103 -14.561  -2.367  1.00  0.00     0.061 A 
HETATM   22  C   UNL     1      40.087 -15.646  -2.354  1.00  0.00     0.073 C 
HETATM   23  N   UNL     1      42.000 -14.555  -3.360  1.00  0.00    -0.179 NA
HETATM   24  N   UNL     1      42.744 -13.474  -3.132  1.00  0.00    -0.282 N 
HETATM   25  H   UNL     1      43.484 -13.255  -3.791  1.00  0.00     0.189 HD
HETATM   26  C   UNL     1      42.390 -12.794  -2.004  1.00  0.00     0.034 A 
HETATM   27  C   UNL     1      43.119 -11.568  -1.595  1.00  0.00     0.070 C 
ENDBRANCH   4  20
TORSDOF 4
ENDMDL
MODEL 8
REMARK VINA RESULT:      -7.2      2.786      4.676
REMARK  4 active torsions:
REMARK  status: ('A' for Active; 'I' for Inactive)
REMARK    1  A    between atoms: C_2  and  C_3 
REMARK    2  A    between atoms: C_4  and  N_5 
REMARK       I    between atoms: N_5  and  C_6 
REMARK       I    between atoms: C_6  and  N_7 
REMARK    3  A    between atoms: C_8  and  C_9 
REMARK    4  A    between atoms: C_21  and  C_22 
ROOT
HETATM    1  N   UNL     1      40.954 -14.984   0.827  1.00  0.00    -0.308 N 
HETATM    2  C   UNL     1      41.677 -13.883   0.418  1.00  0.00     0.323 C 
HETATM    3  N   UNL     1      41.514 -13.557  -0.918  1.00  0.00    -0.325 N 
HETATM    4  C   UNL     1      40.986 -14.431  -1.967  1.00  0.00     0.126 C 
HETATM    5  C   UNL     1      41.965 -14.182  -3.126  1.00  0.00     0.032 C 
HETATM    6  C   UNL     1      42.291 -12.701  -2.986  1.00  0.00     0.022 C 
HETATM    7  C   UNL     1      42.390 -12.535  -1.479  1.00  0.00     0.128 C 
HETATM    8  O   UNL     1      42.413 -13.228   1.151  1.00  0.00    -0.247 OA
HETATM    9  H   UNL     1      40.005 -14.946   0.487  1.00  0.00     0.170 HD
ENDROOT
BRANCH   1  10
HETATM   10  C   UNL     1      41.144 -15.573   2.104  1.00  0.00     0.049 A 
HETATM   11  C   UNL     1      42.023 -16.678   2.221  1.00  0.00    -0.031 A 
HETATM   12  C   UNL     1      42.219 -17.275   3.478  1.00  0.00     0.009 A 
HETATM   13  C   UNL     1      41.561 -16.799   4.604  1.00  0.00     0.001 A 
HETATM   14  C   UNL     1      40.719 -15.699   4.494  1.00  0.00     0.009 A 
HETATM   15  C   UNL     1      40.511 -15.049   3.259  1.00  0.00    -0.031 A 
BRANCH  11  16
HETATM   16  C   UNL     1      42.746 -17.297   1.044  1.00  0.00     0.036 C 
HETATM   17  C   UNL     1      44.235 -17.461   1.311  1.00  0.00     0.010 C 
ENDBRANCH  11  16
BRANCH  15  18
HETATM   18  C   UNL     1      39.625 -13.816   3.297  1.00  0.00     0.036 C 
HETATM   19  C   UNL     1      40.247 -12.570   3.916  1.00  0.00     0.010 C 
ENDBRANCH  15  18
ENDBRANCH   1  10
BRANCH   4  20
HETATM   20  C   UNL     1      39.554 -14.098  -2.330  1.00  0.00     0.014 A 
HETATM   21  C   UNL     1      38.687 -13.052  -1.876  1.00  0.00     0.061 A 
HETATM   22  C   UNL     1      38.934 -11.958  -0.901  1.00  0.00     0.073 C 
HETATM   23  N   UNL     1      37.484 -13.111  -2.459  1.00  0.00    -0.179 NA
HETATM   24  N   UNL     1      37.565 -14.150  -3.289  1.00  0.00    -0.282 N 
HETATM   25  H   UNL     1      36.758 -14.367  -3.865  1.00  0.00     0.189 HD
HETATM   26  C   UNL     1      38.765 -14.797  -3.241  1.00  0.00     0.034 A 
HETATM   27  C   UNL     1      39.026 -15.981  -4.096  1.00  0.00     0.070 C 
ENDBRANCH   4  20
TORSDOF 4
ENDMDL
MODEL 9
REMARK VINA RESULT:      -7.1      1.998      3.776
REMARK  4 active torsions:
REMARK  status: ('A' for Active; 'I' for Inactive)
REMARK    1  A    between atoms: C_2  and  C_3 
REMARK    2  A    between atoms: C_4  and  N_5 
REMARK       I    between atoms: N_5  and  C_6 
REMARK       I    between atoms: C_6  and  N_7 
REMARK    3  A    between atoms: C_8  and  C_9 
REMARK    4  A    between atoms: C_21  and  C_22 
ROOT
HETATM    1  N   UNL     1      41.912 -15.109   1.744  1.00  0.00    -0.308 N 
HETATM    2  C   UNL     1      40.556 -15.161   1.500  1.00  0.00     0.323 C 
HETATM    3  N   UNL     1      40.126 -14.327   0.480  1.00  0.00    -0.325 N 
HETATM    4  C   UNL     1      40.859 -13.187  -0.075  1.00  0.00     0.126 C 
HETATM    5  C   UNL     1      39.763 -12.113  -0.179  1.00  0.00     0.032 C 
HETATM    6  C   UNL     1      38.528 -12.919  -0.557  1.00  0.00     0.022 C 
HETATM    7  C   UNL     1      38.690 -14.171   0.289  1.00  0.00     0.128 C 
HETATM    8  O   UNL     1      39.768 -15.873   2.117  1.00  0.00    -0.247 OA
HETATM    9  H   UNL     1      42.441 -15.144   0.885  1.00  0.00     0.170 HD
ENDROOT
BRANCH   1  10
HETATM   10  C   UNL     1      42.495 -15.748   2.869  1.00  0.00     0.049 A 
HETATM   11  C   UNL     1      42.581 -15.033   4.089  1.00  0.00    -0.031 A 
HETATM   12  C   UNL     1      43.160 -15.649   5.212  1.00  0.00     0.009 A 
HETATM   13  C   UNL     1      43.650 -16.946   5.141  1.00  0.00     0.001 A 
HETATM   14  C   UNL     1      43.541 -17.657   3.951  1.00  0.00     0.009 A 
HETATM   15  C   UNL     1      42.944 -17.091   2.805  1.00  0.00    -0.031 A 
BRANCH  11  16
HETATM   16  C   UNL     1      42.120 -13.600   4.252  1.00  0.00     0.036 C 
HETATM   17  C   UNL     1      40.736 -13.513   4.877  1.00  0.00     0.010 C 
ENDBRANCH  11  16
BRANCH  15  18
HETATM   18  C   UNL     1      42.826 -18.004   1.596  1.00  0.00     0.036 C 
HETATM   19  C   UNL     1      43.446 -19.388   1.747  1.00  0.00     0.010 C 
ENDBRANCH  15  18
ENDBRANCH   1  10
BRANCH   4  20
HETATM   20  C   UNL     1      41.495 -13.503  -1.412  1.00  0.00     0.014 A 
HETATM   21  C   UNL     1      41.284 -14.591  -2.321  1.00  0.00     0.061 A 
HETATM   22  C   UNL     1      40.362 -15.752  -2.228  1.00  0.00     0.073 C 
HETATM   23  N   UNL     1      42.057 -14.491  -3.409  1.00  0.00    -0.179 NA
HETATM   24  N   UNL     1      42.739 -13.360  -3.232  1.00  0.00    -0.282 N 
HETATM   25  H   UNL     1      43.379 -13.068  -3.963  1.00  0.00     0.189 HD
HETATM   26  C   UNL     1      42.467 -12.737  -2.049  1.00  0.00     0.034 A 
HETATM   27  C   UNL     1      43.143 -11.467  -1.686  1.00  0.00     0.070 C 
ENDBRANCH   4  20
TORSDOF 4
ENDMDL
MODEL 10
REMARK VINA RESULT:      -6.8      2.103      3.110
REMARK  4 active torsions:
REMARK  status: ('A' for Active; 'I' for Inactive)
REMARK    1  A    between atoms: C_2  and  C_3 
REMARK    2  A    between atoms: C_4  and  N_5 
REMARK       I    between atoms: N_5  and  C_6 
REMARK       I    between atoms: C_6  and  N_7 
REMARK    3  A    between atoms: C_8  and  C_9 
REMARK    4  A    between atoms: C_21  and  C_22 
ROOT
HETATM    1  N   UNL     1      41.500 -15.359   3.020  1.00  0.00    -0.308 N 
HETATM    2  C   UNL     1      40.344 -15.594   2.306  1.00  0.00     0.323 C 
HETATM    3  N   UNL     1      39.756 -14.455   1.780  1.00  0.00    -0.325 N 
HETATM    4  C   UNL     1      40.009 -13.075   2.199  1.00  0.00     0.126 C 
HETATM    5  C   UNL     1      38.590 -12.487   2.264  1.00  0.00     0.032 C 
HETATM    6  C   UNL     1      37.881 -13.174   1.105  1.00  0.00     0.022 C 
HETATM    7  C   UNL     1      38.432 -14.588   1.184  1.00  0.00     0.128 C 
HETATM    8  O   UNL     1      39.851 -16.706   2.133  1.00  0.00    -0.247 OA
HETATM    9  H   UNL     1      42.112 -14.725   2.529  1.00  0.00     0.170 HD
ENDROOT
BRANCH   1  10
HETATM   10  C   UNL     1      42.128 -16.377   3.784  1.00  0.00     0.049 A 
HETATM   11  C   UNL     1      43.270 -17.024   3.250  1.00  0.00    -0.031 A 
HETATM   12  C   UNL     1      43.901 -18.037   3.992  1.00  0.00     0.009 A 
HETATM   13  C   UNL     1      43.419 -18.414   5.238  1.00  0.00     0.001 A 
HETATM   14  C   UNL     1      42.315 -17.762   5.773  1.00  0.00     0.009 A 
HETATM   15  C   UNL     1      41.663 -16.720   5.079  1.00  0.00    -0.031 A 
BRANCH  11  16
HETATM   16  C   UNL     1      43.839 -16.716   1.881  1.00  0.00     0.036 C 
HETATM   17  C   UNL     1      43.599 -17.850   0.895  1.00  0.00     0.010 C 
ENDBRANCH  11  16
BRANCH  15  18
HETATM   18  C   UNL     1      40.517 -16.046   5.812  1.00  0.00     0.036 C 
HETATM   19  C   UNL     1      40.620 -14.532   5.956  1.00  0.00     0.010 C 
ENDBRANCH  15  18
ENDBRANCH   1  10
BRANCH   4  20
HETATM   20  C   UNL     1      40.906 -12.332   1.232  1.00  0.00     0.014 A 
HETATM   21  C   UNL     1      41.273 -10.949   1.162  1.00  0.00     0.061 A 
HETATM   22  C   UNL     1      40.881  -9.809   2.031  1.00  0.00     0.073 C 
HETATM   23  N   UNL     1      42.104 -10.703   0.142  1.00  0.00    -0.179 NA
HETATM   24  N   UNL     1      42.296 -11.892  -0.427  1.00  0.00    -0.282 N 
HETATM   25  H   UNL     1      42.928 -11.947  -1.220  1.00  0.00     0.189 HD
HETATM   26  C   UNL     1      41.590 -12.901   0.161  1.00  0.00     0.034 A 
HETATM   27  C   UNL     1      41.682 -14.291  -0.350  1.00  0.00     0.070 C 
ENDBRANCH   4  20
TORSDOF 4
ENDMDL
