MODEL 1
REMARK VINA RESULT:      -9.8      0.000      0.000
REMARK  6 active torsions:
REMARK  status: ('A' for Active; 'I' for Inactive)
REMARK    1  A    between atoms: C_4  and  N_5 
REMARK       I    between atoms: N_5  and  C_6 
REMARK    2  A    between atoms: C_6  and  C_7 
REMARK       I    between atoms: C_7  and  N_8 
REMARK    3  A    between atoms: N_8  and  C_9 
REMARK    4  A    between atoms: C_9  and  C_10 
REMARK    5  A    between atoms: C_10  and  C_11 
REMARK    6  A    between atoms: C_11  and  C_12 
ROOT
HETATM    1  C   UNL     1      45.346 -12.465   8.345  1.00  0.00     0.309 C 
HETATM    2  N   UNL     1      44.409 -13.367   7.889  1.00  0.00    -0.353 N 
HETATM    3  O   UNL     1      46.527 -12.432   8.033  1.00  0.00    -0.262 OA
HETATM    4  H   UNL     1      43.478 -13.287   8.294  1.00  0.00     0.162 HD
ENDROOT
BRANCH   1   5
HETATM    5  C   UNL     1      44.774 -11.450   9.361  1.00  0.00     0.314 C 
HETATM    6  N   UNL     1      43.560 -11.841   9.866  1.00  0.00    -0.317 N 
HETATM    7  H   UNL     1      43.191 -12.736   9.533  1.00  0.00     0.169 HD
HETATM    8  O   UNL     1      45.419 -10.438   9.600  1.00  0.00    -0.262 OA
BRANCH   6   9
HETATM    9  C   UNL     1      42.728 -11.172  10.793  1.00  0.00     0.065 A 
HETATM   10  C   UNL     1      43.071 -11.005  12.141  1.00  0.00     0.038 A 
HETATM   11  C   UNL     1      42.212 -10.332  13.015  1.00  0.00    -0.059 A 
HETATM   12  C   UNL     1      42.576 -10.142  14.459  1.00  0.00     0.048 C 
HETATM   13  C   UNL     1      41.005  -9.826  12.525  1.00  0.00     0.020 A 
HETATM   14  C   UNL     1      40.654  -9.991  11.175  1.00  0.00    -0.005 A 
HETATM   15  C   UNL     1      41.518 -10.668  10.289  1.00  0.00     0.093 A 
HETATM   16  C   UNL     1      39.446  -9.489  10.670  1.00  0.00     0.015 A 
HETATM   17  N   UNL     1      41.204 -10.838   8.982  1.00  0.00    -0.258 NA
HETATM   18  C   UNL     1      40.030 -10.341   8.534  1.00  0.00     0.117 A 
HETATM   19  C   UNL     1      39.128  -9.666   9.330  1.00  0.00     0.020 A 
ENDBRANCH   6   9
ENDBRANCH   1   5
BRANCH   2  20
HETATM   20  C   UNL     1      44.748 -14.487   7.043  1.00  0.00     0.123 C 
BRANCH  20  21
HETATM   21  C   UNL     1      43.801 -15.671   7.226  1.00  0.00     0.024 C 
BRANCH  21  22
HETATM   22  C   UNL     1      44.368 -16.966   6.641  1.00  0.00     0.042 C 
BRANCH  22  23
HETATM   23  C   UNL     1      43.761 -17.302   5.317  1.00  0.00    -0.030 A 
HETATM   24  C   UNL     1      44.027 -18.467   4.527  1.00  0.00    -0.002 A 
HETATM   25  C   UNL     1      43.247 -18.379   3.374  1.00  0.00     0.042 A 
HETATM   26  C   UNL     1      44.867 -19.590   4.686  1.00  0.00     0.014 A 
HETATM   27  C   UNL     1      43.261 -19.357   2.372  1.00  0.00     0.030 A 
HETATM   28  N   UNL     1      42.533 -17.206   3.459  1.00  0.00    -0.365 N 
HETATM   29  C   UNL     1      44.101 -20.460   2.555  1.00  0.00     0.002 A 
HETATM   30  C   UNL     1      44.893 -20.576   3.695  1.00  0.00     0.001 A 
HETATM   31  H   UNL     1      41.882 -16.883   2.758  1.00  0.00     0.165 HD
HETATM   32  C   UNL     1      42.834 -16.551   4.623  1.00  0.00     0.096 A 
ENDBRANCH  22  23
ENDBRANCH  21  22
ENDBRANCH  20  21
ENDBRANCH   2  20
TORSDOF 6
ENDMDL
MODEL 2
REMARK VINA RESULT:      -9.5      5.406      7.415
REMARK  6 active torsions:
REMARK  status: ('A' for Active; 'I' for Inactive)
REMARK    1  A    between atoms: C_4  and  N_5 
REMARK       I    between atoms: N_5  and  C_6 
REMARK    2  A    between atoms: C_6  and  C_7 
REMARK       I    between atoms: C_7  and  N_8 
REMARK    3  A    between atoms: N_8  and  C_9 
REMARK    4  A    between atoms: C_9  and  C_10 
REMARK    5  A    between atoms: C_10  and  C_11 
REMARK    6  A    between atoms: C_11  and  C_12 
ROOT
HETATM    1  C   UNL     1      41.465 -16.237   6.365  1.00  0.00     0.309 C 
HETATM    2  N   UNL     1      42.665 -16.246   7.042  1.00  0.00    -0.353 N 
HETATM    3  O   UNL     1      40.554 -17.041   6.500  1.00  0.00    -0.262 OA
HETATM    4  H   UNL     1      43.338 -15.534   6.768  1.00  0.00     0.162 HD
ENDROOT
BRANCH   1   5
HETATM    5  C   UNL     1      41.349 -15.086   5.340  1.00  0.00     0.314 C 
HETATM    6  N   UNL     1      40.446 -15.359   4.344  1.00  0.00    -0.317 N 
HETATM    7  H   UNL     1      39.960 -16.258   4.400  1.00  0.00     0.169 HD
HETATM    8  O   UNL     1      42.046 -14.093   5.498  1.00  0.00    -0.262 OA
BRANCH   6   9
HETATM    9  C   UNL     1      40.087 -14.566   3.230  1.00  0.00     0.065 A 
HETATM   10  C   UNL     1      39.368 -13.370   3.348  1.00  0.00     0.038 A 
HETATM   11  C   UNL     1      39.041 -12.622   2.213  1.00  0.00    -0.059 A 
HETATM   12  C   UNL     1      38.278 -11.335   2.331  1.00  0.00     0.048 C 
HETATM   13  C   UNL     1      39.443 -13.085   0.957  1.00  0.00     0.020 A 
HETATM   14  C   UNL     1      40.163 -14.284   0.831  1.00  0.00    -0.005 A 
HETATM   15  C   UNL     1      40.495 -15.041   1.974  1.00  0.00     0.093 A 
HETATM   16  C   UNL     1      40.572 -14.760  -0.423  1.00  0.00     0.015 A 
HETATM   17  N   UNL     1      41.192 -16.200   1.880  1.00  0.00    -0.258 NA
HETATM   18  C   UNL     1      41.566 -16.626   0.654  1.00  0.00     0.117 A 
HETATM   19  C   UNL     1      41.284 -15.949  -0.515  1.00  0.00     0.020 A 
ENDBRANCH   6   9
ENDBRANCH   1   5
BRANCH   2  20
HETATM   20  C   UNL     1      43.046 -17.307   7.944  1.00  0.00     0.123 C 
BRANCH  20  21
HETATM   21  C   UNL     1      43.558 -18.546   7.212  1.00  0.00     0.024 C 
BRANCH  21  22
HETATM   22  C   UNL     1      44.671 -18.214   6.215  1.00  0.00     0.042 C 
BRANCH  22  23
HETATM   23  C   UNL     1      44.300 -18.571   4.812  1.00  0.00    -0.030 A 
HETATM   24  C   UNL     1      44.379 -19.868   4.212  1.00  0.00    -0.002 A 
HETATM   25  C   UNL     1      43.934 -19.750   2.895  1.00  0.00     0.042 A 
HETATM   26  C   UNL     1      44.794 -21.137   4.669  1.00  0.00     0.014 A 
HETATM   27  C   UNL     1      43.880 -20.835   2.012  1.00  0.00     0.030 A 
HETATM   28  N   UNL     1      43.596 -18.431   2.701  1.00  0.00    -0.365 N 
HETATM   29  C   UNL     1      44.296 -22.081   2.490  1.00  0.00     0.002 A 
HETATM   30  C   UNL     1      44.747 -22.232   3.800  1.00  0.00     0.001 A 
HETATM   31  H   UNL     1      43.240 -18.054   1.834  1.00  0.00     0.165 HD
HETATM   32  C   UNL     1      43.812 -17.712   3.847  1.00  0.00     0.096 A 
ENDBRANCH  22  23
ENDBRANCH  21  22
ENDBRANCH  20  21
ENDBRANCH   2  20
TORSDOF 6
ENDMDL
MODEL 3
REMARK VINA RESULT:      -9.3      1.593      1.991
REMARK  6 active torsions:
REMARK  status: ('A' for Active; 'I' for Inactive)
REMARK    1  A    between atoms: C_4  and  N_5 
REMARK       I    between atoms: N_5  and  C_6 
REMARK    2  A    between atoms: C_6  and  C_7 
REMARK       I    between atoms: C_7  and  N_8 
REMARK    3  A    between atoms: N_8  and  C_9 
REMARK    4  A    between atoms: C_9  and  C_10 
REMARK    5  A    between atoms: C_10  and  C_11 
REMARK    6  A    between atoms: C_11  and  C_12 
ROOT
HETATM    1  C   UNL     1      44.898 -13.425   7.476  1.00  0.00     0.309 C 
HETATM    2  N   UNL     1      43.736 -14.158   7.366  1.00  0.00    -0.353 N 
HETATM    3  O   UNL     1      45.926 -13.604   6.841  1.00  0.00    -0.262 OA
HETATM    4  H   UNL     1      42.989 -13.911   8.011  1.00  0.00     0.162 HD
ENDROOT
BRANCH   1   5
HETATM    5  C   UNL     1      44.817 -12.308   8.541  1.00  0.00     0.314 C 
HETATM    6  N   UNL     1      43.523 -11.993   8.874  1.00  0.00    -0.317 N 
HETATM    7  H   UNL     1      42.786 -12.526   8.404  1.00  0.00     0.169 HD
HETATM    8  O   UNL     1      45.860 -11.824   8.959  1.00  0.00    -0.262 OA
BRANCH   6   9
HETATM    9  C   UNL     1      43.054 -11.020   9.785  1.00  0.00     0.065 A 
HETATM   10  C   UNL     1      43.341 -11.059  11.155  1.00  0.00     0.038 A 
HETATM   11  C   UNL     1      42.853 -10.068  12.012  1.00  0.00    -0.059 A 
HETATM   12  C   UNL     1      43.163 -10.098  13.481  1.00  0.00     0.048 C 
HETATM   13  C   UNL     1      42.075  -9.035  11.482  1.00  0.00     0.020 A 
HETATM   14  C   UNL     1      41.782  -8.990  10.109  1.00  0.00    -0.005 A 
HETATM   15  C   UNL     1      42.273  -9.987   9.241  1.00  0.00     0.093 A 
HETATM   16  C   UNL     1      41.002  -7.960   9.564  1.00  0.00     0.015 A 
HETATM   17  N   UNL     1      42.007  -9.965   7.912  1.00  0.00    -0.258 NA
HETATM   18  C   UNL     1      41.251  -8.957   7.425  1.00  0.00     0.117 A 
HETATM   19  C   UNL     1      40.731  -7.942   8.202  1.00  0.00     0.020 A 
ENDBRANCH   6   9
ENDBRANCH   1   5
BRANCH   2  20
HETATM   20  C   UNL     1      43.630 -15.335   6.535  1.00  0.00     0.123 C 
BRANCH  20  21
HETATM   21  C   UNL     1      43.879 -16.627   7.312  1.00  0.00     0.024 C 
BRANCH  21  22
HETATM   22  C   UNL     1      42.883 -17.728   6.944  1.00  0.00     0.042 C 
BRANCH  22  23
HETATM   23  C   UNL     1      43.482 -18.752   6.033  1.00  0.00    -0.030 A 
HETATM   24  C   UNL     1      43.579 -18.672   4.606  1.00  0.00    -0.002 A 
HETATM   25  C   UNL     1      44.206 -19.836   4.163  1.00  0.00     0.042 A 
HETATM   26  C   UNL     1      43.187 -17.713   3.648  1.00  0.00     0.014 A 
HETATM   27  C   UNL     1      44.463 -20.091   2.810  1.00  0.00     0.030 A 
HETATM   28  N   UNL     1      44.480 -20.596   5.277  1.00  0.00    -0.365 N 
HETATM   29  C   UNL     1      44.065 -19.126   1.882  1.00  0.00     0.002 A 
HETATM   30  C   UNL     1      43.436 -17.952   2.292  1.00  0.00     0.001 A 
HETATM   31  H   UNL     1      44.935 -21.497   5.255  1.00  0.00     0.165 HD
HETATM   32  C   UNL     1      44.049 -19.954   6.407  1.00  0.00     0.096 A 
ENDBRANCH  22  23
ENDBRANCH  21  22
ENDBRANCH  20  21
ENDBRANCH   2  20
TORSDOF 6
ENDMDL
MODEL 4
REMARK VINA RESULT:      -9.2      6.848     10.300
REMARK  6 active torsions:
REMARK  status: ('A' for Active; 'I' for Inactive)
REMARK    1  A    between atoms: C_4  and  N_5 
REMARK       I    between atoms: N_5  and  C_6 
REMARK    2  A    between atoms: C_6  and  C_7 
REMARK       I    between atoms: C_7  and  N_8 
REMARK    3  A    between atoms: N_8  and  C_9 
REMARK    4  A    between atoms: C_9  and  C_10 
REMARK    5  A    between atoms: C_10  and  C_11 
REMARK    6  A    between atoms: C_11  and  C_12 
ROOT
HETATM    1  C   UNL     1      40.455 -16.038   2.093  1.00  0.00     0.309 C 
HETATM    2  N   UNL     1      39.453 -15.183   2.497  1.00  0.00    -0.353 N 
HETATM    3  O   UNL     1      40.761 -16.297   0.939  1.00  0.00    -0.262 OA
HETATM    4  H   UNL     1      39.294 -15.123   3.500  1.00  0.00     0.162 HD
ENDROOT
BRANCH   1   5
HETATM    5  C   UNL     1      41.198 -16.709   3.271  1.00  0.00     0.314 C 
HETATM    6  N   UNL     1      42.322 -17.384   2.866  1.00  0.00    -0.317 N 
HETATM    7  H   UNL     1      42.539 -17.355   1.866  1.00  0.00     0.169 HD
HETATM    8  O   UNL     1      40.732 -16.592   4.397  1.00  0.00    -0.262 OA
BRANCH   6   9
HETATM    9  C   UNL     1      43.237 -18.130   3.644  1.00  0.00     0.065 A 
HETATM   10  C   UNL     1      43.803 -17.642   4.828  1.00  0.00     0.038 A 
HETATM   11  C   UNL     1      44.701 -18.423   5.561  1.00  0.00    -0.059 A 
HETATM   12  C   UNL     1      45.307 -17.911   6.836  1.00  0.00     0.048 C 
HETATM   13  C   UNL     1      45.027 -19.700   5.095  1.00  0.00     0.020 A 
HETATM   14  C   UNL     1      44.464 -20.196   3.908  1.00  0.00    -0.005 A 
HETATM   15  C   UNL     1      43.556 -19.411   3.166  1.00  0.00     0.093 A 
HETATM   16  C   UNL     1      44.782 -21.474   3.429  1.00  0.00     0.015 A 
HETATM   17  N   UNL     1      42.997 -19.866   2.019  1.00  0.00    -0.258 NA
HETATM   18  C   UNL     1      43.330 -21.103   1.589  1.00  0.00     0.117 A 
HETATM   19  C   UNL     1      44.207 -21.937   2.252  1.00  0.00     0.020 A 
ENDBRANCH   6   9
ENDBRANCH   1   5
BRANCH   2  20
HETATM   20  C   UNL     1      38.541 -14.554   1.570  1.00  0.00     0.123 C 
BRANCH  20  21
HETATM   21  C   UNL     1      38.781 -13.051   1.438  1.00  0.00     0.024 C 
BRANCH  21  22
HETATM   22  C   UNL     1      38.789 -12.590  -0.022  1.00  0.00     0.042 C 
BRANCH  22  23
HETATM   23  C   UNL     1      39.656 -13.452  -0.882  1.00  0.00    -0.030 A 
HETATM   24  C   UNL     1      39.230 -14.260  -1.985  1.00  0.00    -0.002 A 
HETATM   25  C   UNL     1      40.360 -14.893  -2.503  1.00  0.00     0.042 A 
HETATM   26  C   UNL     1      37.981 -14.515  -2.590  1.00  0.00     0.014 A 
HETATM   27  C   UNL     1      40.306 -15.766  -3.596  1.00  0.00     0.030 A 
HETATM   28  N   UNL     1      41.433 -14.485  -1.745  1.00  0.00    -0.365 N 
HETATM   29  C   UNL     1      39.057 -16.001  -4.177  1.00  0.00     0.002 A 
HETATM   30  C   UNL     1      37.909 -15.385  -3.682  1.00  0.00     0.001 A 
HETATM   31  H   UNL     1      42.386 -14.787  -1.895  1.00  0.00     0.165 HD
HETATM   32  C   UNL     1      41.023 -13.619  -0.768  1.00  0.00     0.096 A 
ENDBRANCH  22  23
ENDBRANCH  21  22
ENDBRANCH  20  21
ENDBRANCH   2  20
TORSDOF 6
ENDMDL
MODEL 5
REMARK VINA RESULT:      -9.1      2.575      3.997
REMARK  6 active torsions:
REMARK  status: ('A' for Active; 'I' for Inactive)
REMARK    1  A    between atoms: C_4  and  N_5 
REMARK       I    between atoms: N_5  and  C_6 
REMARK    2  A    between atoms: C_6  and  C_7 
REMARK       I    between atoms: C_7  and  N_8 
REMARK    3  A    between atoms: N_8  and  C_9 
REMARK    4  A    between atoms: C_9  and  C_10 
REMARK    5  A    between atoms: C_10  and  C_11 
REMARK    6  A    between atoms: C_11  and  C_12 
ROOT
HETATM    1  C   UNL     1      39.452 -12.364   6.622  1.00  0.00     0.309 C 
HETATM    2  N   UNL     1      40.101 -13.579   6.630  1.00  0.00    -0.353 N 
HETATM    3  O   UNL     1      38.758 -11.923   5.719  1.00  0.00    -0.262 OA
HETATM    4  H   UNL     1      40.685 -13.768   7.442  1.00  0.00     0.162 HD
ENDROOT
BRANCH   1   5
HETATM    5  C   UNL     1      39.697 -11.531   7.901  1.00  0.00     0.314 C 
HETATM    6  N   UNL     1      41.032 -11.342   8.156  1.00  0.00    -0.317 N 
HETATM    7  H   UNL     1      41.689 -11.749   7.485  1.00  0.00     0.169 HD
HETATM    8  O   UNL     1      38.728 -11.147   8.542  1.00  0.00    -0.262 OA
BRANCH   6   9
HETATM    9  C   UNL     1      41.641 -10.657   9.233  1.00  0.00     0.065 A 
HETATM   10  C   UNL     1      40.945  -9.762  10.056  1.00  0.00     0.038 A 
HETATM   11  C   UNL     1      41.596  -9.113  11.110  1.00  0.00    -0.059 A 
HETATM   12  C   UNL     1      40.856  -8.159  12.001  1.00  0.00     0.048 C 
HETATM   13  C   UNL     1      42.952  -9.371  11.332  1.00  0.00     0.020 A 
HETATM   14  C   UNL     1      43.656 -10.266  10.510  1.00  0.00    -0.005 A 
HETATM   15  C   UNL     1      43.003 -10.923   9.446  1.00  0.00     0.093 A 
HETATM   16  C   UNL     1      45.016 -10.533  10.721  1.00  0.00     0.015 A 
HETATM   17  N   UNL     1      43.658 -11.793   8.640  1.00  0.00    -0.258 NA
HETATM   18  C   UNL     1      44.969 -12.023   8.875  1.00  0.00     0.117 A 
HETATM   19  C   UNL     1      45.684 -11.425   9.892  1.00  0.00     0.020 A 
ENDBRANCH   6   9
ENDBRANCH   1   5
BRANCH   2  20
HETATM   20  C   UNL     1      40.126 -14.460   5.486  1.00  0.00     0.123 C 
BRANCH  20  21
HETATM   21  C   UNL     1      40.676 -15.845   5.821  1.00  0.00     0.024 C 
BRANCH  21  22
HETATM   22  C   UNL     1      41.218 -16.570   4.587  1.00  0.00     0.042 C 
BRANCH  22  23
HETATM   23  C   UNL     1      42.275 -17.568   4.936  1.00  0.00    -0.030 A 
HETATM   24  C   UNL     1      42.944 -18.454   4.032  1.00  0.00    -0.002 A 
HETATM   25  C   UNL     1      43.852 -19.207   4.777  1.00  0.00     0.042 A 
HETATM   26  C   UNL     1      42.857 -18.689   2.643  1.00  0.00     0.014 A 
HETATM   27  C   UNL     1      44.680 -20.180   4.205  1.00  0.00     0.030 A 
HETATM   28  N   UNL     1      43.741 -18.794   6.084  1.00  0.00    -0.365 N 
HETATM   29  C   UNL     1      44.575 -20.392   2.827  1.00  0.00     0.002 A 
HETATM   30  C   UNL     1      43.676 -19.658   2.055  1.00  0.00     0.001 A 
HETATM   31  H   UNL     1      44.284 -19.169   6.849  1.00  0.00     0.165 HD
HETATM   32  C   UNL     1      42.796 -17.809   6.192  1.00  0.00     0.096 A 
ENDBRANCH  22  23
ENDBRANCH  21  22
ENDBRANCH  20  21
ENDBRANCH   2  20
TORSDOF 6
ENDMDL
MODEL 6
REMARK VINA RESULT:      -9.0      2.154     10.105
REMARK  6 active torsions:
REMARK  status: ('A' for Active; 'I' for Inactive)
REMARK    1  A    between atoms: C_4  and  N_5 
REMARK       I    between atoms: N_5  and  C_6 
REMARK    2  A    between atoms: C_6  and  C_7 
REMARK       I    between atoms: C_7  and  N_8 
REMARK    3  A    between atoms: N_8  and  C_9 
REMARK    4  A    between atoms: C_9  and  C_10 
REMARK    5  A    between atoms: C_10  and  C_11 
REMARK    6  A    between atoms: C_11  and  C_12 
ROOT
HETATM    1  C   UNL     1      44.896 -12.699   8.616  1.00  0.00     0.309 C 
HETATM    2  N   UNL     1      43.742 -11.948   8.652  1.00  0.00    -0.353 N 
HETATM    3  O   UNL     1      45.835 -12.616   9.394  1.00  0.00    -0.262 OA
HETATM    4  H   UNL     1      43.082 -12.106   7.893  1.00  0.00     0.162 HD
ENDROOT
BRANCH   1   5
HETATM    5  C   UNL     1      44.939 -13.698   7.437  1.00  0.00     0.314 C 
HETATM    6  N   UNL     1      43.890 -14.582   7.460  1.00  0.00    -0.317 N 
HETATM    7  H   UNL     1      43.215 -14.473   8.222  1.00  0.00     0.169 HD
HETATM    8  O   UNL     1      45.865 -13.620   6.640  1.00  0.00    -0.262 OA
BRANCH   6   9
HETATM    9  C   UNL     1      43.604 -15.642   6.571  1.00  0.00     0.065 A 
HETATM   10  C   UNL     1      44.313 -16.851   6.575  1.00  0.00     0.038 A 
HETATM   11  C   UNL     1      43.987 -17.869   5.674  1.00  0.00    -0.059 A 
HETATM   12  C   UNL     1      44.736 -19.170   5.676  1.00  0.00     0.048 C 
HETATM   13  C   UNL     1      42.941 -17.665   4.769  1.00  0.00     0.020 A 
HETATM   14  C   UNL     1      42.227 -16.456   4.758  1.00  0.00    -0.005 A 
HETATM   15  C   UNL     1      42.552 -15.426   5.666  1.00  0.00     0.093 A 
HETATM   16  C   UNL     1      41.177 -16.238   3.855  1.00  0.00     0.015 A 
HETATM   17  N   UNL     1      41.877 -14.252   5.679  1.00  0.00    -0.258 NA
HETATM   18  C   UNL     1      40.872 -14.079   4.792  1.00  0.00     0.117 A 
HETATM   19  C   UNL     1      40.488 -15.032   3.871  1.00  0.00     0.020 A 
ENDBRANCH   6   9
ENDBRANCH   1   5
BRANCH   2  20
HETATM   20  C   UNL     1      43.545 -10.860   9.581  1.00  0.00     0.123 C 
BRANCH  20  21
HETATM   21  C   UNL     1      43.136 -11.341  10.972  1.00  0.00     0.024 C 
BRANCH  21  22
HETATM   22  C   UNL     1      43.817 -10.543  12.086  1.00  0.00     0.042 C 
BRANCH  22  23
HETATM   23  C   UNL     1      42.994  -9.378  12.533  1.00  0.00    -0.030 A 
HETATM   24  C   UNL     1      42.384  -9.205  13.817  1.00  0.00    -0.002 A 
HETATM   25  C   UNL     1      41.715  -7.981  13.803  1.00  0.00     0.042 A 
HETATM   26  C   UNL     1      42.336  -9.984  14.992  1.00  0.00     0.014 A 
HETATM   27  C   UNL     1      41.003  -7.494  14.905  1.00  0.00     0.030 A 
HETATM   28  N   UNL     1      41.912  -7.429  12.559  1.00  0.00    -0.365 N 
HETATM   29  C   UNL     1      40.971  -8.284  16.058  1.00  0.00     0.002 A 
HETATM   30  C   UNL     1      41.628  -9.512  16.103  1.00  0.00     0.001 A 
HETATM   31  H   UNL     1      41.540  -6.537  12.265  1.00  0.00     0.165 HD
HETATM   32  C   UNL     1      42.679  -8.259  11.786  1.00  0.00     0.096 A 
ENDBRANCH  22  23
ENDBRANCH  21  22
ENDBRANCH  20  21
ENDBRANCH   2  20
TORSDOF 6
ENDMDL
MODEL 7
REMARK VINA RESULT:      -9.0      2.150     10.043
REMARK  6 active torsions:
REMARK  status: ('A' for Active; 'I' for Inactive)
REMARK    1  A    between atoms: C_4  and  N_5 
REMARK       I    between atoms: N_5  and  C_6 
REMARK    2  A    between atoms: C_6  and  C_7 
REMARK       I    between atoms: C_7  and  N_8 
REMARK    3  A    between atoms: N_8  and  C_9 
REMARK    4  A    between atoms: C_9  and  C_10 
REMARK    5  A    between atoms: C_10  and  C_11 
REMARK    6  A    between atoms: C_11  and  C_12 
ROOT
HETATM    1  C   UNL     1      42.054 -12.760   5.638  1.00  0.00     0.309 C 
HETATM    2  N   UNL     1      41.872 -12.154   6.862  1.00  0.00    -0.353 N 
HETATM    3  O   UNL     1      41.568 -12.400   4.576  1.00  0.00    -0.262 OA
HETATM    4  H   UNL     1      42.306 -12.617   7.658  1.00  0.00     0.162 HD
ENDROOT
BRANCH   1   5
HETATM    5  C   UNL     1      42.950 -14.018   5.704  1.00  0.00     0.314 C 
HETATM    6  N   UNL     1      42.374 -15.105   5.097  1.00  0.00    -0.317 N 
HETATM    7  H   UNL     1      41.453 -14.959   4.674  1.00  0.00     0.169 HD
HETATM    8  O   UNL     1      44.031 -13.934   6.273  1.00  0.00    -0.262 OA
BRANCH   6   9
HETATM    9  C   UNL     1      42.874 -16.421   4.975  1.00  0.00     0.065 A 
HETATM   10  C   UNL     1      43.090 -17.258   6.077  1.00  0.00     0.038 A 
HETATM   11  C   UNL     1      43.585 -18.553   5.900  1.00  0.00    -0.059 A 
HETATM   12  C   UNL     1      43.812 -19.460   7.075  1.00  0.00     0.048 C 
HETATM   13  C   UNL     1      43.860 -19.003   4.605  1.00  0.00     0.020 A 
HETATM   14  C   UNL     1      43.647 -18.169   3.496  1.00  0.00    -0.005 A 
HETATM   15  C   UNL     1      43.148 -16.862   3.671  1.00  0.00     0.093 A 
HETATM   16  C   UNL     1      43.921 -18.607   2.193  1.00  0.00     0.015 A 
HETATM   17  N   UNL     1      42.931 -16.038   2.617  1.00  0.00    -0.258 NA
HETATM   18  C   UNL     1      43.207 -16.496   1.376  1.00  0.00     0.117 A 
HETATM   19  C   UNL     1      43.698 -17.759   1.115  1.00  0.00     0.020 A 
ENDBRANCH   6   9
ENDBRANCH   1   5
BRANCH   2  20
HETATM   20  C   UNL     1      40.965 -11.048   7.060  1.00  0.00     0.123 C 
BRANCH  20  21
HETATM   21  C   UNL     1      41.504 -10.015   8.048  1.00  0.00     0.024 C 
BRANCH  21  22
HETATM   22  C   UNL     1      42.357 -10.652   9.147  1.00  0.00     0.042 C 
BRANCH  22  23
HETATM   23  C   UNL     1      41.631 -10.733  10.452  1.00  0.00    -0.030 A 
HETATM   24  C   UNL     1      42.132 -10.338  11.734  1.00  0.00    -0.002 A 
HETATM   25  C   UNL     1      41.128 -10.583  12.670  1.00  0.00     0.042 A 
HETATM   26  C   UNL     1      43.355  -9.797  12.185  1.00  0.00     0.014 A 
HETATM   27  C   UNL     1      41.282 -10.312  14.035  1.00  0.00     0.030 A 
HETATM   28  N   UNL     1      40.056 -11.106  11.985  1.00  0.00    -0.365 N 
HETATM   29  C   UNL     1      42.502  -9.775  14.456  1.00  0.00     0.002 A 
HETATM   30  C   UNL     1      43.525  -9.521  13.546  1.00  0.00     0.001 A 
HETATM   31  H   UNL     1      39.183 -11.378  12.413  1.00  0.00     0.165 HD
HETATM   32  C   UNL     1      40.347 -11.201  10.650  1.00  0.00     0.096 A 
ENDBRANCH  22  23
ENDBRANCH  21  22
ENDBRANCH  20  21
ENDBRANCH   2  20
TORSDOF 6
ENDMDL
MODEL 8
REMARK VINA RESULT:      -9.0      6.199      9.646
REMARK  6 active torsions:
REMARK  status: ('A' for Active; 'I' for Inactive)
REMARK    1  A    between atoms: C_4  and  N_5 
REMARK       I    between atoms: N_5  and  C_6 
REMARK    2  A    between atoms: C_6  and  C_7 
REMARK       I    between atoms: C_7  and  N_8 
REMARK    3  A    between atoms: N_8  and  C_9 
REMARK    4  A    between atoms: C_9  and  C_10 
REMARK    5  A    between atoms: C_10  and  C_11 
REMARK    6  A    between atoms: C_11  and  C_12 
ROOT
HETATM    1  C   UNL     1      41.960 -14.976   2.876  1.00  0.00     0.309 C 
HETATM    2  N   UNL     1      41.412 -15.841   3.798  1.00  0.00    -0.353 N 
HETATM    3  O   UNL     1      42.950 -14.279   3.041  1.00  0.00    -0.262 OA
HETATM    4  H   UNL     1      40.551 -16.306   3.518  1.00  0.00     0.162 HD
ENDROOT
BRANCH   1   5
HETATM    5  C   UNL     1      41.176 -14.924   1.545  1.00  0.00     0.314 C 
HETATM    6  N   UNL     1      41.951 -14.495   0.497  1.00  0.00    -0.317 N 
HETATM    7  H   UNL     1      42.929 -14.278   0.708  1.00  0.00     0.169 HD
HETATM    8  O   UNL     1      39.995 -15.244   1.551  1.00  0.00    -0.262 OA
BRANCH   6   9
HETATM    9  C   UNL     1      41.585 -14.301  -0.855  1.00  0.00     0.065 A 
HETATM   10  C   UNL     1      40.852 -15.243  -1.587  1.00  0.00     0.038 A 
HETATM   11  C   UNL     1      40.514 -15.000  -2.922  1.00  0.00    -0.059 A 
HETATM   12  C   UNL     1      39.722 -16.000  -3.712  1.00  0.00     0.048 C 
HETATM   13  C   UNL     1      40.918 -13.801  -3.516  1.00  0.00     0.020 A 
HETATM   14  C   UNL     1      41.655 -12.852  -2.788  1.00  0.00    -0.005 A 
HETATM   15  C   UNL     1      41.997 -13.093  -1.441  1.00  0.00     0.093 A 
HETATM   16  C   UNL     1      42.068 -11.646  -3.373  1.00  0.00     0.015 A 
HETATM   17  N   UNL     1      42.705 -12.194  -0.717  1.00  0.00    -0.258 NA
HETATM   18  C   UNL     1      43.085 -11.043  -1.315  1.00  0.00     0.117 A 
HETATM   19  C   UNL     1      42.794 -10.727  -2.626  1.00  0.00     0.020 A 
ENDBRANCH   6   9
ENDBRANCH   1   5
BRANCH   2  20
HETATM   20  C   UNL     1      41.896 -15.947   5.155  1.00  0.00     0.123 C 
BRANCH  20  21
HETATM   21  C   UNL     1      42.487 -17.322   5.462  1.00  0.00     0.024 C 
BRANCH  21  22
HETATM   22  C   UNL     1      43.877 -17.508   4.849  1.00  0.00     0.042 C 
BRANCH  22  23
HETATM   23  C   UNL     1      43.889 -18.556   3.782  1.00  0.00    -0.030 A 
HETATM   24  C   UNL     1      44.221 -19.939   3.948  1.00  0.00    -0.002 A 
HETATM   25  C   UNL     1      44.101 -20.552   2.701  1.00  0.00     0.042 A 
HETATM   26  C   UNL     1      44.619 -20.727   5.049  1.00  0.00     0.014 A 
HETATM   27  C   UNL     1      44.355 -21.914   2.498  1.00  0.00     0.030 A 
HETATM   28  N   UNL     1      43.709 -19.580   1.811  1.00  0.00    -0.365 N 
HETATM   29  C   UNL     1      44.747 -22.672   3.605  1.00  0.00     0.002 A 
HETATM   30  C   UNL     1      44.878 -22.089   4.864  1.00  0.00     0.001 A 
HETATM   31  H   UNL     1      43.543 -19.740   0.827  1.00  0.00     0.165 HD
HETATM   32  C   UNL     1      43.578 -18.376   2.449  1.00  0.00     0.096 A 
ENDBRANCH  22  23
ENDBRANCH  21  22
ENDBRANCH  20  21
ENDBRANCH   2  20
TORSDOF 6
ENDMDL
MODEL 9
REMARK VINA RESULT:      -8.9      6.449     10.251
REMARK  6 active torsions:
REMARK  status: ('A' for Active; 'I' for Inactive)
REMARK    1  A    between atoms: C_4  and  N_5 
REMARK       I    between atoms: N_5  and  C_6 
REMARK    2  A    between atoms: C_6  and  C_7 
REMARK       I    between atoms: C_7  and  N_8 
REMARK    3  A    between atoms: N_8  and  C_9 
REMARK    4  A    between atoms: C_9  and  C_10 
REMARK    5  A    between atoms: C_10  and  C_11 
REMARK    6  A    between atoms: C_11  and  C_12 
ROOT
HETATM    1  C   UNL     1      40.327 -15.460   1.808  1.00  0.00     0.309 C 
HETATM    2  N   UNL     1      40.710 -14.137   1.801  1.00  0.00    -0.353 N 
HETATM    3  O   UNL     1      39.184 -15.879   1.914  1.00  0.00    -0.262 OA
HETATM    4  H   UNL     1      41.712 -13.962   1.760  1.00  0.00     0.162 HD
ENDROOT
BRANCH   1   5
HETATM    5  C   UNL     1      41.515 -16.442   1.691  1.00  0.00     0.314 C 
HETATM    6  N   UNL     1      41.650 -17.237   2.802  1.00  0.00    -0.317 N 
HETATM    7  H   UNL     1      40.963 -17.101   3.549  1.00  0.00     0.169 HD
HETATM    8  O   UNL     1      42.197 -16.414   0.676  1.00  0.00    -0.262 OA
BRANCH   6   9
HETATM    9  C   UNL     1      42.620 -18.229   3.070  1.00  0.00     0.065 A 
HETATM   10  C   UNL     1      42.830 -19.332   2.232  1.00  0.00     0.038 A 
HETATM   11  C   UNL     1      43.805 -20.285   2.543  1.00  0.00    -0.059 A 
HETATM   12  C   UNL     1      44.043 -21.466   1.647  1.00  0.00     0.048 C 
HETATM   13  C   UNL     1      44.570 -20.120   3.701  1.00  0.00     0.020 A 
HETATM   14  C   UNL     1      44.364 -19.017   4.546  1.00  0.00    -0.005 A 
HETATM   15  C   UNL     1      43.381 -18.054   4.236  1.00  0.00     0.093 A 
HETATM   16  C   UNL     1      45.123 -18.841   5.711  1.00  0.00     0.015 A 
HETATM   17  N   UNL     1      43.164 -16.979   5.033  1.00  0.00    -0.258 NA
HETATM   18  C   UNL     1      43.915 -16.845   6.148  1.00  0.00     0.117 A 
HETATM   19  C   UNL     1      44.896 -17.738   6.526  1.00  0.00     0.020 A 
ENDBRANCH   6   9
ENDBRANCH   1   5
BRANCH   2  20
HETATM   20  C   UNL     1      39.785 -13.053   2.036  1.00  0.00     0.123 C 
BRANCH  20  21
HETATM   21  C   UNL     1      38.971 -12.695   0.794  1.00  0.00     0.024 C 
BRANCH  21  22
HETATM   22  C   UNL     1      39.853 -12.207  -0.358  1.00  0.00     0.042 C 
BRANCH  22  23
HETATM   23  C   UNL     1      40.298 -13.326  -1.243  1.00  0.00    -0.030 A 
HETATM   24  C   UNL     1      39.472 -14.105  -2.115  1.00  0.00    -0.002 A 
HETATM   25  C   UNL     1      40.293 -15.035  -2.751  1.00  0.00     0.042 A 
HETATM   26  C   UNL     1      38.093 -14.107  -2.419  1.00  0.00     0.014 A 
HETATM   27  C   UNL     1      39.809 -15.966  -3.679  1.00  0.00     0.030 A 
HETATM   28  N   UNL     1      41.571 -14.830  -2.286  1.00  0.00    -0.365 N 
HETATM   29  C   UNL     1      38.440 -15.946  -3.963  1.00  0.00     0.002 A 
HETATM   30  C   UNL     1      37.593 -15.030  -3.342  1.00  0.00     0.001 A 
HETATM   31  H   UNL     1      42.377 -15.364  -2.578  1.00  0.00     0.165 HD
HETATM   32  C   UNL     1      41.586 -13.805  -1.378  1.00  0.00     0.096 A 
ENDBRANCH  22  23
ENDBRANCH  21  22
ENDBRANCH  20  21
ENDBRANCH   2  20
TORSDOF 6
ENDMDL
MODEL 10
REMARK VINA RESULT:      -8.9      2.531     10.104
REMARK  6 active torsions:
REMARK  status: ('A' for Active; 'I' for Inactive)
REMARK    1  A    between atoms: C_4  and  N_5 
REMARK       I    between atoms: N_5  and  C_6 
REMARK    2  A    between atoms: C_6  and  C_7 
REMARK       I    between atoms: C_7  and  N_8 
REMARK    3  A    between atoms: N_8  and  C_9 
REMARK    4  A    between atoms: C_9  and  C_10 
REMARK    5  A    between atoms: C_10  and  C_11 
REMARK    6  A    between atoms: C_11  and  C_12 
ROOT
HETATM    1  C   UNL     1      41.652 -12.927   5.397  1.00  0.00     0.309 C 
HETATM    2  N   UNL     1      41.136 -12.564   6.622  1.00  0.00    -0.353 N 
HETATM    3  O   UNL     1      42.108 -12.169   4.554  1.00  0.00    -0.262 OA
HETATM    4  H   UNL     1      40.745 -13.318   7.183  1.00  0.00     0.162 HD
ENDROOT
BRANCH   1   5
HETATM    5  C   UNL     1      41.589 -14.449   5.133  1.00  0.00     0.314 C 
HETATM    6  N   UNL     1      42.830 -14.998   4.931  1.00  0.00    -0.317 N 
HETATM    7  H   UNL     1      43.628 -14.360   4.989  1.00  0.00     0.169 HD
HETATM    8  O   UNL     1      40.493 -14.993   5.119  1.00  0.00    -0.262 OA
BRANCH   6   9
HETATM    9  C   UNL     1      43.170 -16.339   4.644  1.00  0.00     0.065 A 
HETATM   10  C   UNL     1      43.278 -16.834   3.338  1.00  0.00     0.038 A 
HETATM   11  C   UNL     1      43.620 -18.171   3.110  1.00  0.00    -0.059 A 
HETATM   12  C   UNL     1      43.745 -18.708   1.714  1.00  0.00     0.048 C 
HETATM   13  C   UNL     1      43.854 -19.007   4.205  1.00  0.00     0.020 A 
HETATM   14  C   UNL     1      43.747 -18.518   5.518  1.00  0.00    -0.005 A 
HETATM   15  C   UNL     1      43.402 -17.170   5.752  1.00  0.00     0.093 A 
HETATM   16  C   UNL     1      43.978 -19.346   6.625  1.00  0.00     0.015 A 
HETATM   17  N   UNL     1      43.295 -16.673   7.007  1.00  0.00    -0.258 NA
HETATM   18  C   UNL     1      43.524 -17.503   8.048  1.00  0.00     0.117 A 
HETATM   19  C   UNL     1      43.866 -18.833   7.910  1.00  0.00     0.020 A 
ENDBRANCH   6   9
ENDBRANCH   1   5
BRANCH   2  20
HETATM   20  C   UNL     1      40.967 -11.187   7.023  1.00  0.00     0.123 C 
BRANCH  20  21
HETATM   21  C   UNL     1      42.072 -10.708   7.962  1.00  0.00     0.024 C 
BRANCH  21  22
HETATM   22  C   UNL     1      41.601  -9.583   8.888  1.00  0.00     0.042 C 
BRANCH  22  23
HETATM   23  C   UNL     1      41.129 -10.099  10.210  1.00  0.00    -0.030 A 
HETATM   24  C   UNL     1      41.817  -9.993  11.462  1.00  0.00    -0.002 A 
HETATM   25  C   UNL     1      41.020 -10.604  12.430  1.00  0.00     0.042 A 
HETATM   26  C   UNL     1      43.050  -9.436  11.860  1.00  0.00     0.014 A 
HETATM   27  C   UNL     1      41.392 -10.684  13.778  1.00  0.00     0.030 A 
HETATM   28  N   UNL     1      39.891 -11.063  11.793  1.00  0.00    -0.365 N 
HETATM   29  C   UNL     1      42.618 -10.123  14.146  1.00  0.00     0.002 A 
HETATM   30  C   UNL     1      43.437  -9.507  13.202  1.00  0.00     0.001 A 
HETATM   31  H   UNL     1      39.134 -11.549  12.252  1.00  0.00     0.165 HD
HETATM   32  C   UNL     1      39.945 -10.765  10.458  1.00  0.00     0.096 A 
ENDBRANCH  22  23
ENDBRANCH  21  22
ENDBRANCH  20  21
ENDBRANCH   2  20
TORSDOF 6
ENDMDL
