MODEL 1
REMARK VINA RESULT:      -8.2      0.000      0.000
REMARK  6 active torsions:
REMARK  status: ('A' for Active; 'I' for Inactive)
REMARK    1  A    between atoms: C_2  and  N_3 
REMARK       I    between atoms: N_3  and  C_4 
REMARK    2  A    between atoms: C_4  and  C_5 
REMARK    3  A    between atoms: C_7  and  N_8 
REMARK       I    between atoms: N_8  and  C_9 
REMARK    4  A    between atoms: C_9  and  C_10 
REMARK    5  A    between atoms: C_10  and  C_11 
REMARK    6  A    between atoms: C_15  and  O_16 
ROOT
HETATM    1  N   UNL     1      43.429 -14.830   6.801  1.00  0.00    -0.327 N 
HETATM    2  C   UNL     1      43.212 -16.115   7.274  1.00  0.00     0.226 C 
HETATM    3  O   UNL     1      43.945 -16.730   8.046  1.00  0.00    -0.273 OA
HETATM    4  H   UNL     1      42.821 -14.503   6.060  1.00  0.00     0.169 HD
ENDROOT
BRANCH   1   5
HETATM    5  C   UNL     1      44.419 -13.925   7.240  1.00  0.00     0.035 A 
HETATM    6  C   UNL     1      44.214 -13.007   8.275  1.00  0.00     0.046 A 
HETATM    7  C   UNL     1      45.230 -12.123   8.664  1.00  0.00     0.034 A 
HETATM    8  C   UNL     1      46.457 -12.151   7.989  1.00  0.00     0.017 A 
HETATM    9  C   UNL     1      46.664 -13.052   6.945  1.00  0.00     0.003 A 
HETATM   10  C   UNL     1      45.647 -13.932   6.570  1.00  0.00     0.029 A 
BRANCH   7  11
HETATM   11  C   UNL     1      45.039 -11.110   9.745  1.00  0.00     0.251 C 
HETATM   12  N   UNL     1      43.950 -11.275  10.579  1.00  0.00    -0.357 N 
HETATM   13  H   UNL     1      43.418 -12.134  10.553  1.00  0.00     0.162 HD
HETATM   14  O   UNL     1      45.838 -10.188   9.866  1.00  0.00    -0.268 OA
BRANCH  12  15
HETATM   15  C   UNL     1      43.678 -10.363  11.670  1.00  0.00     0.118 C 
HETATM   16  C   UNL     1      43.046 -11.078  12.848  1.00  0.00     0.026 C 
ENDBRANCH  12  15
ENDBRANCH   7  11
ENDBRANCH   1   5
BRANCH   2  17
HETATM   17  C   UNL     1      41.944 -16.754   6.734  1.00  0.00     0.144 C 
BRANCH  17  18
HETATM   18  C   UNL     1      42.102 -17.273   5.343  1.00  0.00    -0.014 A 
HETATM   19  C   UNL     1      42.988 -18.293   4.864  1.00  0.00     0.006 A 
HETATM   20  C   UNL     1      42.743 -18.406   3.501  1.00  0.00     0.088 A 
HETATM   21  C   UNL     1      43.964 -19.136   5.428  1.00  0.00     0.017 A 
HETATM   22  C   UNL     1      43.390 -19.307   2.661  1.00  0.00     0.074 A 
HETATM   23  O   UNL     1      41.788 -17.517   3.119  1.00  0.00    -0.321 OA
HETATM   24  C   UNL     1      44.335 -20.159   3.243  1.00  0.00     0.070 A 
HETATM   25  C   UNL     1      44.623 -20.066   4.608  1.00  0.00     0.038 A 
HETATM   26  C   UNL     1      41.412 -16.835   4.228  1.00  0.00     0.151 A 
BRANCH  24  27
HETATM   27  O   UNL     1      44.921 -21.035   2.367  1.00  0.00    -0.356 OA
HETATM   28  C   UNL     1      44.049 -21.880   1.625  1.00  0.00     0.210 C 
ENDBRANCH  24  27
ENDBRANCH  17  18
ENDBRANCH   2  17
TORSDOF 6
ENDMDL
MODEL 2
REMARK VINA RESULT:      -7.9      2.278      9.794
REMARK  6 active torsions:
REMARK  status: ('A' for Active; 'I' for Inactive)
REMARK    1  A    between atoms: C_2  and  N_3 
REMARK       I    between atoms: N_3  and  C_4 
REMARK    2  A    between atoms: C_4  and  C_5 
REMARK    3  A    between atoms: C_7  and  N_8 
REMARK       I    between atoms: N_8  and  C_9 
REMARK    4  A    between atoms: C_9  and  C_10 
REMARK    5  A    between atoms: C_10  and  C_11 
REMARK    6  A    between atoms: C_15  and  O_16 
ROOT
HETATM    1  N   UNL     1      44.025 -15.052   7.527  1.00  0.00    -0.327 N 
HETATM    2  C   UNL     1      44.732 -13.924   7.138  1.00  0.00     0.226 C 
HETATM    3  O   UNL     1      45.080 -13.655   5.990  1.00  0.00    -0.273 OA
HETATM    4  H   UNL     1      43.934 -15.217   8.522  1.00  0.00     0.169 HD
ENDROOT
BRANCH   1   5
HETATM    5  C   UNL     1      43.424 -16.005   6.678  1.00  0.00     0.035 A 
HETATM    6  C   UNL     1      44.081 -17.155   6.231  1.00  0.00     0.046 A 
HETATM    7  C   UNL     1      43.438 -18.065   5.379  1.00  0.00     0.034 A 
HETATM    8  C   UNL     1      42.129 -17.801   4.957  1.00  0.00     0.017 A 
HETATM    9  C   UNL     1      41.473 -16.647   5.385  1.00  0.00     0.003 A 
HETATM   10  C   UNL     1      42.120 -15.752   6.239  1.00  0.00     0.029 A 
BRANCH   7  11
HETATM   11  C   UNL     1      44.117 -19.289   4.857  1.00  0.00     0.251 C 
HETATM   12  N   UNL     1      44.089 -19.492   3.492  1.00  0.00    -0.357 N 
HETATM   13  H   UNL     1      43.770 -18.757   2.877  1.00  0.00     0.162 HD
HETATM   14  O   UNL     1      44.675 -20.056   5.635  1.00  0.00    -0.268 OA
BRANCH  12  15
HETATM   15  C   UNL     1      44.728 -20.637   2.876  1.00  0.00     0.118 C 
HETATM   16  C   UNL     1      43.810 -21.316   1.878  1.00  0.00     0.026 C 
ENDBRANCH  12  15
ENDBRANCH   7  11
ENDBRANCH   1   5
BRANCH   2  17
HETATM   17  C   UNL     1      45.079 -12.998   8.291  1.00  0.00     0.144 C 
BRANCH  17  18
HETATM   18  C   UNL     1      43.995 -12.016   8.595  1.00  0.00    -0.014 A 
HETATM   19  C   UNL     1      43.795 -11.245   9.786  1.00  0.00     0.006 A 
HETATM   20  C   UNL     1      42.653 -10.484   9.564  1.00  0.00     0.088 A 
HETATM   21  C   UNL     1      44.452 -11.099  11.022  1.00  0.00     0.017 A 
HETATM   22  C   UNL     1      42.125  -9.579  10.480  1.00  0.00     0.074 A 
HETATM   23  O   UNL     1      42.139 -10.754   8.335  1.00  0.00    -0.321 OA
HETATM   24  C   UNL     1      42.807  -9.423  11.692  1.00  0.00     0.070 A 
HETATM   25  C   UNL     1      43.950 -10.181  11.961  1.00  0.00     0.038 A 
HETATM   26  C   UNL     1      42.945 -11.680   7.760  1.00  0.00     0.151 A 
BRANCH  24  27
HETATM   27  O   UNL     1      42.248  -8.503  12.539  1.00  0.00    -0.356 OA
HETATM   28  C   UNL     1      41.960  -8.940  13.862  1.00  0.00     0.210 C 
ENDBRANCH  24  27
ENDBRANCH  17  18
ENDBRANCH   2  17
TORSDOF 6
ENDMDL
MODEL 3
REMARK VINA RESULT:      -7.8      4.715      8.960
REMARK  6 active torsions:
REMARK  status: ('A' for Active; 'I' for Inactive)
REMARK    1  A    between atoms: C_2  and  N_3 
REMARK       I    between atoms: N_3  and  C_4 
REMARK    2  A    between atoms: C_4  and  C_5 
REMARK    3  A    between atoms: C_7  and  N_8 
REMARK       I    between atoms: N_8  and  C_9 
REMARK    4  A    between atoms: C_9  and  C_10 
REMARK    5  A    between atoms: C_10  and  C_11 
REMARK    6  A    between atoms: C_15  and  O_16 
ROOT
HETATM    1  N   UNL     1      41.662 -17.767   1.293  1.00  0.00    -0.327 N 
HETATM    2  C   UNL     1      42.999 -18.108   1.425  1.00  0.00     0.226 C 
HETATM    3  O   UNL     1      43.951 -17.475   0.970  1.00  0.00    -0.273 OA
HETATM    4  H   UNL     1      40.980 -18.454   1.591  1.00  0.00     0.169 HD
ENDROOT
BRANCH   1   5
HETATM    5  C   UNL     1      41.146 -16.559   0.777  1.00  0.00     0.035 A 
HETATM    6  C   UNL     1      41.352 -16.139  -0.541  1.00  0.00     0.046 A 
HETATM    7  C   UNL     1      40.825 -14.924  -0.999  1.00  0.00     0.034 A 
HETATM    8  C   UNL     1      40.102 -14.114  -0.113  1.00  0.00     0.017 A 
HETATM    9  C   UNL     1      39.908 -14.517   1.207  1.00  0.00     0.003 A 
HETATM   10  C   UNL     1      40.431 -15.733   1.651  1.00  0.00     0.029 A 
BRANCH   7  11
HETATM   11  C   UNL     1      41.047 -14.429  -2.391  1.00  0.00     0.251 C 
HETATM   12  N   UNL     1      40.807 -13.090  -2.630  1.00  0.00    -0.357 N 
HETATM   13  H   UNL     1      40.653 -12.457  -1.857  1.00  0.00     0.162 HD
HETATM   14  O   UNL     1      41.438 -15.202  -3.259  1.00  0.00    -0.268 OA
BRANCH  12  15
HETATM   15  C   UNL     1      41.005 -12.500  -3.937  1.00  0.00     0.118 C 
HETATM   16  C   UNL     1      42.269 -11.663  -3.983  1.00  0.00     0.026 C 
ENDBRANCH  12  15
ENDBRANCH   7  11
ENDBRANCH   1   5
BRANCH   2  17
HETATM   17  C   UNL     1      43.224 -19.396   2.199  1.00  0.00     0.144 C 
BRANCH  17  18
HETATM   18  C   UNL     1      43.852 -19.169   3.534  1.00  0.00    -0.014 A 
HETATM   19  C   UNL     1      43.764 -18.014   4.380  1.00  0.00     0.006 A 
HETATM   20  C   UNL     1      44.521 -18.306   5.509  1.00  0.00     0.088 A 
HETATM   21  C   UNL     1      43.128 -16.760   4.322  1.00  0.00     0.017 A 
HETATM   22  C   UNL     1      44.678 -17.444   6.590  1.00  0.00     0.074 A 
HETATM   23  O   UNL     1      45.073 -19.543   5.399  1.00  0.00    -0.321 OA
HETATM   24  C   UNL     1      44.014 -16.214   6.530  1.00  0.00     0.070 A 
HETATM   25  C   UNL     1      43.256 -15.875   5.405  1.00  0.00     0.038 A 
HETATM   26  C   UNL     1      44.675 -20.053   4.208  1.00  0.00     0.151 A 
BRANCH  24  27
HETATM   27  O   UNL     1      44.193 -15.421   7.633  1.00  0.00    -0.356 OA
HETATM   28  C   UNL     1      44.662 -14.098   7.405  1.00  0.00     0.210 C 
ENDBRANCH  24  27
ENDBRANCH  17  18
ENDBRANCH   2  17
TORSDOF 6
ENDMDL
MODEL 4
REMARK VINA RESULT:      -7.7      5.846      8.362
REMARK  6 active torsions:
REMARK  status: ('A' for Active; 'I' for Inactive)
REMARK    1  A    between atoms: C_2  and  N_3 
REMARK       I    between atoms: N_3  and  C_4 
REMARK    2  A    between atoms: C_4  and  C_5 
REMARK    3  A    between atoms: C_7  and  N_8 
REMARK       I    between atoms: N_8  and  C_9 
REMARK    4  A    between atoms: C_9  and  C_10 
REMARK    5  A    between atoms: C_10  and  C_11 
REMARK    6  A    between atoms: C_15  and  O_16 
ROOT
HETATM    1  N   UNL     1      40.726 -15.664  -0.165  1.00  0.00    -0.327 N 
HETATM    2  C   UNL     1      41.514 -16.216   0.833  1.00  0.00     0.226 C 
HETATM    3  O   UNL     1      42.737 -16.122   0.919  1.00  0.00    -0.273 OA
HETATM    4  H   UNL     1      39.753 -15.943  -0.191  1.00  0.00     0.169 HD
ENDROOT
BRANCH   1   5
HETATM    5  C   UNL     1      41.142 -14.756  -1.163  1.00  0.00     0.035 A 
HETATM    6  C   UNL     1      41.718 -13.515  -0.877  1.00  0.00     0.046 A 
HETATM    7  C   UNL     1      42.104 -12.646  -1.907  1.00  0.00     0.034 A 
HETATM    8  C   UNL     1      41.886 -13.025  -3.239  1.00  0.00     0.017 A 
HETATM    9  C   UNL     1      41.297 -14.254  -3.532  1.00  0.00     0.003 A 
HETATM   10  C   UNL     1      40.923 -15.114  -2.498  1.00  0.00     0.029 A 
BRANCH   7  11
HETATM   11  C   UNL     1      42.695 -11.301  -1.641  1.00  0.00     0.251 C 
HETATM   12  N   UNL     1      42.225 -10.245  -2.397  1.00  0.00    -0.357 N 
HETATM   13  H   UNL     1      41.405 -10.361  -2.976  1.00  0.00     0.162 HD
HETATM   14  O   UNL     1      43.553 -11.171  -0.773  1.00  0.00    -0.268 OA
BRANCH  12  15
HETATM   15  C   UNL     1      42.716  -8.895  -2.211  1.00  0.00     0.118 C 
HETATM   16  C   UNL     1      42.489  -8.047  -3.448  1.00  0.00     0.026 C 
ENDBRANCH  12  15
ENDBRANCH   7  11
ENDBRANCH   1   5
BRANCH   2  17
HETATM   17  C   UNL     1      40.722 -17.000   1.867  1.00  0.00     0.144 C 
BRANCH  17  18
HETATM   18  C   UNL     1      41.546 -17.409   3.042  1.00  0.00    -0.014 A 
HETATM   19  C   UNL     1      42.520 -18.457   3.131  1.00  0.00     0.006 A 
HETATM   20  C   UNL     1      43.005 -18.423   4.433  1.00  0.00     0.088 A 
HETATM   21  C   UNL     1      43.051 -19.425   2.258  1.00  0.00     0.017 A 
HETATM   22  C   UNL     1      43.989 -19.275   4.925  1.00  0.00     0.074 A 
HETATM   23  O   UNL     1      42.382 -17.445   5.142  1.00  0.00    -0.321 OA
HETATM   24  C   UNL     1      44.527 -20.211   4.035  1.00  0.00     0.070 A 
HETATM   25  C   UNL     1      44.057 -20.289   2.722  1.00  0.00     0.038 A 
HETATM   26  C   UNL     1      41.502 -16.844   4.304  1.00  0.00     0.151 A 
BRANCH  24  27
HETATM   27  O   UNL     1      45.506 -21.005   4.576  1.00  0.00    -0.356 OA
HETATM   28  C   UNL     1      45.096 -22.264   5.096  1.00  0.00     0.210 C 
ENDBRANCH  24  27
ENDBRANCH  17  18
ENDBRANCH   2  17
TORSDOF 6
ENDMDL
MODEL 5
REMARK VINA RESULT:      -7.6      4.426      7.488
REMARK  6 active torsions:
REMARK  status: ('A' for Active; 'I' for Inactive)
REMARK    1  A    between atoms: C_2  and  N_3 
REMARK       I    between atoms: N_3  and  C_4 
REMARK    2  A    between atoms: C_4  and  C_5 
REMARK    3  A    between atoms: C_7  and  N_8 
REMARK       I    between atoms: N_8  and  C_9 
REMARK    4  A    between atoms: C_9  and  C_10 
REMARK    5  A    between atoms: C_10  and  C_11 
REMARK    6  A    between atoms: C_15  and  O_16 
ROOT
HETATM    1  N   UNL     1      41.097 -16.437   5.965  1.00  0.00    -0.327 N 
HETATM    2  C   UNL     1      41.177 -15.080   5.695  1.00  0.00     0.226 C 
HETATM    3  O   UNL     1      42.175 -14.375   5.836  1.00  0.00    -0.273 OA
HETATM    4  H   UNL     1      40.176 -16.858   5.943  1.00  0.00     0.169 HD
ENDROOT
BRANCH   1   5
HETATM    5  C   UNL     1      42.170 -17.298   6.280  1.00  0.00     0.035 A 
HETATM    6  C   UNL     1      42.717 -18.206   5.367  1.00  0.00     0.046 A 
HETATM    7  C   UNL     1      43.776 -19.047   5.736  1.00  0.00     0.034 A 
HETATM    8  C   UNL     1      44.274 -18.987   7.045  1.00  0.00     0.017 A 
HETATM    9  C   UNL     1      43.722 -18.097   7.966  1.00  0.00     0.003 A 
HETATM   10  C   UNL     1      42.672 -17.260   7.585  1.00  0.00     0.029 A 
BRANCH   7  11
HETATM   11  C   UNL     1      44.368 -20.048   4.799  1.00  0.00     0.251 C 
HETATM   12  N   UNL     1      44.178 -19.834   3.448  1.00  0.00    -0.357 N 
HETATM   13  H   UNL     1      43.804 -18.954   3.121  1.00  0.00     0.162 HD
HETATM   14  O   UNL     1      44.998 -21.002   5.242  1.00  0.00    -0.268 OA
BRANCH  12  15
HETATM   15  C   UNL     1      44.721 -20.732   2.449  1.00  0.00     0.118 C 
HETATM   16  C   UNL     1      43.629 -21.546   1.781  1.00  0.00     0.026 C 
ENDBRANCH  12  15
ENDBRANCH   7  11
ENDBRANCH   1   5
BRANCH   2  17
HETATM   17  C   UNL     1      39.871 -14.483   5.197  1.00  0.00     0.144 C 
BRANCH  17  18
HETATM   18  C   UNL     1      39.940 -14.037   3.774  1.00  0.00    -0.014 A 
HETATM   19  C   UNL     1      40.350 -14.784   2.622  1.00  0.00     0.006 A 
HETATM   20  C   UNL     1      40.230 -13.920   1.540  1.00  0.00     0.088 A 
HETATM   21  C   UNL     1      40.804 -16.093   2.370  1.00  0.00     0.017 A 
HETATM   22  C   UNL     1      40.515 -14.269   0.223  1.00  0.00     0.074 A 
HETATM   23  O   UNL     1      39.795 -12.701   1.957  1.00  0.00    -0.321 OA
HETATM   24  C   UNL     1      40.935 -15.582  -0.014  1.00  0.00     0.070 A 
HETATM   25  C   UNL     1      41.085 -16.478   1.048  1.00  0.00     0.038 A 
HETATM   26  C   UNL     1      39.630 -12.775   3.301  1.00  0.00     0.151 A 
BRANCH  24  27
HETATM   27  O   UNL     1      41.180 -15.867  -1.332  1.00  0.00    -0.356 OA
HETATM   28  C   UNL     1      40.772 -14.894  -2.286  1.00  0.00     0.210 C 
ENDBRANCH  24  27
ENDBRANCH  17  18
ENDBRANCH   2  17
TORSDOF 6
ENDMDL
MODEL 6
REMARK VINA RESULT:      -7.6      4.723      7.932
REMARK  6 active torsions:
REMARK  status: ('A' for Active; 'I' for Inactive)
REMARK    1  A    between atoms: C_2  and  N_3 
REMARK       I    between atoms: N_3  and  C_4 
REMARK    2  A    between atoms: C_4  and  C_5 
REMARK    3  A    between atoms: C_7  and  N_8 
REMARK       I    between atoms: N_8  and  C_9 
REMARK    4  A    between atoms: C_9  and  C_10 
REMARK    5  A    between atoms: C_10  and  C_11 
REMARK    6  A    between atoms: C_15  and  O_16 
ROOT
HETATM    1  N   UNL     1      40.179 -15.513   3.952  1.00  0.00    -0.327 N 
HETATM    2  C   UNL     1      41.255 -15.410   4.820  1.00  0.00     0.226 C 
HETATM    3  O   UNL     1      42.216 -14.654   4.687  1.00  0.00    -0.273 OA
HETATM    4  H   UNL     1      39.533 -16.278   4.107  1.00  0.00     0.169 HD
ENDROOT
BRANCH   1   5
HETATM    5  C   UNL     1      39.890 -14.665   2.862  1.00  0.00     0.035 A 
HETATM    6  C   UNL     1      40.113 -15.026   1.530  1.00  0.00     0.046 A 
HETATM    7  C   UNL     1      39.818 -14.139   0.485  1.00  0.00     0.034 A 
HETATM    8  C   UNL     1      39.313 -12.868   0.788  1.00  0.00     0.017 A 
HETATM    9  C   UNL     1      39.104 -12.494   2.115  1.00  0.00     0.003 A 
HETATM   10  C   UNL     1      39.396 -13.387   3.147  1.00  0.00     0.029 A 
BRANCH   7  11
HETATM   11  C   UNL     1      40.069 -14.479  -0.948  1.00  0.00     0.251 C 
HETATM   12  N   UNL     1      38.973 -14.515  -1.788  1.00  0.00    -0.357 N 
HETATM   13  H   UNL     1      38.080 -14.163  -1.473  1.00  0.00     0.162 HD
HETATM   14  O   UNL     1      41.213 -14.700  -1.332  1.00  0.00    -0.268 OA
BRANCH  12  15
HETATM   15  C   UNL     1      39.103 -14.817  -3.199  1.00  0.00     0.118 C 
HETATM   16  C   UNL     1      37.797 -15.326  -3.780  1.00  0.00     0.026 C 
ENDBRANCH  12  15
ENDBRANCH   7  11
ENDBRANCH   1   5
BRANCH   2  17
HETATM   17  C   UNL     1      41.170 -16.356   6.006  1.00  0.00     0.144 C 
BRANCH  17  18
HETATM   18  C   UNL     1      42.226 -17.411   5.984  1.00  0.00    -0.014 A 
HETATM   19  C   UNL     1      42.715 -18.165   4.866  1.00  0.00     0.006 A 
HETATM   20  C   UNL     1      43.695 -19.010   5.371  1.00  0.00     0.088 A 
HETATM   21  C   UNL     1      42.444 -18.223   3.486  1.00  0.00     0.017 A 
HETATM   22  C   UNL     1      44.435 -19.901   4.599  1.00  0.00     0.074 A 
HETATM   23  O   UNL     1      43.821 -18.837   6.714  1.00  0.00    -0.321 OA
HETATM   24  C   UNL     1      44.175 -19.925   3.225  1.00  0.00     0.070 A 
HETATM   25  C   UNL     1      43.186 -19.102   2.679  1.00  0.00     0.038 A 
HETATM   26  C   UNL     1      42.931 -17.881   7.077  1.00  0.00     0.151 A 
BRANCH  24  27
HETATM   27  O   UNL     1      44.951 -20.808   2.519  1.00  0.00    -0.356 OA
HETATM   28  C   UNL     1      44.277 -21.881   1.873  1.00  0.00     0.210 C 
ENDBRANCH  24  27
ENDBRANCH  17  18
ENDBRANCH   2  17
TORSDOF 6
ENDMDL
MODEL 7
REMARK VINA RESULT:      -7.5      7.075     10.770
REMARK  6 active torsions:
REMARK  status: ('A' for Active; 'I' for Inactive)
REMARK    1  A    between atoms: C_2  and  N_3 
REMARK       I    between atoms: N_3  and  C_4 
REMARK    2  A    between atoms: C_4  and  C_5 
REMARK    3  A    between atoms: C_7  and  N_8 
REMARK       I    between atoms: N_8  and  C_9 
REMARK    4  A    between atoms: C_9  and  C_10 
REMARK    5  A    between atoms: C_10  and  C_11 
REMARK    6  A    between atoms: C_15  and  O_16 
ROOT
HETATM    1  N   UNL     1      41.008 -16.099  -0.772  1.00  0.00    -0.327 N 
HETATM    2  C   UNL     1      41.280 -14.893  -1.398  1.00  0.00     0.226 C 
HETATM    3  O   UNL     1      41.534 -13.830  -0.834  1.00  0.00    -0.273 OA
HETATM    4  H   UNL     1      40.672 -16.856  -1.356  1.00  0.00     0.169 HD
ENDROOT
BRANCH   1   5
HETATM    5  C   UNL     1      41.141 -16.384   0.604  1.00  0.00     0.035 A 
HETATM    6  C   UNL     1      41.975 -17.391   1.100  1.00  0.00     0.046 A 
HETATM    7  C   UNL     1      42.062 -17.639   2.478  1.00  0.00     0.034 A 
HETATM    8  C   UNL     1      41.283 -16.878   3.360  1.00  0.00     0.017 A 
HETATM    9  C   UNL     1      40.436 -15.884   2.871  1.00  0.00     0.003 A 
HETATM   10  C   UNL     1      40.363 -15.642   1.499  1.00  0.00     0.029 A 
BRANCH   7  11
HETATM   11  C   UNL     1      42.919 -18.723   3.043  1.00  0.00     0.251 C 
HETATM   12  N   UNL     1      43.545 -19.565   2.145  1.00  0.00    -0.357 N 
HETATM   13  H   UNL     1      43.549 -19.342   1.159  1.00  0.00     0.162 HD
HETATM   14  O   UNL     1      43.050 -18.827   4.259  1.00  0.00    -0.268 OA
BRANCH  12  15
HETATM   15  C   UNL     1      44.412 -20.640   2.582  1.00  0.00     0.118 C 
HETATM   16  C   UNL     1      44.151 -21.915   1.804  1.00  0.00     0.026 C 
ENDBRANCH  12  15
ENDBRANCH   7  11
ENDBRANCH   1   5
BRANCH   2  17
HETATM   17  C   UNL     1      41.225 -14.971  -2.915  1.00  0.00     0.144 C 
BRANCH  17  18
HETATM   18  C   UNL     1      39.832 -15.067  -3.442  1.00  0.00    -0.014 A 
HETATM   19  C   UNL     1      38.812 -14.060  -3.467  1.00  0.00     0.006 A 
HETATM   20  C   UNL     1      37.704 -14.648  -4.063  1.00  0.00     0.088 A 
HETATM   21  C   UNL     1      38.703 -12.717  -3.059  1.00  0.00     0.017 A 
HETATM   22  C   UNL     1      36.498 -13.992  -4.296  1.00  0.00     0.074 A 
HETATM   23  O   UNL     1      37.973 -15.942  -4.384  1.00  0.00    -0.321 OA
HETATM   24  C   UNL     1      36.417 -12.649  -3.911  1.00  0.00     0.070 A 
HETATM   25  C   UNL     1      37.504 -12.024  -3.293  1.00  0.00     0.038 A 
HETATM   26  C   UNL     1      39.249 -16.190  -4.001  1.00  0.00     0.151 A 
BRANCH  24  27
HETATM   27  O   UNL     1      35.212 -12.056  -4.185  1.00  0.00    -0.356 OA
HETATM   28  C   UNL     1      34.199 -12.887  -4.740  1.00  0.00     0.210 C 
ENDBRANCH  24  27
ENDBRANCH  17  18
ENDBRANCH   2  17
TORSDOF 6
ENDMDL
MODEL 8
REMARK VINA RESULT:      -7.5      5.048      8.541
REMARK  6 active torsions:
REMARK  status: ('A' for Active; 'I' for Inactive)
REMARK    1  A    between atoms: C_2  and  N_3 
REMARK       I    between atoms: N_3  and  C_4 
REMARK    2  A    between atoms: C_4  and  C_5 
REMARK    3  A    between atoms: C_7  and  N_8 
REMARK       I    between atoms: N_8  and  C_9 
REMARK    4  A    between atoms: C_9  and  C_10 
REMARK    5  A    between atoms: C_10  and  C_11 
REMARK    6  A    between atoms: C_15  and  O_16 
ROOT
HETATM    1  N   UNL     1      42.402 -15.321   4.131  1.00  0.00    -0.327 N 
HETATM    2  C   UNL     1      42.838 -14.262   3.350  1.00  0.00     0.226 C 
HETATM    3  O   UNL     1      44.003 -13.888   3.229  1.00  0.00    -0.273 OA
HETATM    4  H   UNL     1      41.402 -15.425   4.251  1.00  0.00     0.169 HD
ENDROOT
BRANCH   1   5
HETATM    5  C   UNL     1      43.211 -16.272   4.788  1.00  0.00     0.035 A 
HETATM    6  C   UNL     1      43.467 -17.548   4.275  1.00  0.00     0.046 A 
HETATM    7  C   UNL     1      44.270 -18.458   4.976  1.00  0.00     0.034 A 
HETATM    8  C   UNL     1      44.803 -18.086   6.217  1.00  0.00     0.017 A 
HETATM    9  C   UNL     1      44.538 -16.822   6.744  1.00  0.00     0.003 A 
HETATM   10  C   UNL     1      43.743 -15.922   6.034  1.00  0.00     0.029 A 
BRANCH   7  11
HETATM   11  C   UNL     1      44.542 -19.838   4.473  1.00  0.00     0.251 C 
HETATM   12  N   UNL     1      44.498 -20.031   3.106  1.00  0.00    -0.357 N 
HETATM   13  H   UNL     1      44.452 -19.236   2.484  1.00  0.00     0.162 HD
HETATM   14  O   UNL     1      44.801 -20.737   5.266  1.00  0.00    -0.268 OA
BRANCH  12  15
HETATM   15  C   UNL     1      44.762 -21.323   2.508  1.00  0.00     0.118 C 
HETATM   16  C   UNL     1      43.592 -21.795   1.667  1.00  0.00     0.026 C 
ENDBRANCH  12  15
ENDBRANCH   7  11
ENDBRANCH   1   5
BRANCH   2  17
HETATM   17  C   UNL     1      41.714 -13.543   2.622  1.00  0.00     0.144 C 
BRANCH  17  18
HETATM   18  C   UNL     1      41.614 -13.928   1.183  1.00  0.00    -0.014 A 
HETATM   19  C   UNL     1      41.867 -13.125   0.022  1.00  0.00     0.006 A 
HETATM   20  C   UNL     1      41.638 -13.950  -1.073  1.00  0.00     0.088 A 
HETATM   21  C   UNL     1      42.267 -11.799  -0.226  1.00  0.00     0.017 A 
HETATM   22  C   UNL     1      41.792 -13.553  -2.398  1.00  0.00     0.074 A 
HETATM   23  O   UNL     1      41.248 -15.185  -0.659  1.00  0.00    -0.321 OA
HETATM   24  C   UNL     1      42.220 -12.241  -2.627  1.00  0.00     0.070 A 
HETATM   25  C   UNL     1      42.446 -11.374  -1.554  1.00  0.00     0.038 A 
HETATM   26  C   UNL     1      41.229 -15.164   0.696  1.00  0.00     0.151 A 
BRANCH  24  27
HETATM   27  O   UNL     1      42.372 -11.920  -3.951  1.00  0.00    -0.356 OA
HETATM   28  C   UNL     1      42.556 -10.544  -4.261  1.00  0.00     0.210 C 
ENDBRANCH  24  27
ENDBRANCH  17  18
ENDBRANCH   2  17
TORSDOF 6
ENDMDL
MODEL 9
REMARK VINA RESULT:      -7.4      5.890      8.263
REMARK  6 active torsions:
REMARK  status: ('A' for Active; 'I' for Inactive)
REMARK    1  A    between atoms: C_2  and  N_3 
REMARK       I    between atoms: N_3  and  C_4 
REMARK    2  A    between atoms: C_4  and  C_5 
REMARK    3  A    between atoms: C_7  and  N_8 
REMARK       I    between atoms: N_8  and  C_9 
REMARK    4  A    between atoms: C_9  and  C_10 
REMARK    5  A    between atoms: C_10  and  C_11 
REMARK    6  A    between atoms: C_15  and  O_16 
ROOT
HETATM    1  N   UNL     1      39.470 -15.491   1.494  1.00  0.00    -0.327 N 
HETATM    2  C   UNL     1      40.728 -15.805   1.002  1.00  0.00     0.226 C 
HETATM    3  O   UNL     1      41.519 -15.013   0.492  1.00  0.00    -0.273 OA
HETATM    4  H   UNL     1      38.870 -16.265   1.752  1.00  0.00     0.169 HD
ENDROOT
BRANCH   1   5
HETATM    5  C   UNL     1      38.930 -14.199   1.667  1.00  0.00     0.035 A 
HETATM    6  C   UNL     1      37.953 -13.658   0.826  1.00  0.00     0.046 A 
HETATM    7  C   UNL     1      37.458 -12.363   1.038  1.00  0.00     0.034 A 
HETATM    8  C   UNL     1      37.970 -11.599   2.094  1.00  0.00     0.017 A 
HETATM    9  C   UNL     1      38.958 -12.125   2.927  1.00  0.00     0.003 A 
HETATM   10  C   UNL     1      39.438 -13.418   2.711  1.00  0.00     0.029 A 
BRANCH   7  11
HETATM   11  C   UNL     1      36.435 -11.741   0.144  1.00  0.00     0.251 C 
HETATM   12  N   UNL     1      35.209 -11.442   0.703  1.00  0.00    -0.357 N 
HETATM   13  H   UNL     1      35.083 -11.490   1.705  1.00  0.00     0.162 HD
HETATM   14  O   UNL     1      36.709 -11.510  -1.029  1.00  0.00    -0.268 OA
BRANCH  12  15
HETATM   15  C   UNL     1      34.149 -10.822  -0.066  1.00  0.00     0.118 C 
HETATM   16  C   UNL     1      33.969  -9.364   0.311  1.00  0.00     0.026 C 
ENDBRANCH  12  15
ENDBRANCH   7  11
ENDBRANCH   1   5
BRANCH   2  17
HETATM   17  C   UNL     1      41.079 -17.278   1.128  1.00  0.00     0.144 C 
BRANCH  17  18
HETATM   18  C   UNL     1      41.794 -17.597   2.399  1.00  0.00    -0.014 A 
HETATM   19  C   UNL     1      42.723 -18.657   2.661  1.00  0.00     0.006 A 
HETATM   20  C   UNL     1      43.104 -18.516   3.989  1.00  0.00     0.088 A 
HETATM   21  C   UNL     1      43.289 -19.715   1.924  1.00  0.00     0.017 A 
HETATM   22  C   UNL     1      44.019 -19.343   4.635  1.00  0.00     0.074 A 
HETATM   23  O   UNL     1      42.460 -17.460   4.554  1.00  0.00    -0.321 OA
HETATM   24  C   UNL     1      44.594 -20.371   3.880  1.00  0.00     0.070 A 
HETATM   25  C   UNL     1      44.226 -20.558   2.544  1.00  0.00     0.038 A 
HETATM   26  C   UNL     1      41.669 -16.917   3.597  1.00  0.00     0.151 A 
BRANCH  24  27
HETATM   27  O   UNL     1      45.500 -21.136   4.567  1.00  0.00    -0.356 OA
HETATM   28  C   UNL     1      44.994 -22.284   5.238  1.00  0.00     0.210 C 
ENDBRANCH  24  27
ENDBRANCH  17  18
ENDBRANCH   2  17
TORSDOF 6
ENDMDL
MODEL 10
REMARK VINA RESULT:      -7.4      2.657      9.277
REMARK  6 active torsions:
REMARK  status: ('A' for Active; 'I' for Inactive)
REMARK    1  A    between atoms: C_2  and  N_3 
REMARK       I    between atoms: N_3  and  C_4 
REMARK    2  A    between atoms: C_4  and  C_5 
REMARK    3  A    between atoms: C_7  and  N_8 
REMARK       I    between atoms: N_8  and  C_9 
REMARK    4  A    between atoms: C_9  and  C_10 
REMARK    5  A    between atoms: C_10  and  C_11 
REMARK    6  A    between atoms: C_15  and  O_16 
ROOT
HETATM    1  N   UNL     1      44.413 -13.242   7.967  1.00  0.00    -0.327 N 
HETATM    2  C   UNL     1      45.644 -12.609   8.041  1.00  0.00     0.226 C 
HETATM    3  O   UNL     1      46.637 -12.886   7.370  1.00  0.00    -0.273 OA
HETATM    4  H   UNL     1      43.731 -13.009   8.678  1.00  0.00     0.169 HD
ENDROOT
BRANCH   1   5
HETATM    5  C   UNL     1      44.010 -14.192   7.004  1.00  0.00     0.035 A 
HETATM    6  C   UNL     1      44.362 -15.544   7.066  1.00  0.00     0.046 A 
HETATM    7  C   UNL     1      43.943 -16.443   6.076  1.00  0.00     0.034 A 
HETATM    8  C   UNL     1      43.178 -15.970   5.001  1.00  0.00     0.017 A 
HETATM    9  C   UNL     1      42.837 -14.620   4.923  1.00  0.00     0.003 A 
HETATM   10  C   UNL     1      43.255 -13.735   5.918  1.00  0.00     0.029 A 
BRANCH   7  11
HETATM   11  C   UNL     1      44.323 -17.887   6.093  1.00  0.00     0.251 C 
HETATM   12  N   UNL     1      44.432 -18.525   4.873  1.00  0.00    -0.357 N 
HETATM   13  H   UNL     1      44.419 -17.987   4.017  1.00  0.00     0.162 HD
HETATM   14  O   UNL     1      44.532 -18.451   7.162  1.00  0.00    -0.268 OA
BRANCH  12  15
HETATM   15  C   UNL     1      44.810 -19.919   4.771  1.00  0.00     0.118 C 
HETATM   16  C   UNL     1      44.694 -20.423   3.345  1.00  0.00     0.026 C 
ENDBRANCH  12  15
ENDBRANCH   7  11
ENDBRANCH   1   5
BRANCH   2  17
HETATM   17  C   UNL     1      45.692 -11.496   9.074  1.00  0.00     0.144 C 
BRANCH  17  18
HETATM   18  C   UNL     1      44.592 -11.588  10.079  1.00  0.00    -0.014 A 
HETATM   19  C   UNL     1      43.273 -11.030  10.015  1.00  0.00     0.006 A 
HETATM   20  C   UNL     1      42.639 -11.405  11.193  1.00  0.00     0.088 A 
HETATM   21  C   UNL     1      42.543 -10.255   9.094  1.00  0.00     0.017 A 
HETATM   22  C   UNL     1      41.325 -11.077  11.515  1.00  0.00     0.074 A 
HETATM   23  O   UNL     1      43.483 -12.133  11.971  1.00  0.00    -0.321 OA
HETATM   24  C   UNL     1      40.604 -10.333  10.575  1.00  0.00     0.070 A 
HETATM   25  C   UNL     1      41.209  -9.921   9.385  1.00  0.00     0.038 A 
HETATM   26  C   UNL     1      44.657 -12.233  11.300  1.00  0.00     0.151 A 
BRANCH  24  27
HETATM   27  O   UNL     1      39.312 -10.061  10.943  1.00  0.00    -0.356 OA
HETATM   28  C   UNL     1      39.126  -9.369  12.172  1.00  0.00     0.210 C 
ENDBRANCH  24  27
ENDBRANCH  17  18
ENDBRANCH   2  17
TORSDOF 6
ENDMDL
