MODEL 1
REMARK VINA RESULT:      -9.1      0.000      0.000
REMARK  5 active torsions:
REMARK  status: ('A' for Active; 'I' for Inactive)
REMARK    1  A    between atoms: C_9  and  C_10 
REMARK    2  A    between atoms: C_13  and  O_14 
REMARK    3  A    between atoms: O_14  and  C_15 
REMARK    4  A    between atoms: C_20  and  C_21 
REMARK       I    between atoms: C_21  and  N_22 
REMARK    5  A    between atoms: N_22  and  C_23 
ROOT
HETATM    1  C   UNL     1      38.662 -15.029   1.718  1.00  0.00     0.070 C 
HETATM    2  C   UNL     1      39.993 -15.113   2.427  1.00  0.00     0.037 C 
HETATM    3  N   UNL     1      39.937 -15.028   3.818  1.00  0.00    -0.192 N 
HETATM    4  C   UNL     1      41.033 -14.813   4.572  1.00  0.00     0.725 A 
HETATM    5  N   UNL     1      42.267 -14.929   3.996  1.00  0.00    -0.084 N 
HETATM    6  N   UNL     1      43.251 -14.581   4.850  1.00  0.00    -0.149 NA
HETATM    7  C   UNL     1      42.533 -14.317   5.949  1.00  0.00     0.275 A 
HETATM    8  N   UNL     1      41.173 -14.446   5.821  1.00  0.00    -0.054 NA
HETATM    9  C   UNL     1      42.481 -15.359   2.613  1.00  0.00     0.202 C 
HETATM   10  C   UNL     1      41.192 -15.249   1.800  1.00  0.00     0.062 C 
HETATM   11  H   UNL     1      39.032 -14.802   4.227  1.00  0.00     0.184 HD
ENDROOT
BRANCH   9  12
HETATM   12  C   UNL     1      43.071 -16.773   2.629  1.00  0.00    -0.028 A 
HETATM   13  C   UNL     1      43.873 -17.253   1.582  1.00  0.00     0.012 A 
HETATM   14  C   UNL     1      44.380 -18.554   1.613  1.00  0.00     0.037 A 
HETATM   15  C   UNL     1      44.091 -19.410   2.676  1.00  0.00     0.074 A 
HETATM   16  C   UNL     1      43.279 -18.951   3.713  1.00  0.00     0.037 A 
HETATM   17  C   UNL     1      42.774 -17.645   3.690  1.00  0.00     0.012 A 
BRANCH  15  18
HETATM   18  O   UNL     1      44.638 -20.655   2.562  1.00  0.00    -0.290 OA
BRANCH  18  19
HETATM   19  C   UNL     1      43.808 -21.682   2.049  1.00  0.00     0.505 C 
HETATM   20  F   UNL     1      42.623 -21.152   1.661  1.00  0.00    -0.184 F 
HETATM   21  F   UNL     1      44.404 -22.163   0.929  1.00  0.00    -0.184 F 
ENDBRANCH  18  19
ENDBRANCH  15  18
ENDBRANCH   9  12
BRANCH  10  22
HETATM   22  C   UNL     1      41.303 -15.065   0.320  1.00  0.00     0.256 C 
HETATM   23  N   UNL     1      41.395 -13.753  -0.095  1.00  0.00    -0.323 N 
HETATM   24  H   UNL     1      41.456 -13.028   0.606  1.00  0.00     0.169 HD
HETATM   25  O   UNL     1      41.250 -16.049  -0.409  1.00  0.00    -0.267 OA
BRANCH  23  26
HETATM   26  C   UNL     1      41.410 -13.280  -1.427  1.00  0.00     0.035 A 
HETATM   27  C   UNL     1      40.336 -13.391  -2.313  1.00  0.00     0.029 A 
HETATM   28  C   UNL     1      40.432 -12.884  -3.612  1.00  0.00     0.002 A 
HETATM   29  C   UNL     1      41.599 -12.253  -4.036  1.00  0.00     0.000 A 
HETATM   30  C   UNL     1      42.676 -12.136  -3.162  1.00  0.00     0.002 A 
HETATM   31  C   UNL     1      42.584 -12.653  -1.867  1.00  0.00     0.029 A 
ENDBRANCH  23  26
ENDBRANCH  10  22
TORSDOF 5
ENDMDL
MODEL 2
REMARK VINA RESULT:      -8.9      3.062      6.591
REMARK  5 active torsions:
REMARK  status: ('A' for Active; 'I' for Inactive)
REMARK    1  A    between atoms: C_9  and  C_10 
REMARK    2  A    between atoms: C_13  and  O_14 
REMARK    3  A    between atoms: O_14  and  C_15 
REMARK    4  A    between atoms: C_20  and  C_21 
REMARK       I    between atoms: C_21  and  N_22 
REMARK    5  A    between atoms: N_22  and  C_23 
ROOT
HETATM    1  C   UNL     1      44.389 -15.618   6.515  1.00  0.00     0.070 C 
HETATM    2  C   UNL     1      43.085 -15.216   5.868  1.00  0.00     0.037 C 
HETATM    3  N   UNL     1      42.646 -13.924   6.156  1.00  0.00    -0.192 N 
HETATM    4  C   UNL     1      41.391 -13.512   5.888  1.00  0.00     0.725 A 
HETATM    5  N   UNL     1      40.597 -14.285   5.089  1.00  0.00    -0.084 N 
HETATM    6  N   UNL     1      39.344 -13.791   5.004  1.00  0.00    -0.149 NA
HETATM    7  C   UNL     1      39.474 -12.680   5.739  1.00  0.00     0.275 A 
HETATM    8  N   UNL     1      40.710 -12.472   6.298  1.00  0.00    -0.054 NA
HETATM    9  C   UNL     1      41.053 -15.509   4.428  1.00  0.00     0.202 C 
HETATM   10  C   UNL     1      42.345 -16.024   5.063  1.00  0.00     0.062 C 
HETATM   11  H   UNL     1      43.172 -13.407   6.860  1.00  0.00     0.184 HD
ENDROOT
BRANCH   9  12
HETATM   12  C   UNL     1      41.183 -15.232   2.927  1.00  0.00    -0.028 A 
HETATM   13  C   UNL     1      40.700 -16.132   1.964  1.00  0.00     0.012 A 
HETATM   14  C   UNL     1      40.850 -15.864   0.601  1.00  0.00     0.037 A 
HETATM   15  C   UNL     1      41.493 -14.705   0.166  1.00  0.00     0.074 A 
HETATM   16  C   UNL     1      41.994 -13.812   1.114  1.00  0.00     0.037 A 
HETATM   17  C   UNL     1      41.840 -14.074   2.482  1.00  0.00     0.012 A 
BRANCH  15  18
HETATM   18  O   UNL     1      41.583 -14.585  -1.190  1.00  0.00    -0.290 OA
BRANCH  18  19
HETATM   19  C   UNL     1      40.859 -15.519  -1.972  1.00  0.00     0.505 C 
HETATM   20  F   UNL     1      39.697 -14.956  -2.384  1.00  0.00    -0.184 F 
HETATM   21  F   UNL     1      41.589 -15.766  -3.089  1.00  0.00    -0.184 F 
ENDBRANCH  18  19
ENDBRANCH  15  18
ENDBRANCH   9  12
BRANCH  10  22
HETATM   22  C   UNL     1      42.646 -17.485   4.966  1.00  0.00     0.256 C 
HETATM   23  N   UNL     1      43.439 -17.843   3.897  1.00  0.00    -0.323 N 
HETATM   24  H   UNL     1      43.817 -17.113   3.310  1.00  0.00     0.169 HD
HETATM   25  O   UNL     1      42.142 -18.254   5.778  1.00  0.00    -0.267 OA
BRANCH  23  26
HETATM   26  C   UNL     1      43.797 -19.152   3.502  1.00  0.00     0.035 A 
HETATM   27  C   UNL     1      44.600 -20.009   4.259  1.00  0.00     0.029 A 
HETATM   28  C   UNL     1      44.898 -21.295   3.797  1.00  0.00     0.002 A 
HETATM   29  C   UNL     1      44.387 -21.742   2.581  1.00  0.00     0.000 A 
HETATM   30  C   UNL     1      43.585 -20.897   1.819  1.00  0.00     0.002 A 
HETATM   31  C   UNL     1      43.298 -19.607   2.273  1.00  0.00     0.029 A 
ENDBRANCH  23  26
ENDBRANCH  10  22
TORSDOF 5
ENDMDL
MODEL 3
REMARK VINA RESULT:      -8.3      1.920      2.077
REMARK  5 active torsions:
REMARK  status: ('A' for Active; 'I' for Inactive)
REMARK    1  A    between atoms: C_9  and  C_10 
REMARK    2  A    between atoms: C_13  and  O_14 
REMARK    3  A    between atoms: O_14  and  C_15 
REMARK    4  A    between atoms: C_20  and  C_21 
REMARK       I    between atoms: C_21  and  N_22 
REMARK    5  A    between atoms: N_22  and  C_23 
ROOT
HETATM    1  C   UNL     1      39.485 -12.916   3.271  1.00  0.00     0.070 C 
HETATM    2  C   UNL     1      40.867 -13.449   3.568  1.00  0.00     0.037 C 
HETATM    3  N   UNL     1      41.231 -13.453   4.915  1.00  0.00    -0.192 N 
HETATM    4  C   UNL     1      42.504 -13.634   5.317  1.00  0.00     0.725 A 
HETATM    5  N   UNL     1      43.429 -14.076   4.412  1.00  0.00    -0.084 N 
HETATM    6  N   UNL     1      44.669 -14.104   4.940  1.00  0.00    -0.149 NA
HETATM    7  C   UNL     1      44.405 -13.717   6.195  1.00  0.00     0.275 A 
HETATM    8  N   UNL     1      43.093 -13.420   6.466  1.00  0.00    -0.054 NA
HETATM    9  C   UNL     1      43.104 -14.447   3.034  1.00  0.00     0.202 C 
HETATM   10  C   UNL     1      41.739 -13.894   2.625  1.00  0.00     0.062 C 
HETATM   11  H   UNL     1      40.592 -12.995   5.563  1.00  0.00     0.184 HD
ENDROOT
BRANCH   9  12
HETATM   12  C   UNL     1      43.206 -15.971   2.905  1.00  0.00    -0.028 A 
HETATM   13  C   UNL     1      43.871 -16.580   1.829  1.00  0.00     0.012 A 
HETATM   14  C   UNL     1      43.930 -17.971   1.725  1.00  0.00     0.037 A 
HETATM   15  C   UNL     1      43.320 -18.787   2.679  1.00  0.00     0.074 A 
HETATM   16  C   UNL     1      42.640 -18.194   3.742  1.00  0.00     0.037 A 
HETATM   17  C   UNL     1      42.583 -16.798   3.854  1.00  0.00     0.012 A 
BRANCH  15  18
HETATM   18  O   UNL     1      43.443 -20.125   2.438  1.00  0.00    -0.290 OA
BRANCH  18  19
HETATM   19  C   UNL     1      44.720 -20.705   2.644  1.00  0.00     0.505 C 
HETATM   20  F   UNL     1      45.105 -20.503   3.928  1.00  0.00    -0.184 F 
HETATM   21  F   UNL     1      44.587 -22.045   2.483  1.00  0.00    -0.184 F 
ENDBRANCH  18  19
ENDBRANCH  15  18
ENDBRANCH   9  12
BRANCH  10  22
HETATM   22  C   UNL     1      41.485 -13.644   1.173  1.00  0.00     0.256 C 
HETATM   23  N   UNL     1      40.698 -14.590   0.552  1.00  0.00    -0.323 N 
HETATM   24  H   UNL     1      40.292 -15.326   1.113  1.00  0.00     0.169 HD
HETATM   25  O   UNL     1      42.018 -12.682   0.631  1.00  0.00    -0.267 OA
BRANCH  23  26
HETATM   26  C   UNL     1      40.379 -14.663  -0.824  1.00  0.00     0.035 A 
HETATM   27  C   UNL     1      39.389 -13.896  -1.443  1.00  0.00     0.029 A 
HETATM   28  C   UNL     1      39.147 -14.024  -2.814  1.00  0.00     0.002 A 
HETATM   29  C   UNL     1      39.897 -14.912  -3.582  1.00  0.00     0.000 A 
HETATM   30  C   UNL     1      40.886 -15.681  -2.975  1.00  0.00     0.002 A 
HETATM   31  C   UNL     1      41.121 -15.562  -1.603  1.00  0.00     0.029 A 
ENDBRANCH  23  26
ENDBRANCH  10  22
TORSDOF 5
ENDMDL
MODEL 4
REMARK VINA RESULT:      -8.2      4.033      7.697
REMARK  5 active torsions:
REMARK  status: ('A' for Active; 'I' for Inactive)
REMARK    1  A    between atoms: C_9  and  C_10 
REMARK    2  A    between atoms: C_13  and  O_14 
REMARK    3  A    between atoms: O_14  and  C_15 
REMARK    4  A    between atoms: C_20  and  C_21 
REMARK       I    between atoms: C_21  and  N_22 
REMARK    5  A    between atoms: N_22  and  C_23 
ROOT
HETATM    1  C   UNL     1      42.464 -17.227   7.331  1.00  0.00     0.070 C 
HETATM    2  C   UNL     1      42.776 -17.204   5.854  1.00  0.00     0.037 C 
HETATM    3  N   UNL     1      42.765 -18.446   5.219  1.00  0.00    -0.192 N 
HETATM    4  C   UNL     1      43.282 -18.631   3.988  1.00  0.00     0.725 A 
HETATM    5  N   UNL     1      43.598 -17.539   3.231  1.00  0.00    -0.084 N 
HETATM    6  N   UNL     1      44.199 -17.890   2.075  1.00  0.00    -0.149 NA
HETATM    7  C   UNL     1      44.160 -19.225   2.180  1.00  0.00     0.275 A 
HETATM    8  N   UNL     1      43.607 -19.719   3.335  1.00  0.00    -0.054 NA
HETATM    9  C   UNL     1      43.334 -16.159   3.643  1.00  0.00     0.202 C 
HETATM   10  C   UNL     1      43.066 -16.080   5.145  1.00  0.00     0.062 C 
HETATM   11  H   UNL     1      42.666 -19.265   5.817  1.00  0.00     0.184 HD
ENDROOT
BRANCH   9  12
HETATM   12  C   UNL     1      42.185 -15.609   2.791  1.00  0.00    -0.028 A 
HETATM   13  C   UNL     1      40.965 -16.291   2.665  1.00  0.00     0.012 A 
HETATM   14  C   UNL     1      39.942 -15.777   1.864  1.00  0.00     0.037 A 
HETATM   15  C   UNL     1      40.114 -14.584   1.162  1.00  0.00     0.074 A 
HETATM   16  C   UNL     1      41.329 -13.907   1.264  1.00  0.00     0.037 A 
HETATM   17  C   UNL     1      42.355 -14.415   2.071  1.00  0.00     0.012 A 
BRANCH  15  18
HETATM   18  O   UNL     1      39.038 -14.214   0.407  1.00  0.00    -0.290 OA
BRANCH  18  19
HETATM   19  C   UNL     1      37.879 -13.784   1.098  1.00  0.00     0.505 C 
HETATM   20  F   UNL     1      37.360 -12.698   0.476  1.00  0.00    -0.184 F 
HETATM   21  F   UNL     1      36.954 -14.771   0.993  1.00  0.00    -0.184 F 
ENDBRANCH  18  19
ENDBRANCH  15  18
ENDBRANCH   9  12
BRANCH  10  22
HETATM   22  C   UNL     1      43.354 -14.791   5.846  1.00  0.00     0.256 C 
HETATM   23  N   UNL     1      44.569 -14.743   6.494  1.00  0.00    -0.323 N 
HETATM   24  H   UNL     1      45.201 -15.525   6.395  1.00  0.00     0.169 HD
HETATM   25  O   UNL     1      42.500 -13.911   5.851  1.00  0.00    -0.267 OA
BRANCH  23  26
HETATM   26  C   UNL     1      45.058 -13.699   7.313  1.00  0.00     0.035 A 
HETATM   27  C   UNL     1      44.381 -13.189   8.423  1.00  0.00     0.029 A 
HETATM   28  C   UNL     1      44.943 -12.161   9.187  1.00  0.00     0.002 A 
HETATM   29  C   UNL     1      46.192 -11.641   8.855  1.00  0.00     0.000 A 
HETATM   30  C   UNL     1      46.876 -12.143   7.752  1.00  0.00     0.002 A 
HETATM   31  C   UNL     1      46.309 -13.161   6.981  1.00  0.00     0.029 A 
ENDBRANCH  23  26
ENDBRANCH  10  22
TORSDOF 5
ENDMDL
MODEL 5
REMARK VINA RESULT:      -7.9      4.318      8.156
REMARK  5 active torsions:
REMARK  status: ('A' for Active; 'I' for Inactive)
REMARK    1  A    between atoms: C_9  and  C_10 
REMARK    2  A    between atoms: C_13  and  O_14 
REMARK    3  A    between atoms: O_14  and  C_15 
REMARK    4  A    between atoms: C_20  and  C_21 
REMARK       I    between atoms: C_21  and  N_22 
REMARK    5  A    between atoms: N_22  and  C_23 
ROOT
HETATM    1  C   UNL     1      41.114 -17.611   1.298  1.00  0.00     0.070 C 
HETATM    2  C   UNL     1      41.416 -16.139   1.449  1.00  0.00     0.037 C 
HETATM    3  N   UNL     1      40.927 -15.320   0.430  1.00  0.00    -0.192 N 
HETATM    4  C   UNL     1      41.336 -14.046   0.272  1.00  0.00     0.725 A 
HETATM    5  N   UNL     1      42.053 -13.450   1.271  1.00  0.00    -0.084 N 
HETATM    6  N   UNL     1      42.474 -12.219   0.916  1.00  0.00    -0.149 NA
HETATM    7  C   UNL     1      41.921 -12.116  -0.299  1.00  0.00     0.275 A 
HETATM    8  N   UNL     1      41.217 -13.212  -0.731  1.00  0.00    -0.054 NA
HETATM    9  C   UNL     1      42.341 -14.089   2.556  1.00  0.00     0.202 C 
HETATM   10  C   UNL     1      42.120 -15.598   2.478  1.00  0.00     0.062 C 
HETATM   11  H   UNL     1      40.516 -15.788  -0.376  1.00  0.00     0.184 HD
ENDROOT
BRANCH   9  12
HETATM   12  C   UNL     1      41.498 -13.406   3.638  1.00  0.00    -0.028 A 
HETATM   13  C   UNL     1      40.104 -13.289   3.525  1.00  0.00     0.012 A 
HETATM   14  C   UNL     1      39.362 -12.642   4.517  1.00  0.00     0.037 A 
HETATM   15  C   UNL     1      39.989 -12.088   5.633  1.00  0.00     0.074 A 
HETATM   16  C   UNL     1      41.376 -12.181   5.747  1.00  0.00     0.037 A 
HETATM   17  C   UNL     1      42.124 -12.834   4.758  1.00  0.00     0.012 A 
BRANCH  15  18
HETATM   18  O   UNL     1      39.142 -11.472   6.508  1.00  0.00    -0.290 OA
BRANCH  18  19
HETATM   19  C   UNL     1      39.525 -11.447   7.872  1.00  0.00     0.505 C 
HETATM   20  F   UNL     1      39.029 -10.331   8.459  1.00  0.00    -0.184 F 
HETATM   21  F   UNL     1      38.930 -12.504   8.480  1.00  0.00    -0.184 F 
ENDBRANCH  18  19
ENDBRANCH  15  18
ENDBRANCH   9  12
BRANCH  10  22
HETATM   22  C   UNL     1      42.883 -16.473   3.422  1.00  0.00     0.256 C 
HETATM   23  N   UNL     1      42.262 -16.699   4.632  1.00  0.00    -0.323 N 
HETATM   24  H   UNL     1      41.330 -16.335   4.772  1.00  0.00     0.169 HD
HETATM   25  O   UNL     1      43.995 -16.874   3.097  1.00  0.00    -0.267 OA
BRANCH  23  26
HETATM   26  C   UNL     1      42.789 -17.397   5.742  1.00  0.00     0.035 A 
HETATM   27  C   UNL     1      43.216 -18.726   5.705  1.00  0.00     0.029 A 
HETATM   28  C   UNL     1      43.736 -19.337   6.850  1.00  0.00     0.002 A 
HETATM   29  C   UNL     1      43.844 -18.623   8.041  1.00  0.00     0.000 A 
HETATM   30  C   UNL     1      43.422 -17.298   8.090  1.00  0.00     0.002 A 
HETATM   31  C   UNL     1      42.891 -16.690   6.949  1.00  0.00     0.029 A 
ENDBRANCH  23  26
ENDBRANCH  10  22
TORSDOF 5
ENDMDL
MODEL 6
REMARK VINA RESULT:      -7.9      3.387      6.792
REMARK  5 active torsions:
REMARK  status: ('A' for Active; 'I' for Inactive)
REMARK    1  A    between atoms: C_9  and  C_10 
REMARK    2  A    between atoms: C_13  and  O_14 
REMARK    3  A    between atoms: O_14  and  C_15 
REMARK    4  A    between atoms: C_20  and  C_21 
REMARK       I    between atoms: C_21  and  N_22 
REMARK    5  A    between atoms: N_22  and  C_23 
ROOT
HETATM    1  C   UNL     1      43.368 -13.948   5.841  1.00  0.00     0.070 C 
HETATM    2  C   UNL     1      42.243 -13.617   4.890  1.00  0.00     0.037 C 
HETATM    3  N   UNL     1      41.788 -12.299   4.935  1.00  0.00    -0.192 N 
HETATM    4  C   UNL     1      40.631 -11.916   4.361  1.00  0.00     0.725 A 
HETATM    5  N   UNL     1      40.004 -12.770   3.498  1.00  0.00    -0.084 N 
HETATM    6  N   UNL     1      38.812 -12.285   3.094  1.00  0.00    -0.149 NA
HETATM    7  C   UNL     1      38.812 -11.099   3.716  1.00  0.00     0.275 A 
HETATM    8  N   UNL     1      39.906 -10.834   4.501  1.00  0.00    -0.054 NA
HETATM    9  C   UNL     1      40.558 -14.061   3.088  1.00  0.00     0.202 C 
HETATM   10  C   UNL     1      41.670 -14.506   4.037  1.00  0.00     0.062 C 
HETATM   11  H   UNL     1      42.165 -11.709   5.676  1.00  0.00     0.184 HD
ENDROOT
BRANCH   9  12
HETATM   12  C   UNL     1      41.011 -13.953   1.628  1.00  0.00    -0.028 A 
HETATM   13  C   UNL     1      41.687 -12.822   1.145  1.00  0.00     0.012 A 
HETATM   14  C   UNL     1      42.070 -12.741  -0.196  1.00  0.00     0.037 A 
HETATM   15  C   UNL     1      41.780 -13.774  -1.087  1.00  0.00     0.074 A 
HETATM   16  C   UNL     1      41.092 -14.895  -0.623  1.00  0.00     0.037 A 
HETATM   17  C   UNL     1      40.712 -14.984   0.722  1.00  0.00     0.012 A 
BRANCH  15  18
HETATM   18  O   UNL     1      42.198 -13.549  -2.367  1.00  0.00    -0.290 OA
BRANCH  18  19
HETATM   19  C   UNL     1      41.236 -13.060  -3.285  1.00  0.00     0.505 C 
HETATM   20  F   UNL     1      41.852 -12.292  -4.216  1.00  0.00    -0.184 F 
HETATM   21  F   UNL     1      40.723 -14.131  -3.942  1.00  0.00    -0.184 F 
ENDBRANCH  18  19
ENDBRANCH  15  18
ENDBRANCH   9  12
BRANCH  10  22
HETATM   22  C   UNL     1      41.945 -15.971   4.164  1.00  0.00     0.256 C 
HETATM   23  N   UNL     1      43.013 -16.426   3.421  1.00  0.00    -0.323 N 
HETATM   24  H   UNL     1      43.571 -15.753   2.914  1.00  0.00     0.169 HD
HETATM   25  O   UNL     1      41.198 -16.660   4.850  1.00  0.00    -0.267 OA
BRANCH  23  26
HETATM   26  C   UNL     1      43.437 -17.766   3.271  1.00  0.00     0.035 A 
HETATM   27  C   UNL     1      44.115 -18.491   4.254  1.00  0.00     0.029 A 
HETATM   28  C   UNL     1      44.488 -19.819   4.025  1.00  0.00     0.002 A 
HETATM   29  C   UNL     1      44.180 -20.439   2.817  1.00  0.00     0.000 A 
HETATM   30  C   UNL     1      43.505 -19.726   1.830  1.00  0.00     0.002 A 
HETATM   31  C   UNL     1      43.142 -18.395   2.053  1.00  0.00     0.029 A 
ENDBRANCH  23  26
ENDBRANCH  10  22
TORSDOF 5
ENDMDL
MODEL 7
REMARK VINA RESULT:      -7.8      4.335      7.956
REMARK  5 active torsions:
REMARK  status: ('A' for Active; 'I' for Inactive)
REMARK    1  A    between atoms: C_9  and  C_10 
REMARK    2  A    between atoms: C_13  and  O_14 
REMARK    3  A    between atoms: O_14  and  C_15 
REMARK    4  A    between atoms: C_20  and  C_21 
REMARK       I    between atoms: C_21  and  N_22 
REMARK    5  A    between atoms: N_22  and  C_23 
ROOT
HETATM    1  C   UNL     1      40.274 -17.283   1.454  1.00  0.00     0.070 C 
HETATM    2  C   UNL     1      40.808 -15.887   1.668  1.00  0.00     0.037 C 
HETATM    3  N   UNL     1      40.485 -14.962   0.675  1.00  0.00    -0.192 N 
HETATM    4  C   UNL     1      41.101 -13.767   0.575  1.00  0.00     0.725 A 
HETATM    5  N   UNL     1      41.882 -13.335   1.609  1.00  0.00    -0.084 N 
HETATM    6  N   UNL     1      42.508 -12.178   1.311  1.00  0.00    -0.149 NA
HETATM    7  C   UNL     1      42.009 -11.941   0.092  1.00  0.00     0.275 A 
HETATM    8  N   UNL     1      41.145 -12.889  -0.396  1.00  0.00    -0.054 NA
HETATM    9  C   UNL     1      42.031 -14.059   2.873  1.00  0.00     0.202 C 
HETATM   10  C   UNL     1      41.567 -15.508   2.731  1.00  0.00     0.062 C 
HETATM   11  H   UNL     1      40.023 -15.326  -0.157  1.00  0.00     0.184 HD
ENDROOT
BRANCH   9  12
HETATM   12  C   UNL     1      41.285 -13.286   3.966  1.00  0.00    -0.028 A 
HETATM   13  C   UNL     1      39.896 -13.096   3.921  1.00  0.00     0.012 A 
HETATM   14  C   UNL     1      39.244 -12.369   4.920  1.00  0.00     0.037 A 
HETATM   15  C   UNL     1      39.959 -11.805   5.977  1.00  0.00     0.074 A 
HETATM   16  C   UNL     1      41.344 -11.971   6.023  1.00  0.00     0.037 A 
HETATM   17  C   UNL     1      42.000 -12.705   5.026  1.00  0.00     0.012 A 
BRANCH  15  18
HETATM   18  O   UNL     1      39.195 -11.108   6.867  1.00  0.00    -0.290 OA
BRANCH  18  19
HETATM   19  C   UNL     1      39.401 -11.372   8.244  1.00  0.00     0.505 C 
HETATM   20  F   UNL     1      38.710 -10.471   8.983  1.00  0.00    -0.184 F 
HETATM   21  F   UNL     1      38.862 -12.588   8.509  1.00  0.00    -0.184 F 
ENDBRANCH  18  19
ENDBRANCH  15  18
ENDBRANCH   9  12
BRANCH  10  22
HETATM   22  C   UNL     1      42.153 -16.530   3.652  1.00  0.00     0.256 C 
HETATM   23  N   UNL     1      43.163 -17.291   3.105  1.00  0.00    -0.323 N 
HETATM   24  H   UNL     1      43.486 -17.069   2.174  1.00  0.00     0.169 HD
HETATM   25  O   UNL     1      41.678 -16.662   4.775  1.00  0.00    -0.267 OA
BRANCH  23  26
HETATM   26  C   UNL     1      43.824 -18.388   3.705  1.00  0.00     0.035 A 
HETATM   27  C   UNL     1      44.178 -18.450   5.054  1.00  0.00     0.029 A 
HETATM   28  C   UNL     1      44.821 -19.580   5.568  1.00  0.00     0.002 A 
HETATM   29  C   UNL     1      45.107 -20.664   4.741  1.00  0.00     0.000 A 
HETATM   30  C   UNL     1      44.758 -20.613   3.395  1.00  0.00     0.002 A 
HETATM   31  C   UNL     1      44.127 -19.479   2.878  1.00  0.00     0.029 A 
ENDBRANCH  23  26
ENDBRANCH  10  22
TORSDOF 5
ENDMDL
MODEL 8
REMARK VINA RESULT:      -7.7      4.062      6.074
REMARK  5 active torsions:
REMARK  status: ('A' for Active; 'I' for Inactive)
REMARK    1  A    between atoms: C_9  and  C_10 
REMARK    2  A    between atoms: C_13  and  O_14 
REMARK    3  A    between atoms: O_14  and  C_15 
REMARK    4  A    between atoms: C_20  and  C_21 
REMARK       I    between atoms: C_21  and  N_22 
REMARK    5  A    between atoms: N_22  and  C_23 
ROOT
HETATM    1  C   UNL     1      43.830 -17.682   0.987  1.00  0.00     0.070 C 
HETATM    2  C   UNL     1      43.399 -17.634   2.433  1.00  0.00     0.037 C 
HETATM    3  N   UNL     1      44.304 -18.177   3.347  1.00  0.00    -0.192 N 
HETATM    4  C   UNL     1      43.962 -18.458   4.620  1.00  0.00     0.725 A 
HETATM    5  N   UNL     1      42.782 -17.974   5.112  1.00  0.00    -0.084 N 
HETATM    6  N   UNL     1      42.538 -18.429   6.358  1.00  0.00    -0.149 NA
HETATM    7  C   UNL     1      43.649 -19.143   6.575  1.00  0.00     0.275 A 
HETATM    8  N   UNL     1      44.546 -19.187   5.537  1.00  0.00    -0.054 NA
HETATM    9  C   UNL     1      41.891 -17.088   4.361  1.00  0.00     0.202 C 
HETATM   10  C   UNL     1      42.218 -17.121   2.868  1.00  0.00     0.062 C 
HETATM   11  H   UNL     1      45.113 -18.659   2.958  1.00  0.00     0.184 HD
ENDROOT
BRANCH   9  12
HETATM   12  C   UNL     1      41.973 -15.685   4.971  1.00  0.00    -0.028 A 
HETATM   13  C   UNL     1      40.824 -14.983   5.368  1.00  0.00     0.012 A 
HETATM   14  C   UNL     1      40.927 -13.696   5.902  1.00  0.00     0.037 A 
HETATM   15  C   UNL     1      42.169 -13.075   6.040  1.00  0.00     0.074 A 
HETATM   16  C   UNL     1      43.315 -13.755   5.631  1.00  0.00     0.037 A 
HETATM   17  C   UNL     1      43.218 -15.049   5.101  1.00  0.00     0.012 A 
BRANCH  15  18
HETATM   18  O   UNL     1      42.114 -11.813   6.558  1.00  0.00    -0.290 OA
BRANCH  18  19
HETATM   19  C   UNL     1      41.256 -10.886   5.915  1.00  0.00     0.505 C 
HETATM   20  F   UNL     1      41.381  -9.673   6.505  1.00  0.00    -0.184 F 
HETATM   21  F   UNL     1      41.696 -10.745   4.639  1.00  0.00    -0.184 F 
ENDBRANCH  18  19
ENDBRANCH  15  18
ENDBRANCH   9  12
BRANCH  10  22
HETATM   22  C   UNL     1      41.127 -16.792   1.899  1.00  0.00     0.256 C 
HETATM   23  N   UNL     1      40.853 -15.448   1.771  1.00  0.00    -0.323 N 
HETATM   24  H   UNL     1      41.435 -14.786   2.264  1.00  0.00     0.169 HD
HETATM   25  O   UNL     1      40.529 -17.706   1.343  1.00  0.00    -0.267 OA
BRANCH  23  26
HETATM   26  C   UNL     1      39.816 -14.858   1.011  1.00  0.00     0.035 A 
HETATM   27  C   UNL     1      38.515 -14.658   1.478  1.00  0.00     0.029 A 
HETATM   28  C   UNL     1      37.553 -14.056   0.661  1.00  0.00     0.002 A 
HETATM   29  C   UNL     1      37.884 -13.639  -0.626  1.00  0.00     0.000 A 
HETATM   30  C   UNL     1      39.177 -13.834  -1.102  1.00  0.00     0.002 A 
HETATM   31  C   UNL     1      40.136 -14.446  -0.291  1.00  0.00     0.029 A 
ENDBRANCH  23  26
ENDBRANCH  10  22
TORSDOF 5
ENDMDL
MODEL 9
REMARK VINA RESULT:      -7.6      6.847      9.698
REMARK  5 active torsions:
REMARK  status: ('A' for Active; 'I' for Inactive)
REMARK    1  A    between atoms: C_9  and  C_10 
REMARK    2  A    between atoms: C_13  and  O_14 
REMARK    3  A    between atoms: O_14  and  C_15 
REMARK    4  A    between atoms: C_20  and  C_21 
REMARK       I    between atoms: C_21  and  N_22 
REMARK    5  A    between atoms: N_22  and  C_23 
ROOT
HETATM    1  C   UNL     1      39.410 -13.138   5.312  1.00  0.00     0.070 C 
HETATM    2  C   UNL     1      40.173 -11.993   5.935  1.00  0.00     0.037 C 
HETATM    3  N   UNL     1      39.436 -10.827   6.147  1.00  0.00    -0.192 N 
HETATM    4  C   UNL     1      40.021  -9.647   6.434  1.00  0.00     0.725 A 
HETATM    5  N   UNL     1      41.344  -9.628   6.774  1.00  0.00    -0.084 N 
HETATM    6  N   UNL     1      41.802  -8.369   6.927  1.00  0.00    -0.149 NA
HETATM    7  C   UNL     1      40.675  -7.677   6.715  1.00  0.00     0.275 A 
HETATM    8  N   UNL     1      39.563  -8.421   6.410  1.00  0.00    -0.054 NA
HETATM    9  C   UNL     1      42.161 -10.833   6.931  1.00  0.00     0.202 C 
HETATM   10  C   UNL     1      41.489 -12.038   6.272  1.00  0.00     0.062 C 
HETATM   11  H   UNL     1      38.493 -10.806   5.764  1.00  0.00     0.184 HD
ENDROOT
BRANCH   9  12
HETATM   12  C   UNL     1      42.446 -11.037   8.422  1.00  0.00    -0.028 A 
HETATM   13  C   UNL     1      41.473 -10.790   9.403  1.00  0.00     0.012 A 
HETATM   14  C   UNL     1      41.767 -10.963  10.757  1.00  0.00     0.037 A 
HETATM   15  C   UNL     1      43.036 -11.372  11.167  1.00  0.00     0.074 A 
HETATM   16  C   UNL     1      44.018 -11.602  10.203  1.00  0.00     0.037 A 
HETATM   17  C   UNL     1      43.725 -11.436   8.843  1.00  0.00     0.012 A 
BRANCH  15  18
HETATM   18  O   UNL     1      43.184 -11.481  12.520  1.00  0.00    -0.290 OA
BRANCH  18  19
HETATM   19  C   UNL     1      42.882 -10.336  13.298  1.00  0.00     0.505 C 
HETATM   20  F   UNL     1      42.607 -10.716  14.569  1.00  0.00    -0.184 F 
HETATM   21  F   UNL     1      44.005  -9.577  13.354  1.00  0.00    -0.184 F 
ENDBRANCH  18  19
ENDBRANCH  15  18
ENDBRANCH   9  12
BRANCH  10  22
HETATM   22  C   UNL     1      42.357 -13.163   5.806  1.00  0.00     0.256 C 
HETATM   23  N   UNL     1      42.119 -14.372   6.422  1.00  0.00    -0.323 N 
HETATM   24  H   UNL     1      41.349 -14.440   7.073  1.00  0.00     0.169 HD
HETATM   25  O   UNL     1      43.232 -12.936   4.977  1.00  0.00    -0.267 OA
BRANCH  23  26
HETATM   26  C   UNL     1      42.848 -15.572   6.255  1.00  0.00     0.035 A 
HETATM   27  C   UNL     1      44.098 -15.819   6.827  1.00  0.00     0.029 A 
HETATM   28  C   UNL     1      44.745 -17.041   6.618  1.00  0.00     0.002 A 
HETATM   29  C   UNL     1      44.145 -18.032   5.844  1.00  0.00     0.000 A 
HETATM   30  C   UNL     1      42.899 -17.796   5.270  1.00  0.00     0.002 A 
HETATM   31  C   UNL     1      42.258 -16.571   5.467  1.00  0.00     0.029 A 
ENDBRANCH  23  26
ENDBRANCH  10  22
TORSDOF 5
ENDMDL
MODEL 10
REMARK VINA RESULT:      -7.5      3.916      7.561
REMARK  5 active torsions:
REMARK  status: ('A' for Active; 'I' for Inactive)
REMARK    1  A    between atoms: C_9  and  C_10 
REMARK    2  A    between atoms: C_13  and  O_14 
REMARK    3  A    between atoms: O_14  and  C_15 
REMARK    4  A    between atoms: C_20  and  C_21 
REMARK       I    between atoms: C_21  and  N_22 
REMARK    5  A    between atoms: N_22  and  C_23 
ROOT
HETATM    1  C   UNL     1      42.255 -14.138   3.987  1.00  0.00     0.070 C 
HETATM    2  C   UNL     1      41.359 -14.142   2.772  1.00  0.00     0.037 C 
HETATM    3  N   UNL     1      40.273 -13.267   2.824  1.00  0.00    -0.192 N 
HETATM    4  C   UNL     1      39.243 -13.345   1.959  1.00  0.00     0.725 A 
HETATM    5  N   UNL     1      39.368 -14.128   0.846  1.00  0.00    -0.084 N 
HETATM    6  N   UNL     1      38.219 -14.182   0.142  1.00  0.00    -0.149 NA
HETATM    7  C   UNL     1      37.455 -13.354   0.866  1.00  0.00     0.275 A 
HETATM    8  N   UNL     1      38.042 -12.822   1.986  1.00  0.00    -0.054 NA
HETATM    9  C   UNL     1      40.598 -14.836   0.485  1.00  0.00     0.202 C 
HETATM   10  C   UNL     1      41.544 -14.932   1.681  1.00  0.00     0.062 C 
HETATM   11  H   UNL     1      40.110 -12.792   3.711  1.00  0.00     0.184 HD
ENDROOT
BRANCH   9  12
HETATM   12  C   UNL     1      41.221 -14.139  -0.729  1.00  0.00    -0.028 A 
HETATM   13  C   UNL     1      41.938 -12.938  -0.605  1.00  0.00     0.012 A 
HETATM   14  C   UNL     1      42.477 -12.313  -1.732  1.00  0.00     0.037 A 
HETATM   15  C   UNL     1      42.306 -12.858  -3.004  1.00  0.00     0.074 A 
HETATM   16  C   UNL     1      41.580 -14.041  -3.142  1.00  0.00     0.037 A 
HETATM   17  C   UNL     1      41.043 -14.675  -2.014  1.00  0.00     0.012 A 
BRANCH  15  18
HETATM   18  O   UNL     1      42.871 -12.130  -4.011  1.00  0.00    -0.290 OA
BRANCH  18  19
HETATM   19  C   UNL     1      42.244 -10.907  -4.356  1.00  0.00     0.505 C 
HETATM   20  F   UNL     1      42.965  -9.875  -3.854  1.00  0.00    -0.184 F 
HETATM   21  F   UNL     1      42.291 -10.794  -5.707  1.00  0.00    -0.184 F 
ENDBRANCH  18  19
ENDBRANCH  15  18
ENDBRANCH   9  12
BRANCH  10  22
HETATM   22  C   UNL     1      42.525 -16.061   1.717  1.00  0.00     0.256 C 
HETATM   23  N   UNL     1      42.105 -17.171   2.418  1.00  0.00    -0.323 N 
HETATM   24  H   UNL     1      41.164 -17.182   2.787  1.00  0.00     0.169 HD
HETATM   25  O   UNL     1      43.622 -15.915   1.189  1.00  0.00    -0.267 OA
BRANCH  23  26
HETATM   26  C   UNL     1      42.855 -18.335   2.700  1.00  0.00     0.035 A 
HETATM   27  C   UNL     1      43.014 -19.402   1.812  1.00  0.00     0.029 A 
HETATM   28  C   UNL     1      43.785 -20.513   2.168  1.00  0.00     0.002 A 
HETATM   29  C   UNL     1      44.412 -20.565   3.411  1.00  0.00     0.000 A 
HETATM   30  C   UNL     1      44.261 -19.507   4.303  1.00  0.00     0.002 A 
HETATM   31  C   UNL     1      43.481 -18.403   3.953  1.00  0.00     0.029 A 
ENDBRANCH  23  26
ENDBRANCH  10  22
TORSDOF 5
ENDMDL
