MODEL 1
REMARK VINA RESULT:      -8.8      0.000      0.000
REMARK  10 active torsions:
REMARK  status: ('A' for Active; 'I' for Inactive)
REMARK    1  A    between atoms: C_2  and  O_3 
REMARK    2  A    between atoms: O_3  and  C_4 
REMARK    3  A    between atoms: C_9  and  C_10 
REMARK    4  A    between atoms: C_10  and  O_11 
REMARK    5  A    between atoms: O_11  and  C_12 
REMARK    6  A    between atoms: C_12  and  C_13 
REMARK       I    between atoms: C_13  and  N_14 
REMARK    7  A    between atoms: N_14  and  C_15 
REMARK    8  A    between atoms: C_16  and  C_17 
REMARK       I    between atoms: C_17  and  N_18 
REMARK    9  A    between atoms: N_18  and  C_19 
REMARK   10  A    between atoms: C_19  and  C_20 
ROOT
HETATM    1  C   UNL     1      42.661 -14.868   6.075  1.00  0.00     0.050 A 
HETATM    2  C   UNL     1      42.712 -16.208   5.628  1.00  0.00     0.058 A 
HETATM    3  C   UNL     1      41.795 -16.672   4.667  1.00  0.00     0.019 A 
HETATM    4  C   UNL     1      40.805 -15.831   4.166  1.00  0.00     0.001 A 
HETATM    5  C   UNL     1      40.729 -14.521   4.621  1.00  0.00     0.002 A 
HETATM    6  C   UNL     1      41.647 -14.045   5.563  1.00  0.00     0.030 A 
ENDROOT
BRANCH   1   7
HETATM    7  N   UNL     1      43.634 -14.380   6.987  1.00  0.00    -0.324 N 
HETATM    8  C   UNL     1      44.817 -13.723   6.692  1.00  0.00     0.246 C 
HETATM    9  O   UNL     1      45.236 -13.443   5.572  1.00  0.00    -0.271 OA
HETATM   10  H   UNL     1      43.466 -14.589   7.976  1.00  0.00     0.169 HD
BRANCH   8  11
HETATM   11  C   UNL     1      45.601 -13.290   7.934  1.00  0.00     0.282 C 
BRANCH  11  12
HETATM   12  O   UNL     1      44.770 -12.868   9.013  1.00  0.00    -0.308 OA
BRANCH  12  13
HETATM   13  C   UNL     1      44.670 -11.523   9.163  1.00  0.00     0.298 C 
HETATM   14  O   UNL     1      45.617 -10.756   9.207  1.00  0.00    -0.259 OA
BRANCH  13  15
HETATM   15  C   UNL     1      43.240 -11.165   9.280  1.00  0.00     0.092 A 
HETATM   16  C   UNL     1      42.618 -11.060  10.519  1.00  0.00     0.180 A 
HETATM   17  N   UNL     1      41.304 -10.747  10.661  1.00  0.00    -0.236 NA
HETATM   18  C   UNL     1      40.587 -10.535   9.536  1.00  0.00     0.119 A 
HETATM   19  C   UNL     1      41.118 -10.618   8.262  1.00  0.00     0.020 A 
HETATM   20  C   UNL     1      42.466 -10.939   8.133  1.00  0.00     0.023 A 
BRANCH  16  21
HETATM   21  O   UNL     1      43.376 -11.232  11.657  1.00  0.00    -0.334 OA
BRANCH  21  22
HETATM   22  C   UNL     1      42.725 -10.804  12.856  1.00  0.00     0.173 C 
HETATM   23  C   UNL     1      43.456  -9.580  13.375  1.00  0.00     0.034 C 
ENDBRANCH  21  22
ENDBRANCH  16  21
ENDBRANCH  13  15
ENDBRANCH  12  13
ENDBRANCH  11  12
ENDBRANCH   8  11
ENDBRANCH   1   7
BRANCH   2  24
HETATM   24  C   UNL     1      43.660 -17.231   6.157  1.00  0.00     0.254 C 
HETATM   25  N   UNL     1      43.280 -18.546   5.991  1.00  0.00    -0.349 N 
HETATM   26  H   UNL     1      42.547 -18.723   5.313  1.00  0.00     0.163 HD
HETATM   27  O   UNL     1      44.737 -16.887   6.631  1.00  0.00    -0.268 OA
BRANCH  25  28
HETATM   28  C   UNL     1      44.188 -19.653   6.263  1.00  0.00     0.114 C 
HETATM   29  C   UNL     1      43.736 -20.518   7.444  1.00  0.00     0.037 C 
BRANCH  28  30
HETATM   30  C   UNL     1      44.349 -20.471   4.990  1.00  0.00    -0.036 A 
HETATM   31  C   UNL     1      44.631 -21.847   5.033  1.00  0.00     0.009 A 
HETATM   32  C   UNL     1      44.744 -22.590   3.857  1.00  0.00     0.001 A 
HETATM   33  C   UNL     1      44.569 -21.969   2.622  1.00  0.00     0.000 A 
HETATM   34  C   UNL     1      44.280 -20.608   2.562  1.00  0.00     0.001 A 
HETATM   35  C   UNL     1      44.167 -19.863   3.738  1.00  0.00     0.009 A 
ENDBRANCH  28  30
ENDBRANCH  25  28
ENDBRANCH   2  24
TORSDOF 10
ENDMDL
MODEL 2
REMARK VINA RESULT:      -8.5      4.866      9.313
REMARK  10 active torsions:
REMARK  status: ('A' for Active; 'I' for Inactive)
REMARK    1  A    between atoms: C_2  and  O_3 
REMARK    2  A    between atoms: O_3  and  C_4 
REMARK    3  A    between atoms: C_9  and  C_10 
REMARK    4  A    between atoms: C_10  and  O_11 
REMARK    5  A    between atoms: O_11  and  C_12 
REMARK    6  A    between atoms: C_12  and  C_13 
REMARK       I    between atoms: C_13  and  N_14 
REMARK    7  A    between atoms: N_14  and  C_15 
REMARK    8  A    between atoms: C_16  and  C_17 
REMARK       I    between atoms: C_17  and  N_18 
REMARK    9  A    between atoms: N_18  and  C_19 
REMARK   10  A    between atoms: C_19  and  C_20 
ROOT
HETATM    1  C   UNL     1      43.148 -19.157   2.795  1.00  0.00     0.050 A 
HETATM    2  C   UNL     1      43.508 -18.954   4.146  1.00  0.00     0.058 A 
HETATM    3  C   UNL     1      44.453 -19.794   4.764  1.00  0.00     0.019 A 
HETATM    4  C   UNL     1      45.022 -20.856   4.067  1.00  0.00     0.001 A 
HETATM    5  C   UNL     1      44.652 -21.081   2.747  1.00  0.00     0.002 A 
HETATM    6  C   UNL     1      43.727 -20.241   2.119  1.00  0.00     0.030 A 
ENDROOT
BRANCH   1   7
HETATM    7  N   UNL     1      42.253 -18.263   2.150  1.00  0.00    -0.324 N 
HETATM    8  C   UNL     1      42.564 -17.097   1.471  1.00  0.00     0.246 C 
HETATM    9  O   UNL     1      43.687 -16.626   1.306  1.00  0.00    -0.271 OA
HETATM   10  H   UNL     1      41.256 -18.479   2.248  1.00  0.00     0.169 HD
BRANCH   8  11
HETATM   11  C   UNL     1      41.345 -16.407   0.852  1.00  0.00     0.282 C 
BRANCH  11  12
HETATM   12  O   UNL     1      41.444 -16.235  -0.559  1.00  0.00    -0.308 OA
BRANCH  12  13
HETATM   13  C   UNL     1      41.217 -14.971  -0.998  1.00  0.00     0.298 C 
HETATM   14  O   UNL     1      41.808 -13.982  -0.603  1.00  0.00    -0.259 OA
BRANCH  13  15
HETATM   15  C   UNL     1      40.134 -15.008  -2.004  1.00  0.00     0.092 A 
HETATM   16  C   UNL     1      38.972 -14.261  -1.846  1.00  0.00     0.180 A 
HETATM   17  N   UNL     1      37.952 -14.282  -2.744  1.00  0.00    -0.236 NA
HETATM   18  C   UNL     1      38.093 -15.073  -3.830  1.00  0.00     0.119 A 
HETATM   19  C   UNL     1      39.211 -15.851  -4.072  1.00  0.00     0.020 A 
HETATM   20  C   UNL     1      40.246 -15.818  -3.143  1.00  0.00     0.023 A 
BRANCH  16  21
HETATM   21  O   UNL     1      38.866 -13.424  -0.756  1.00  0.00    -0.334 OA
BRANCH  21  22
HETATM   22  C   UNL     1      37.755 -13.718   0.093  1.00  0.00     0.173 C 
HETATM   23  C   UNL     1      38.280 -14.438   1.322  1.00  0.00     0.034 C 
ENDBRANCH  21  22
ENDBRANCH  16  21
ENDBRANCH  13  15
ENDBRANCH  12  13
ENDBRANCH  11  12
ENDBRANCH   8  11
ENDBRANCH   1   7
BRANCH   2  24
HETATM   24  C   UNL     1      42.900 -17.914   5.027  1.00  0.00     0.254 C 
HETATM   25  N   UNL     1      43.729 -16.872   5.386  1.00  0.00    -0.349 N 
HETATM   26  H   UNL     1      44.571 -16.752   4.834  1.00  0.00     0.163 HD
HETATM   27  O   UNL     1      41.713 -17.975   5.325  1.00  0.00    -0.268 OA
BRANCH  25  28
HETATM   28  C   UNL     1      43.226 -15.683   6.062  1.00  0.00     0.114 C 
HETATM   29  C   UNL     1      44.292 -14.987   6.914  1.00  0.00     0.037 C 
BRANCH  28  30
HETATM   30  C   UNL     1      42.633 -14.747   5.020  1.00  0.00    -0.036 A 
HETATM   31  C   UNL     1      43.393 -14.282   3.933  1.00  0.00     0.009 A 
HETATM   32  C   UNL     1      42.824 -13.450   2.968  1.00  0.00     0.001 A 
HETATM   33  C   UNL     1      41.486 -13.077   3.071  1.00  0.00     0.000 A 
HETATM   34  C   UNL     1      40.715 -13.537   4.137  1.00  0.00     0.001 A 
HETATM   35  C   UNL     1      41.283 -14.370   5.104  1.00  0.00     0.009 A 
ENDBRANCH  28  30
ENDBRANCH  25  28
ENDBRANCH   2  24
TORSDOF 10
ENDMDL
MODEL 3
REMARK VINA RESULT:      -8.5      1.109      2.158
REMARK  10 active torsions:
REMARK  status: ('A' for Active; 'I' for Inactive)
REMARK    1  A    between atoms: C_2  and  O_3 
REMARK    2  A    between atoms: O_3  and  C_4 
REMARK    3  A    between atoms: C_9  and  C_10 
REMARK    4  A    between atoms: C_10  and  O_11 
REMARK    5  A    between atoms: O_11  and  C_12 
REMARK    6  A    between atoms: C_12  and  C_13 
REMARK       I    between atoms: C_13  and  N_14 
REMARK    7  A    between atoms: N_14  and  C_15 
REMARK    8  A    between atoms: C_16  and  C_17 
REMARK       I    between atoms: C_17  and  N_18 
REMARK    9  A    between atoms: N_18  and  C_19 
REMARK   10  A    between atoms: C_19  and  C_20 
ROOT
HETATM    1  C   UNL     1      42.829 -13.885   6.133  1.00  0.00     0.050 A 
HETATM    2  C   UNL     1      42.598 -15.241   5.809  1.00  0.00     0.058 A 
HETATM    3  C   UNL     1      41.662 -15.585   4.816  1.00  0.00     0.019 A 
HETATM    4  C   UNL     1      40.928 -14.601   4.160  1.00  0.00     0.001 A 
HETATM    5  C   UNL     1      41.128 -13.267   4.493  1.00  0.00     0.002 A 
HETATM    6  C   UNL     1      42.068 -12.914   5.466  1.00  0.00     0.030 A 
ENDROOT
BRANCH   1   7
HETATM    7  N   UNL     1      43.828 -13.536   7.080  1.00  0.00    -0.324 N 
HETATM    8  C   UNL     1      45.191 -13.414   6.868  1.00  0.00     0.246 C 
HETATM    9  O   UNL     1      45.782 -13.589   5.805  1.00  0.00    -0.271 OA
HETATM   10  H   UNL     1      43.507 -13.415   8.045  1.00  0.00     0.169 HD
BRANCH   8  11
HETATM   11  C   UNL     1      45.964 -12.966   8.111  1.00  0.00     0.282 C 
BRANCH  11  12
HETATM   12  O   UNL     1      45.124 -12.579   9.195  1.00  0.00    -0.308 OA
BRANCH  12  13
HETATM   13  C   UNL     1      45.211 -11.271   9.545  1.00  0.00     0.298 C 
HETATM   14  O   UNL     1      46.127 -10.528   9.238  1.00  0.00    -0.259 OA
BRANCH  13  15
HETATM   15  C   UNL     1      44.030 -10.921  10.364  1.00  0.00     0.092 A 
HETATM   16  C   UNL     1      42.812 -10.597   9.778  1.00  0.00     0.180 A 
HETATM   17  N   UNL     1      41.712 -10.257  10.500  1.00  0.00    -0.236 NA
HETATM   18  C   UNL     1      41.830 -10.236  11.845  1.00  0.00     0.119 A 
HETATM   19  C   UNL     1      43.000 -10.542  12.517  1.00  0.00     0.020 A 
HETATM   20  C   UNL     1      44.117 -10.888  11.764  1.00  0.00     0.023 A 
BRANCH  16  21
HETATM   21  O   UNL     1      42.697 -10.669   8.406  1.00  0.00    -0.334 OA
BRANCH  21  22
HETATM   22  C   UNL     1      41.390 -10.358   7.918  1.00  0.00     0.173 C 
HETATM   23  C   UNL     1      41.538  -9.375   6.772  1.00  0.00     0.034 C 
ENDBRANCH  21  22
ENDBRANCH  16  21
ENDBRANCH  13  15
ENDBRANCH  12  13
ENDBRANCH  11  12
ENDBRANCH   8  11
ENDBRANCH   1   7
BRANCH   2  24
HETATM   24  C   UNL     1      43.248 -16.390   6.504  1.00  0.00     0.254 C 
HETATM   25  N   UNL     1      43.439 -17.523   5.741  1.00  0.00    -0.349 N 
HETATM   26  H   UNL     1      43.374 -17.409   4.737  1.00  0.00     0.163 HD
HETATM   27  O   UNL     1      43.646 -16.269   7.656  1.00  0.00    -0.268 OA
BRANCH  25  28
HETATM   28  C   UNL     1      44.243 -18.644   6.212  1.00  0.00     0.114 C 
HETATM   29  C   UNL     1      43.680 -19.291   7.481  1.00  0.00     0.037 C 
BRANCH  28  30
HETATM   30  C   UNL     1      44.384 -19.649   5.078  1.00  0.00    -0.036 A 
HETATM   31  C   UNL     1      44.698 -20.996   5.326  1.00  0.00     0.009 A 
HETATM   32  C   UNL     1      44.791 -21.912   4.277  1.00  0.00     0.001 A 
HETATM   33  C   UNL     1      44.565 -21.497   2.968  1.00  0.00     0.000 A 
HETATM   34  C   UNL     1      44.243 -20.167   2.705  1.00  0.00     0.001 A 
HETATM   35  C   UNL     1      44.149 -19.249   3.753  1.00  0.00     0.009 A 
ENDBRANCH  28  30
ENDBRANCH  25  28
ENDBRANCH   2  24
TORSDOF 10
ENDMDL
MODEL 4
REMARK VINA RESULT:      -8.4      4.198      7.635
REMARK  10 active torsions:
REMARK  status: ('A' for Active; 'I' for Inactive)
REMARK    1  A    between atoms: C_2  and  O_3 
REMARK    2  A    between atoms: O_3  and  C_4 
REMARK    3  A    between atoms: C_9  and  C_10 
REMARK    4  A    between atoms: C_10  and  O_11 
REMARK    5  A    between atoms: O_11  and  C_12 
REMARK    6  A    between atoms: C_12  and  C_13 
REMARK       I    between atoms: C_13  and  N_14 
REMARK    7  A    between atoms: N_14  and  C_15 
REMARK    8  A    between atoms: C_16  and  C_17 
REMARK       I    between atoms: C_17  and  N_18 
REMARK    9  A    between atoms: N_18  and  C_19 
REMARK   10  A    between atoms: C_19  and  C_20 
ROOT
HETATM    1  C   UNL     1      42.914 -15.022   5.481  1.00  0.00     0.050 A 
HETATM    2  C   UNL     1      42.856 -16.435   5.494  1.00  0.00     0.058 A 
HETATM    3  C   UNL     1      43.328 -17.155   6.606  1.00  0.00     0.019 A 
HETATM    4  C   UNL     1      43.888 -16.493   7.696  1.00  0.00     0.001 A 
HETATM    5  C   UNL     1      43.976 -15.107   7.679  1.00  0.00     0.002 A 
HETATM    6  C   UNL     1      43.494 -14.380   6.585  1.00  0.00     0.030 A 
ENDROOT
BRANCH   1   7
HETATM    7  N   UNL     1      42.368 -14.294   4.392  1.00  0.00    -0.324 N 
HETATM    8  C   UNL     1      43.052 -13.670   3.362  1.00  0.00     0.246 C 
HETATM    9  O   UNL     1      44.271 -13.639   3.210  1.00  0.00    -0.271 OA
HETATM   10  H   UNL     1      41.351 -14.169   4.401  1.00  0.00     0.169 HD
BRANCH   8  11
HETATM   11  C   UNL     1      42.133 -13.020   2.324  1.00  0.00     0.282 C 
BRANCH  11  12
HETATM   12  O   UNL     1      42.109 -13.707   1.076  1.00  0.00    -0.308 OA
BRANCH  12  13
HETATM   13  C   UNL     1      41.201 -14.713   0.995  1.00  0.00     0.298 C 
HETATM   14  O   UNL     1      40.923 -15.473   1.907  1.00  0.00    -0.259 OA
BRANCH  13  15
HETATM   15  C   UNL     1      40.634 -14.731  -0.371  1.00  0.00     0.092 A 
HETATM   16  C   UNL     1      39.512 -13.979  -0.700  1.00  0.00     0.180 A 
HETATM   17  N   UNL     1      38.958 -13.983  -1.941  1.00  0.00    -0.236 NA
HETATM   18  C   UNL     1      39.537 -14.763  -2.880  1.00  0.00     0.119 A 
HETATM   19  C   UNL     1      40.653 -15.545  -2.646  1.00  0.00     0.020 A 
HETATM   20  C   UNL     1      41.209 -15.529  -1.370  1.00  0.00     0.023 A 
BRANCH  16  21
HETATM   21  O   UNL     1      38.963 -13.154   0.258  1.00  0.00    -0.334 OA
BRANCH  21  22
HETATM   22  C   UNL     1      37.632 -13.512   0.636  1.00  0.00     0.173 C 
HETATM   23  C   UNL     1      36.759 -12.278   0.506  1.00  0.00     0.034 C 
ENDBRANCH  21  22
ENDBRANCH  16  21
ENDBRANCH  13  15
ENDBRANCH  12  13
ENDBRANCH  11  12
ENDBRANCH   8  11
ENDBRANCH   1   7
BRANCH   2  24
HETATM   24  C   UNL     1      42.369 -17.262   4.352  1.00  0.00     0.254 C 
HETATM   25  N   UNL     1      43.237 -17.386   3.288  1.00  0.00    -0.349 N 
HETATM   26  H   UNL     1      44.205 -17.142   3.461  1.00  0.00     0.163 HD
HETATM   27  O   UNL     1      41.294 -17.845   4.427  1.00  0.00    -0.268 OA
BRANCH  25  28
HETATM   28  C   UNL     1      42.995 -18.325   2.199  1.00  0.00     0.114 C 
HETATM   29  C   UNL     1      43.502 -17.812   0.847  1.00  0.00     0.037 C 
BRANCH  28  30
HETATM   30  C   UNL     1      43.616 -19.664   2.567  1.00  0.00    -0.036 A 
HETATM   31  C   UNL     1      44.310 -19.845   3.775  1.00  0.00     0.009 A 
HETATM   32  C   UNL     1      44.845 -21.089   4.112  1.00  0.00     0.001 A 
HETATM   33  C   UNL     1      44.688 -22.171   3.250  1.00  0.00     0.000 A 
HETATM   34  C   UNL     1      43.994 -22.012   2.052  1.00  0.00     0.001 A 
HETATM   35  C   UNL     1      43.458 -20.767   1.714  1.00  0.00     0.009 A 
ENDBRANCH  28  30
ENDBRANCH  25  28
ENDBRANCH   2  24
TORSDOF 10
ENDMDL
MODEL 5
REMARK VINA RESULT:      -8.3      2.146      3.401
REMARK  10 active torsions:
REMARK  status: ('A' for Active; 'I' for Inactive)
REMARK    1  A    between atoms: C_2  and  O_3 
REMARK    2  A    between atoms: O_3  and  C_4 
REMARK    3  A    between atoms: C_9  and  C_10 
REMARK    4  A    between atoms: C_10  and  O_11 
REMARK    5  A    between atoms: O_11  and  C_12 
REMARK    6  A    between atoms: C_12  and  C_13 
REMARK       I    between atoms: C_13  and  N_14 
REMARK    7  A    between atoms: N_14  and  C_15 
REMARK    8  A    between atoms: C_16  and  C_17 
REMARK       I    between atoms: C_17  and  N_18 
REMARK    9  A    between atoms: N_18  and  C_19 
REMARK   10  A    between atoms: C_19  and  C_20 
ROOT
HETATM    1  C   UNL     1      40.687 -14.029   3.615  1.00  0.00     0.050 A 
HETATM    2  C   UNL     1      41.325 -15.265   3.367  1.00  0.00     0.058 A 
HETATM    3  C   UNL     1      40.798 -16.160   2.418  1.00  0.00     0.019 A 
HETATM    4  C   UNL     1      39.624 -15.857   1.733  1.00  0.00     0.001 A 
HETATM    5  C   UNL     1      38.973 -14.658   1.992  1.00  0.00     0.002 A 
HETATM    6  C   UNL     1      39.499 -13.754   2.922  1.00  0.00     0.030 A 
ENDROOT
BRANCH   1   7
HETATM    7  N   UNL     1      41.262 -13.095   4.517  1.00  0.00    -0.324 N 
HETATM    8  C   UNL     1      40.804 -12.740   5.775  1.00  0.00     0.246 C 
HETATM    9  O   UNL     1      39.804 -13.178   6.338  1.00  0.00    -0.271 OA
HETATM   10  H   UNL     1      42.080 -12.584   4.172  1.00  0.00     0.169 HD
BRANCH   8  11
HETATM   11  C   UNL     1      41.709 -11.735   6.493  1.00  0.00     0.282 C 
BRANCH  11  12
HETATM   12  O   UNL     1      41.165 -11.254   7.719  1.00  0.00    -0.308 OA
BRANCH  12  13
HETATM   13  C   UNL     1      41.874 -10.257   8.307  1.00  0.00     0.298 C 
HETATM   14  O   UNL     1      42.089  -9.168   7.804  1.00  0.00    -0.259 OA
BRANCH  13  15
HETATM   15  C   UNL     1      42.344 -10.726   9.628  1.00  0.00     0.092 A 
HETATM   16  C   UNL     1      43.594 -11.314   9.786  1.00  0.00     0.180 A 
HETATM   17  N   UNL     1      44.052 -11.768  10.982  1.00  0.00    -0.236 NA
HETATM   18  C   UNL     1      43.238 -11.637  12.052  1.00  0.00     0.119 A 
HETATM   19  C   UNL     1      41.979 -11.067  11.992  1.00  0.00     0.020 A 
HETATM   20  C   UNL     1      41.525 -10.607  10.760  1.00  0.00     0.023 A 
BRANCH  16  21
HETATM   21  O   UNL     1      44.430 -11.397   8.693  1.00  0.00    -0.334 OA
BRANCH  21  22
HETATM   22  C   UNL     1      45.356 -12.484   8.754  1.00  0.00     0.173 C 
HETATM   23  C   UNL     1      45.056 -13.422   7.599  1.00  0.00     0.034 C 
ENDBRANCH  21  22
ENDBRANCH  16  21
ENDBRANCH  13  15
ENDBRANCH  12  13
ENDBRANCH  11  12
ENDBRANCH   8  11
ENDBRANCH   1   7
BRANCH   2  24
HETATM   24  C   UNL     1      42.532 -15.746   4.101  1.00  0.00     0.254 C 
HETATM   25  N   UNL     1      42.611 -17.109   4.297  1.00  0.00    -0.349 N 
HETATM   26  H   UNL     1      42.010 -17.685   3.721  1.00  0.00     0.163 HD
HETATM   27  O   UNL     1      43.413 -14.958   4.423  1.00  0.00    -0.268 OA
BRANCH  25  28
HETATM   28  C   UNL     1      43.819 -17.746   4.807  1.00  0.00     0.114 C 
HETATM   29  C   UNL     1      43.802 -17.922   6.329  1.00  0.00     0.037 C 
BRANCH  28  30
HETATM   30  C   UNL     1      44.009 -19.072   4.085  1.00  0.00    -0.036 A 
HETATM   31  C   UNL     1      43.605 -19.245   2.751  1.00  0.00     0.009 A 
HETATM   32  C   UNL     1      43.817 -20.458   2.092  1.00  0.00     0.001 A 
HETATM   33  C   UNL     1      44.442 -21.511   2.756  1.00  0.00     0.000 A 
HETATM   34  C   UNL     1      44.859 -21.352   4.076  1.00  0.00     0.001 A 
HETATM   35  C   UNL     1      44.647 -20.139   4.736  1.00  0.00     0.009 A 
ENDBRANCH  28  30
ENDBRANCH  25  28
ENDBRANCH   2  24
TORSDOF 10
ENDMDL
MODEL 6
REMARK VINA RESULT:      -8.3      4.458      7.795
REMARK  10 active torsions:
REMARK  status: ('A' for Active; 'I' for Inactive)
REMARK    1  A    between atoms: C_2  and  O_3 
REMARK    2  A    between atoms: O_3  and  C_4 
REMARK    3  A    between atoms: C_9  and  C_10 
REMARK    4  A    between atoms: C_10  and  O_11 
REMARK    5  A    between atoms: O_11  and  C_12 
REMARK    6  A    between atoms: C_12  and  C_13 
REMARK       I    between atoms: C_13  and  N_14 
REMARK    7  A    between atoms: N_14  and  C_15 
REMARK    8  A    between atoms: C_16  and  C_17 
REMARK       I    between atoms: C_17  and  N_18 
REMARK    9  A    between atoms: N_18  and  C_19 
REMARK   10  A    between atoms: C_19  and  C_20 
ROOT
HETATM    1  C   UNL     1      43.052 -14.394   5.224  1.00  0.00     0.050 A 
HETATM    2  C   UNL     1      43.114 -15.804   5.135  1.00  0.00     0.058 A 
HETATM    3  C   UNL     1      43.741 -16.553   6.147  1.00  0.00     0.019 A 
HETATM    4  C   UNL     1      44.338 -15.919   7.234  1.00  0.00     0.001 A 
HETATM    5  C   UNL     1      44.307 -14.533   7.315  1.00  0.00     0.002 A 
HETATM    6  C   UNL     1      43.671 -13.780   6.323  1.00  0.00     0.030 A 
ENDROOT
BRANCH   1   7
HETATM    7  N   UNL     1      42.353 -13.645   4.242  1.00  0.00    -0.324 N 
HETATM    8  C   UNL     1      40.994 -13.385   4.183  1.00  0.00     0.246 C 
HETATM    9  O   UNL     1      40.143 -13.764   4.985  1.00  0.00    -0.271 OA
HETATM   10  H   UNL     1      42.914 -13.304   3.455  1.00  0.00     0.169 HD
BRANCH   8  11
HETATM   11  C   UNL     1      40.593 -12.492   3.006  1.00  0.00     0.282 C 
BRANCH  11  12
HETATM   12  O   UNL     1      40.557 -13.180   1.758  1.00  0.00    -0.308 OA
BRANCH  12  13
HETATM   13  C   UNL     1      41.680 -13.055   1.005  1.00  0.00     0.298 C 
HETATM   14  O   UNL     1      42.691 -12.473   1.356  1.00  0.00    -0.259 OA
BRANCH  13  15
HETATM   15  C   UNL     1      41.454 -13.723  -0.295  1.00  0.00     0.092 A 
HETATM   16  C   UNL     1      41.419 -13.003  -1.484  1.00  0.00     0.180 A 
HETATM   17  N   UNL     1      41.200 -13.583  -2.693  1.00  0.00    -0.236 NA
HETATM   18  C   UNL     1      41.006 -14.919  -2.719  1.00  0.00     0.119 A 
HETATM   19  C   UNL     1      41.022 -15.718  -1.589  1.00  0.00     0.020 A 
HETATM   20  C   UNL     1      41.248 -15.109  -0.359  1.00  0.00     0.023 A 
BRANCH  16  21
HETATM   21  O   UNL     1      41.666 -11.647  -1.444  1.00  0.00    -0.334 OA
BRANCH  21  22
HETATM   22  C   UNL     1      42.909 -11.268  -2.038  1.00  0.00     0.173 C 
HETATM   23  C   UNL     1      42.625 -10.206  -3.084  1.00  0.00     0.034 C 
ENDBRANCH  21  22
ENDBRANCH  16  21
ENDBRANCH  13  15
ENDBRANCH  12  13
ENDBRANCH  11  12
ENDBRANCH   8  11
ENDBRANCH   1   7
BRANCH   2  24
HETATM   24  C   UNL     1      42.600 -16.591   3.977  1.00  0.00     0.254 C 
HETATM   25  N   UNL     1      43.551 -17.259   3.235  1.00  0.00    -0.349 N 
HETATM   26  H   UNL     1      44.459 -17.381   3.667  1.00  0.00     0.163 HD
HETATM   27  O   UNL     1      41.394 -16.681   3.778  1.00  0.00    -0.268 OA
BRANCH  25  28
HETATM   28  C   UNL     1      43.190 -18.231   2.211  1.00  0.00     0.114 C 
HETATM   29  C   UNL     1      43.702 -17.848   0.819  1.00  0.00     0.037 C 
BRANCH  28  30
HETATM   30  C   UNL     1      43.692 -19.601   2.643  1.00  0.00    -0.036 A 
HETATM   31  C   UNL     1      43.567 -20.725   1.810  1.00  0.00     0.009 A 
HETATM   32  C   UNL     1      44.062 -21.968   2.208  1.00  0.00     0.001 A 
HETATM   33  C   UNL     1      44.696 -22.102   3.441  1.00  0.00     0.000 A 
HETATM   34  C   UNL     1      44.838 -20.995   4.275  1.00  0.00     0.001 A 
HETATM   35  C   UNL     1      44.343 -19.751   3.878  1.00  0.00     0.009 A 
ENDBRANCH  28  30
ENDBRANCH  25  28
ENDBRANCH   2  24
TORSDOF 10
ENDMDL
MODEL 7
REMARK VINA RESULT:      -8.3      4.359      7.736
REMARK  10 active torsions:
REMARK  status: ('A' for Active; 'I' for Inactive)
REMARK    1  A    between atoms: C_2  and  O_3 
REMARK    2  A    between atoms: O_3  and  C_4 
REMARK    3  A    between atoms: C_9  and  C_10 
REMARK    4  A    between atoms: C_10  and  O_11 
REMARK    5  A    between atoms: O_11  and  C_12 
REMARK    6  A    between atoms: C_12  and  C_13 
REMARK       I    between atoms: C_13  and  N_14 
REMARK    7  A    between atoms: N_14  and  C_15 
REMARK    8  A    between atoms: C_16  and  C_17 
REMARK       I    between atoms: C_17  and  N_18 
REMARK    9  A    between atoms: N_18  and  C_19 
REMARK   10  A    between atoms: C_19  and  C_20 
ROOT
HETATM    1  C   UNL     1      42.831 -14.409   5.369  1.00  0.00     0.050 A 
HETATM    2  C   UNL     1      43.099 -15.787   5.203  1.00  0.00     0.058 A 
HETATM    3  C   UNL     1      43.980 -16.450   6.077  1.00  0.00     0.019 A 
HETATM    4  C   UNL     1      44.624 -15.755   7.097  1.00  0.00     0.001 A 
HETATM    5  C   UNL     1      44.389 -14.395   7.250  1.00  0.00     0.002 A 
HETATM    6  C   UNL     1      43.502 -13.730   6.396  1.00  0.00     0.030 A 
ENDROOT
BRANCH   1   7
HETATM    7  N   UNL     1      41.884 -13.758   4.534  1.00  0.00    -0.324 N 
HETATM    8  C   UNL     1      42.076 -13.280   3.249  1.00  0.00     0.246 C 
HETATM    9  O   UNL     1      43.116 -13.337   2.597  1.00  0.00    -0.271 OA
HETATM   10  H   UNL     1      40.968 -13.573   4.955  1.00  0.00     0.169 HD
BRANCH   8  11
HETATM   11  C   UNL     1      40.813 -12.680   2.626  1.00  0.00     0.282 C 
BRANCH  11  12
HETATM   12  O   UNL     1      39.655 -13.493   2.793  1.00  0.00    -0.308 OA
BRANCH  12  13
HETATM   13  C   UNL     1      39.390 -14.329   1.756  1.00  0.00     0.298 C 
HETATM   14  O   UNL     1      39.703 -15.506   1.715  1.00  0.00    -0.259 OA
BRANCH  13  15
HETATM   15  C   UNL     1      38.685 -13.568   0.702  1.00  0.00     0.092 A 
HETATM   16  C   UNL     1      39.166 -13.519  -0.601  1.00  0.00     0.180 A 
HETATM   17  N   UNL     1      38.552 -12.818  -1.590  1.00  0.00    -0.236 NA
HETATM   18  C   UNL     1      37.427 -12.143  -1.270  1.00  0.00     0.119 A 
HETATM   19  C   UNL     1      36.874 -12.132  -0.002  1.00  0.00     0.020 A 
HETATM   20  C   UNL     1      37.515 -12.855   0.999  1.00  0.00     0.023 A 
BRANCH  16  21
HETATM   21  O   UNL     1      40.290 -14.252  -0.920  1.00  0.00    -0.334 OA
BRANCH  21  22
HETATM   22  C   UNL     1      40.664 -14.167  -2.297  1.00  0.00     0.173 C 
HETATM   23  C   UNL     1      40.792 -15.579  -2.837  1.00  0.00     0.034 C 
ENDBRANCH  21  22
ENDBRANCH  16  21
ENDBRANCH  13  15
ENDBRANCH  12  13
ENDBRANCH  11  12
ENDBRANCH   8  11
ENDBRANCH   1   7
BRANCH   2  24
HETATM   24  C   UNL     1      42.548 -16.618   4.093  1.00  0.00     0.254 C 
HETATM   25  N   UNL     1      43.478 -17.176   3.242  1.00  0.00    -0.349 N 
HETATM   26  H   UNL     1      44.435 -17.203   3.572  1.00  0.00     0.163 HD
HETATM   27  O   UNL     1      41.343 -16.834   4.024  1.00  0.00    -0.268 OA
BRANCH  25  28
HETATM   28  C   UNL     1      43.112 -18.175   2.246  1.00  0.00     0.114 C 
HETATM   29  C   UNL     1      43.549 -17.791   0.828  1.00  0.00     0.037 C 
BRANCH  28  30
HETATM   30  C   UNL     1      43.686 -19.518   2.672  1.00  0.00    -0.036 A 
HETATM   31  C   UNL     1      44.304 -19.689   3.922  1.00  0.00     0.009 A 
HETATM   32  C   UNL     1      44.797 -20.936   4.311  1.00  0.00     0.001 A 
HETATM   33  C   UNL     1      44.671 -22.031   3.459  1.00  0.00     0.000 A 
HETATM   34  C   UNL     1      44.051 -21.881   2.220  1.00  0.00     0.001 A 
HETATM   35  C   UNL     1      43.558 -20.634   1.830  1.00  0.00     0.009 A 
ENDBRANCH  28  30
ENDBRANCH  25  28
ENDBRANCH   2  24
TORSDOF 10
ENDMDL
MODEL 8
REMARK VINA RESULT:      -8.2      5.091      9.530
REMARK  10 active torsions:
REMARK  status: ('A' for Active; 'I' for Inactive)
REMARK    1  A    between atoms: C_2  and  O_3 
REMARK    2  A    between atoms: O_3  and  C_4 
REMARK    3  A    between atoms: C_9  and  C_10 
REMARK    4  A    between atoms: C_10  and  O_11 
REMARK    5  A    between atoms: O_11  and  C_12 
REMARK    6  A    between atoms: C_12  and  C_13 
REMARK       I    between atoms: C_13  and  N_14 
REMARK    7  A    between atoms: N_14  and  C_15 
REMARK    8  A    between atoms: C_16  and  C_17 
REMARK       I    between atoms: C_17  and  N_18 
REMARK    9  A    between atoms: N_18  and  C_19 
REMARK   10  A    between atoms: C_19  and  C_20 
ROOT
HETATM    1  C   UNL     1      43.176 -19.324   2.771  1.00  0.00     0.050 A 
HETATM    2  C   UNL     1      43.525 -19.124   4.126  1.00  0.00     0.058 A 
HETATM    3  C   UNL     1      44.444 -19.983   4.757  1.00  0.00     0.019 A 
HETATM    4  C   UNL     1      44.998 -21.059   4.069  1.00  0.00     0.001 A 
HETATM    5  C   UNL     1      44.639 -21.280   2.745  1.00  0.00     0.002 A 
HETATM    6  C   UNL     1      43.739 -20.422   2.104  1.00  0.00     0.030 A 
ENDROOT
BRANCH   1   7
HETATM    7  N   UNL     1      42.307 -18.412   2.114  1.00  0.00    -0.324 N 
HETATM    8  C   UNL     1      42.632 -17.188   1.553  1.00  0.00     0.246 C 
HETATM    9  O   UNL     1      43.745 -16.670   1.527  1.00  0.00    -0.271 OA
HETATM   10  H   UNL     1      41.315 -18.667   2.103  1.00  0.00     0.169 HD
BRANCH   8  11
HETATM   11  C   UNL     1      41.447 -16.494   0.877  1.00  0.00     0.282 C 
BRANCH  11  12
HETATM   12  O   UNL     1      41.809 -15.311   0.170  1.00  0.00    -0.308 OA
BRANCH  12  13
HETATM   13  C   UNL     1      40.763 -14.563  -0.266  1.00  0.00     0.298 C 
HETATM   14  O   UNL     1      39.660 -14.543   0.251  1.00  0.00    -0.259 OA
BRANCH  13  15
HETATM   15  C   UNL     1      41.189 -13.808  -1.465  1.00  0.00     0.092 A 
HETATM   16  C   UNL     1      40.982 -14.306  -2.746  1.00  0.00     0.180 A 
HETATM   17  N   UNL     1      41.373 -13.645  -3.868  1.00  0.00    -0.236 NA
HETATM   18  C   UNL     1      41.991 -12.455  -3.708  1.00  0.00     0.119 A 
HETATM   19  C   UNL     1      42.240 -11.881  -2.474  1.00  0.00     0.020 A 
HETATM   20  C   UNL     1      41.834 -12.570  -1.336  1.00  0.00     0.023 A 
BRANCH  16  21
HETATM   21  O   UNL     1      40.308 -15.500  -2.892  1.00  0.00    -0.334 OA
BRANCH  21  22
HETATM   22  C   UNL     1      39.278 -15.465  -3.882  1.00  0.00     0.173 C 
HETATM   23  C   UNL     1      38.027 -14.894  -3.239  1.00  0.00     0.034 C 
ENDBRANCH  21  22
ENDBRANCH  16  21
ENDBRANCH  13  15
ENDBRANCH  12  13
ENDBRANCH  11  12
ENDBRANCH   8  11
ENDBRANCH   1   7
BRANCH   2  24
HETATM   24  C   UNL     1      42.930 -18.069   4.996  1.00  0.00     0.254 C 
HETATM   25  N   UNL     1      43.749 -17.000   5.290  1.00  0.00    -0.349 N 
HETATM   26  H   UNL     1      44.566 -16.881   4.702  1.00  0.00     0.163 HD
HETATM   27  O   UNL     1      41.756 -18.144   5.342  1.00  0.00    -0.268 OA
BRANCH  25  28
HETATM   28  C   UNL     1      43.248 -15.800   5.948  1.00  0.00     0.114 C 
HETATM   29  C   UNL     1      44.325 -15.069   6.756  1.00  0.00     0.037 C 
BRANCH  28  30
HETATM   30  C   UNL     1      42.618 -14.898   4.897  1.00  0.00    -0.036 A 
HETATM   31  C   UNL     1      41.231 -14.681   4.853  1.00  0.00     0.009 A 
HETATM   32  C   UNL     1      40.672 -13.824   3.903  1.00  0.00     0.001 A 
HETATM   33  C   UNL     1      41.493 -13.168   2.989  1.00  0.00     0.000 A 
HETATM   34  C   UNL     1      42.872 -13.365   3.025  1.00  0.00     0.001 A 
HETATM   35  C   UNL     1      43.432 -14.222   3.975  1.00  0.00     0.009 A 
ENDBRANCH  28  30
ENDBRANCH  25  28
ENDBRANCH   2  24
TORSDOF 10
ENDMDL
MODEL 9
REMARK VINA RESULT:      -8.2      5.008      9.449
REMARK  10 active torsions:
REMARK  status: ('A' for Active; 'I' for Inactive)
REMARK    1  A    between atoms: C_2  and  O_3 
REMARK    2  A    between atoms: O_3  and  C_4 
REMARK    3  A    between atoms: C_9  and  C_10 
REMARK    4  A    between atoms: C_10  and  O_11 
REMARK    5  A    between atoms: O_11  and  C_12 
REMARK    6  A    between atoms: C_12  and  C_13 
REMARK       I    between atoms: C_13  and  N_14 
REMARK    7  A    between atoms: N_14  and  C_15 
REMARK    8  A    between atoms: C_16  and  C_17 
REMARK       I    between atoms: C_17  and  N_18 
REMARK    9  A    between atoms: N_18  and  C_19 
REMARK   10  A    between atoms: C_19  and  C_20 
ROOT
HETATM    1  C   UNL     1      41.286 -14.887  -1.029  1.00  0.00     0.050 A 
HETATM    2  C   UNL     1      41.126 -13.482  -1.044  1.00  0.00     0.058 A 
HETATM    3  C   UNL     1      40.582 -12.841  -2.171  1.00  0.00     0.019 A 
HETATM    4  C   UNL     1      40.224 -13.573  -3.300  1.00  0.00     0.001 A 
HETATM    5  C   UNL     1      40.405 -14.950  -3.306  1.00  0.00     0.002 A 
HETATM    6  C   UNL     1      40.929 -15.599  -2.183  1.00  0.00     0.030 A 
ENDROOT
BRANCH   1   7
HETATM    7  N   UNL     1      41.764 -15.540   0.138  1.00  0.00    -0.324 N 
HETATM    8  C   UNL     1      41.045 -15.882   1.272  1.00  0.00     0.246 C 
HETATM    9  O   UNL     1      39.850 -15.676   1.467  1.00  0.00    -0.271 OA
HETATM   10  H   UNL     1      42.770 -15.730   0.165  1.00  0.00     0.169 HD
BRANCH   8  11
HETATM   11  C   UNL     1      41.876 -16.629   2.319  1.00  0.00     0.282 C 
BRANCH  11  12
HETATM   12  O   UNL     1      42.181 -17.972   1.950  1.00  0.00    -0.308 OA
BRANCH  12  13
HETATM   13  C   UNL     1      43.496 -18.216   1.719  1.00  0.00     0.298 C 
HETATM   14  O   UNL     1      44.231 -17.497   1.065  1.00  0.00    -0.259 OA
BRANCH  13  15
HETATM   15  C   UNL     1      43.863 -19.490   2.373  1.00  0.00     0.092 A 
HETATM   16  C   UNL     1      44.348 -19.523   3.675  1.00  0.00     0.180 A 
HETATM   17  N   UNL     1      44.707 -20.675   4.301  1.00  0.00    -0.236 NA
HETATM   18  C   UNL     1      44.584 -21.827   3.607  1.00  0.00     0.119 A 
HETATM   19  C   UNL     1      44.112 -21.893   2.308  1.00  0.00     0.020 A 
HETATM   20  C   UNL     1      43.748 -20.705   1.682  1.00  0.00     0.023 A 
BRANCH  16  21
HETATM   21  O   UNL     1      44.423 -18.343   4.384  1.00  0.00    -0.334 OA
BRANCH  21  22
HETATM   22  C   UNL     1      43.835 -18.411   5.685  1.00  0.00     0.173 C 
HETATM   23  C   UNL     1      42.330 -18.296   5.527  1.00  0.00     0.034 C 
ENDBRANCH  21  22
ENDBRANCH  16  21
ENDBRANCH  13  15
ENDBRANCH  12  13
ENDBRANCH  11  12
ENDBRANCH   8  11
ENDBRANCH   1   7
BRANCH   2  24
HETATM   24  C   UNL     1      41.559 -12.579   0.062  1.00  0.00     0.254 C 
HETATM   25  N   UNL     1      40.680 -12.460   1.118  1.00  0.00    -0.349 N 
HETATM   26  H   UNL     1      39.960 -13.168   1.191  1.00  0.00     0.163 HD
HETATM   27  O   UNL     1      42.667 -12.058   0.035  1.00  0.00    -0.268 OA
BRANCH  25  28
HETATM   28  C   UNL     1      41.050 -11.787   2.357  1.00  0.00     0.114 C 
HETATM   29  C   UNL     1      40.135 -10.603   2.688  1.00  0.00     0.037 C 
BRANCH  28  30
HETATM   30  C   UNL     1      41.073 -12.815   3.479  1.00  0.00    -0.036 A 
HETATM   31  C   UNL     1      39.889 -13.384   3.978  1.00  0.00     0.009 A 
HETATM   32  C   UNL     1      39.931 -14.350   4.985  1.00  0.00     0.001 A 
HETATM   33  C   UNL     1      41.155 -14.766   5.501  1.00  0.00     0.000 A 
HETATM   34  C   UNL     1      42.339 -14.219   5.011  1.00  0.00     0.001 A 
HETATM   35  C   UNL     1      42.300 -13.252   4.003  1.00  0.00     0.009 A 
ENDBRANCH  28  30
ENDBRANCH  25  28
ENDBRANCH   2  24
TORSDOF 10
ENDMDL
MODEL 10
REMARK VINA RESULT:      -8.2      2.655      8.431
REMARK  10 active torsions:
REMARK  status: ('A' for Active; 'I' for Inactive)
REMARK    1  A    between atoms: C_2  and  O_3 
REMARK    2  A    between atoms: O_3  and  C_4 
REMARK    3  A    between atoms: C_9  and  C_10 
REMARK    4  A    between atoms: C_10  and  O_11 
REMARK    5  A    between atoms: O_11  and  C_12 
REMARK    6  A    between atoms: C_12  and  C_13 
REMARK       I    between atoms: C_13  and  N_14 
REMARK    7  A    between atoms: N_14  and  C_15 
REMARK    8  A    between atoms: C_16  and  C_17 
REMARK       I    between atoms: C_17  and  N_18 
REMARK    9  A    between atoms: N_18  and  C_19 
REMARK   10  A    between atoms: C_19  and  C_20 
ROOT
HETATM    1  C   UNL     1      40.569 -13.341   4.000  1.00  0.00     0.050 A 
HETATM    2  C   UNL     1      40.993 -13.053   5.317  1.00  0.00     0.058 A 
HETATM    3  C   UNL     1      40.363 -12.038   6.061  1.00  0.00     0.019 A 
HETATM    4  C   UNL     1      39.337 -11.282   5.502  1.00  0.00     0.001 A 
HETATM    5  C   UNL     1      38.933 -11.538   4.199  1.00  0.00     0.002 A 
HETATM    6  C   UNL     1      39.541 -12.556   3.457  1.00  0.00     0.030 A 
ENDROOT
BRANCH   1   7
HETATM    7  N   UNL     1      41.153 -14.415   3.278  1.00  0.00    -0.324 N 
HETATM    8  C   UNL     1      42.310 -14.393   2.516  1.00  0.00     0.246 C 
HETATM    9  O   UNL     1      43.042 -13.425   2.329  1.00  0.00    -0.271 OA
HETATM   10  H   UNL     1      40.627 -15.294   3.278  1.00  0.00     0.169 HD
BRANCH   8  11
HETATM   11  C   UNL     1      42.674 -15.756   1.920  1.00  0.00     0.282 C 
BRANCH  11  12
HETATM   12  O   UNL     1      43.339 -16.619   2.839  1.00  0.00    -0.308 OA
BRANCH  12  13
HETATM   13  C   UNL     1      42.554 -17.578   3.392  1.00  0.00     0.298 C 
HETATM   14  O   UNL     1      41.351 -17.481   3.559  1.00  0.00    -0.259 OA
BRANCH  13  15
HETATM   15  C   UNL     1      43.406 -18.729   3.764  1.00  0.00     0.092 A 
HETATM   16  C   UNL     1      43.700 -19.013   5.092  1.00  0.00     0.180 A 
HETATM   17  N   UNL     1      44.489 -20.053   5.468  1.00  0.00    -0.236 NA
HETATM   18  C   UNL     1      45.003 -20.831   4.491  1.00  0.00     0.119 A 
HETATM   19  C   UNL     1      44.767 -20.626   3.144  1.00  0.00     0.020 A 
HETATM   20  C   UNL     1      43.957 -19.557   2.775  1.00  0.00     0.023 A 
BRANCH  16  21
HETATM   21  O   UNL     1      43.128 -18.237   6.078  1.00  0.00    -0.334 OA
BRANCH  21  22
HETATM   22  C   UNL     1      43.599 -18.534   7.394  1.00  0.00     0.173 C 
HETATM   23  C   UNL     1      43.408 -17.297   8.252  1.00  0.00     0.034 C 
ENDBRANCH  21  22
ENDBRANCH  16  21
ENDBRANCH  13  15
ENDBRANCH  12  13
ENDBRANCH  11  12
ENDBRANCH   8  11
ENDBRANCH   1   7
BRANCH   2  24
HETATM   24  C   UNL     1      42.142 -13.725   5.991  1.00  0.00     0.254 C 
HETATM   25  N   UNL     1      43.029 -12.891   6.639  1.00  0.00    -0.349 N 
HETATM   26  H   UNL     1      42.709 -11.950   6.831  1.00  0.00     0.163 HD
HETATM   27  O   UNL     1      42.214 -14.948   6.016  1.00  0.00    -0.268 OA
BRANCH  25  28
HETATM   28  C   UNL     1      44.075 -13.407   7.513  1.00  0.00     0.114 C 
HETATM   29  C   UNL     1      45.351 -13.787   6.755  1.00  0.00     0.037 C 
BRANCH  28  30
HETATM   30  C   UNL     1      44.348 -12.378   8.601  1.00  0.00    -0.036 A 
HETATM   31  C   UNL     1      45.628 -12.223   9.159  1.00  0.00     0.009 A 
HETATM   32  C   UNL     1      45.869 -11.252  10.134  1.00  0.00     0.001 A 
HETATM   33  C   UNL     1      44.836 -10.420  10.557  1.00  0.00     0.000 A 
HETATM   34  C   UNL     1      43.563 -10.554  10.007  1.00  0.00     0.001 A 
HETATM   35  C   UNL     1      43.321 -11.525   9.032  1.00  0.00     0.009 A 
ENDBRANCH  28  30
ENDBRANCH  25  28
ENDBRANCH   2  24
TORSDOF 10
ENDMDL
