MODEL 1
REMARK VINA RESULT:      -9.3      0.000      0.000
REMARK  7 active torsions:
REMARK  status: ('A' for Active; 'I' for Inactive)
REMARK    1  A    between atoms: S_2  and  C_3 
REMARK    2  A    between atoms: C_3  and  C_4 
REMARK    3  A    between atoms: C_4  and  C_5 
REMARK    4  A    between atoms: C_5  and  N_6 
REMARK    5  A    between atoms: C_5  and  C_26 
REMARK       I    between atoms: N_6  and  C_7 
REMARK    6  A    between atoms: C_7  and  C_8 
REMARK    7  A    between atoms: C_8  and  N_9 
ROOT
HETATM    1  N   UNL     1      40.022 -14.707   0.310  1.00  0.00    -0.348 N 
HETATM    2  C   UNL     1      41.346 -14.937  -0.003  1.00  0.00     0.236 C 
HETATM    3  O   UNL     1      42.061 -14.047  -0.472  1.00  0.00    -0.272 OA
HETATM    4  H   UNL     1      39.381 -15.490   0.214  1.00  0.00     0.163 HD
ENDROOT
BRANCH   2   5
HETATM    5  C   UNL     1      41.833 -16.383   0.041  1.00  0.00     0.239 C 
BRANCH   5   6
HETATM    6  N   UNL     1      42.141 -16.912   1.352  1.00  0.00    -0.259 N 
HETATM    7  C   UNL     1      41.205 -17.317   2.246  1.00  0.00     0.326 A 
HETATM    8  O   UNL     1      40.002 -17.133   2.162  1.00  0.00    -0.247 OA
HETATM    9  N   UNL     1      41.825 -17.965   3.281  1.00  0.00    -0.320 N 
HETATM   10  C   UNL     1      43.263 -18.044   3.112  1.00  0.00     0.144 A 
HETATM   11  H   UNL     1      41.299 -18.436   4.005  1.00  0.00     0.165 HD
HETATM   12  C   UNL     1      43.711 -19.499   3.031  1.00  0.00    -0.014 A 
HETATM   13  C   UNL     1      43.979 -17.252   4.217  1.00  0.00     0.047 C 
HETATM   14  C   UNL     1      43.394 -17.278   1.770  1.00  0.00     0.261 A 
HETATM   15  C   UNL     1      44.383 -20.108   4.115  1.00  0.00    -0.049 A 
HETATM   16  C   UNL     1      43.437 -20.280   1.891  1.00  0.00     0.011 A 
HETATM   17  C   UNL     1      44.792 -21.449   4.018  1.00  0.00     0.007 A 
HETATM   18  C   UNL     1      44.749 -19.344   5.364  1.00  0.00     0.039 C 
HETATM   19  C   UNL     1      44.526 -22.196   2.873  1.00  0.00     0.001 A 
HETATM   20  C   UNL     1      43.845 -21.613   1.811  1.00  0.00     0.001 A 
HETATM   21  C   UNL     1      43.982 -18.037   5.526  1.00  0.00     0.008 C 
HETATM   22  O   UNL     1      44.436 -17.066   1.164  1.00  0.00    -0.270 OA
ENDBRANCH   5   6
ENDBRANCH   2   5
BRANCH   1  23
HETATM   23  C   UNL     1      39.455 -13.366   0.168  1.00  0.00     0.155 C 
BRANCH  23  24
HETATM   24  C   UNL     1      38.708 -12.924   1.436  1.00  0.00     0.043 C 
BRANCH  24  25
HETATM   25  C   UNL     1      39.610 -12.508   2.597  1.00  0.00     0.076 C 
BRANCH  25  26
HETATM   26  S   UNL     1      39.974 -13.806   3.830  1.00  0.00    -0.173 SA
HETATM   27  C   UNL     1      41.768 -13.951   3.624  1.00  0.00     0.089 C 
ENDBRANCH  25  26
ENDBRANCH  24  25
ENDBRANCH  23  24
BRANCH  23  28
HETATM   28  C   UNL     1      38.540 -13.342  -1.031  1.00  0.00     0.128 A 
HETATM   29  N   UNL     1      37.925 -12.301  -1.561  1.00  0.00    -0.231 NA
HETATM   30  C   UNL     1      37.321 -12.770  -2.703  1.00  0.00     0.085 A 
HETATM   31  C   UNL     1      37.537 -14.135  -2.856  1.00  0.00     0.062 A 
HETATM   32  C   UNL     1      36.578 -12.081  -3.672  1.00  0.00     0.034 A 
HETATM   33  N   UNL     1      38.313 -14.475  -1.780  1.00  0.00    -0.341 N 
HETATM   34  C   UNL     1      37.032 -14.876  -3.927  1.00  0.00     0.032 A 
HETATM   35  H   UNL     1      38.689 -15.391  -1.563  1.00  0.00     0.167 HD
HETATM   36  C   UNL     1      36.290 -14.172  -4.884  1.00  0.00     0.002 A 
HETATM   37  C   UNL     1      36.070 -12.797  -4.765  1.00  0.00     0.002 A 
ENDBRANCH  23  28
ENDBRANCH   1  23
TORSDOF 7
ENDMDL
MODEL 2
REMARK VINA RESULT:      -8.9      3.169      5.063
REMARK  7 active torsions:
REMARK  status: ('A' for Active; 'I' for Inactive)
REMARK    1  A    between atoms: S_2  and  C_3 
REMARK    2  A    between atoms: C_3  and  C_4 
REMARK    3  A    between atoms: C_4  and  C_5 
REMARK    4  A    between atoms: C_5  and  N_6 
REMARK    5  A    between atoms: C_5  and  C_26 
REMARK       I    between atoms: N_6  and  C_7 
REMARK    6  A    between atoms: C_7  and  C_8 
REMARK    7  A    between atoms: C_8  and  N_9 
ROOT
HETATM    1  N   UNL     1      41.867 -13.915   0.779  1.00  0.00    -0.348 N 
HETATM    2  C   UNL     1      41.255 -14.889   0.018  1.00  0.00     0.236 C 
HETATM    3  O   UNL     1      40.162 -14.693  -0.521  1.00  0.00    -0.272 OA
HETATM    4  H   UNL     1      42.444 -14.229   1.557  1.00  0.00     0.163 HD
ENDROOT
BRANCH   2   5
HETATM    5  C   UNL     1      41.865 -16.288   0.050  1.00  0.00     0.239 C 
BRANCH   5   6
HETATM    6  N   UNL     1      42.156 -16.826   1.362  1.00  0.00    -0.259 N 
HETATM    7  C   UNL     1      41.208 -17.239   2.240  1.00  0.00     0.326 A 
HETATM    8  O   UNL     1      40.006 -17.056   2.141  1.00  0.00    -0.247 OA
HETATM    9  N   UNL     1      41.814 -17.893   3.279  1.00  0.00    -0.320 N 
HETATM   10  C   UNL     1      43.255 -17.968   3.129  1.00  0.00     0.144 A 
HETATM   11  H   UNL     1      41.279 -18.369   3.992  1.00  0.00     0.165 HD
HETATM   12  C   UNL     1      43.706 -19.422   3.045  1.00  0.00    -0.014 A 
HETATM   13  C   UNL     1      43.954 -17.184   4.250  1.00  0.00     0.047 C 
HETATM   14  C   UNL     1      43.403 -17.193   1.795  1.00  0.00     0.261 A 
HETATM   15  C   UNL     1      44.364 -20.038   4.133  1.00  0.00    -0.049 A 
HETATM   16  C   UNL     1      43.448 -20.196   1.895  1.00  0.00     0.011 A 
HETATM   17  C   UNL     1      44.775 -21.378   4.032  1.00  0.00     0.007 A 
HETATM   18  C   UNL     1      44.711 -19.282   5.393  1.00  0.00     0.039 C 
HETATM   19  C   UNL     1      44.527 -22.117   2.879  1.00  0.00     0.001 A 
HETATM   20  C   UNL     1      43.860 -21.527   1.812  1.00  0.00     0.001 A 
HETATM   21  C   UNL     1      43.940 -17.977   5.553  1.00  0.00     0.008 C 
HETATM   22  O   UNL     1      44.453 -16.975   1.205  1.00  0.00    -0.270 OA
ENDBRANCH   5   6
ENDBRANCH   2   5
BRANCH   1  23
HETATM   23  C   UNL     1      41.266 -12.587   0.896  1.00  0.00     0.155 C 
BRANCH  23  24
HETATM   24  C   UNL     1      42.215 -11.484   0.400  1.00  0.00     0.043 C 
BRANCH  24  25
HETATM   25  C   UNL     1      41.693 -10.679  -0.789  1.00  0.00     0.076 C 
BRANCH  25  26
HETATM   26  S   UNL     1      41.233 -11.648  -2.268  1.00  0.00    -0.173 SA
HETATM   27  C   UNL     1      42.755 -12.601  -2.513  1.00  0.00     0.089 C 
ENDBRANCH  25  26
ENDBRANCH  24  25
ENDBRANCH  23  24
BRANCH  23  28
HETATM   28  C   UNL     1      40.870 -12.349   2.331  1.00  0.00     0.128 A 
HETATM   29  N   UNL     1      40.014 -13.039   3.062  1.00  0.00    -0.231 NA
HETATM   30  C   UNL     1      40.098 -12.512   4.329  1.00  0.00     0.085 A 
HETATM   31  C   UNL     1      40.995 -11.450   4.367  1.00  0.00     0.062 A 
HETATM   32  C   UNL     1      39.443 -12.899   5.507  1.00  0.00     0.034 A 
HETATM   33  N   UNL     1      41.470 -11.366   3.086  1.00  0.00    -0.341 N 
HETATM   34  C   UNL     1      41.271 -10.722   5.526  1.00  0.00     0.032 A 
HETATM   35  H   UNL     1      42.164 -10.716   2.733  1.00  0.00     0.167 HD
HETATM   36  C   UNL     1      40.608 -11.121   6.693  1.00  0.00     0.002 A 
HETATM   37  C   UNL     1      39.712 -12.194   6.688  1.00  0.00     0.002 A 
ENDBRANCH  23  28
ENDBRANCH   1  23
TORSDOF 7
ENDMDL
MODEL 3
REMARK VINA RESULT:      -8.7      5.036      7.983
REMARK  7 active torsions:
REMARK  status: ('A' for Active; 'I' for Inactive)
REMARK    1  A    between atoms: S_2  and  C_3 
REMARK    2  A    between atoms: C_3  and  C_4 
REMARK    3  A    between atoms: C_4  and  C_5 
REMARK    4  A    between atoms: C_5  and  N_6 
REMARK    5  A    between atoms: C_5  and  C_26 
REMARK       I    between atoms: N_6  and  C_7 
REMARK    6  A    between atoms: C_7  and  C_8 
REMARK    7  A    between atoms: C_8  and  N_9 
ROOT
HETATM    1  N   UNL     1      40.972 -12.895   6.401  1.00  0.00    -0.348 N 
HETATM    2  C   UNL     1      40.411 -14.033   5.860  1.00  0.00     0.236 C 
HETATM    3  O   UNL     1      39.312 -14.005   5.300  1.00  0.00    -0.272 OA
HETATM    4  H   UNL     1      41.561 -13.014   7.222  1.00  0.00     0.163 HD
ENDROOT
BRANCH   2   5
HETATM    5  C   UNL     1      41.089 -15.365   6.175  1.00  0.00     0.239 C 
BRANCH   5   6
HETATM    6  N   UNL     1      41.859 -15.957   5.102  1.00  0.00    -0.259 N 
HETATM    7  C   UNL     1      43.065 -15.495   4.689  1.00  0.00     0.326 A 
HETATM    8  O   UNL     1      43.583 -14.440   5.018  1.00  0.00    -0.247 OA
HETATM    9  N   UNL     1      43.619 -16.400   3.824  1.00  0.00    -0.320 N 
HETATM   10  C   UNL     1      42.782 -17.568   3.624  1.00  0.00     0.144 A 
HETATM   11  H   UNL     1      44.563 -16.296   3.479  1.00  0.00     0.165 HD
HETATM   12  C   UNL     1      43.505 -18.827   4.089  1.00  0.00    -0.014 A 
HETATM   13  C   UNL     1      42.310 -17.648   2.164  1.00  0.00     0.047 C 
HETATM   14  C   UNL     1      41.585 -17.169   4.524  1.00  0.00     0.261 A 
HETATM   15  C   UNL     1      44.024 -19.749   3.153  1.00  0.00    -0.049 A 
HETATM   16  C   UNL     1      43.704 -19.084   5.460  1.00  0.00     0.011 A 
HETATM   17  C   UNL     1      44.682 -20.906   3.604  1.00  0.00     0.007 A 
HETATM   18  C   UNL     1      43.833 -19.575   1.666  1.00  0.00     0.039 C 
HETATM   19  C   UNL     1      44.849 -21.148   4.964  1.00  0.00     0.001 A 
HETATM   20  C   UNL     1      44.363 -20.236   5.893  1.00  0.00     0.001 A 
HETATM   21  C   UNL     1      43.430 -18.162   1.263  1.00  0.00     0.008 C 
HETATM   22  O   UNL     1      40.579 -17.839   4.719  1.00  0.00    -0.270 OA
ENDBRANCH   5   6
ENDBRANCH   2   5
BRANCH   1  23
HETATM   23  C   UNL     1      40.306 -11.602   6.247  1.00  0.00     0.155 C 
BRANCH  23  24
HETATM   24  C   UNL     1      41.148 -10.621   5.415  1.00  0.00     0.043 C 
BRANCH  24  25
HETATM   25  C   UNL     1      40.532 -10.231   4.072  1.00  0.00     0.076 C 
BRANCH  25  26
HETATM   26  S   UNL     1      38.727 -10.472   3.922  1.00  0.00    -0.173 SA
HETATM   27  C   UNL     1      38.135  -8.915   4.635  1.00  0.00     0.089 C 
ENDBRANCH  25  26
ENDBRANCH  24  25
ENDBRANCH  23  24
BRANCH  23  28
HETATM   28  C   UNL     1      40.011 -11.033   7.611  1.00  0.00     0.128 A 
HETATM   29  N   UNL     1      39.013 -10.243   7.962  1.00  0.00    -0.231 NA
HETATM   30  C   UNL     1      39.108 -10.110   9.327  1.00  0.00     0.085 A 
HETATM   31  C   UNL     1      40.211 -10.800   9.819  1.00  0.00     0.062 A 
HETATM   32  C   UNL     1      38.276  -9.422  10.222  1.00  0.00     0.034 A 
HETATM   33  N   UNL     1      40.768 -11.377   8.709  1.00  0.00    -0.341 N 
HETATM   34  C   UNL     1      40.554 -10.832  11.172  1.00  0.00     0.032 A 
HETATM   35  H   UNL     1      41.585 -11.978   8.677  1.00  0.00     0.167 HD
HETATM   36  C   UNL     1      39.713 -10.138  12.051  1.00  0.00     0.002 A 
HETATM   37  C   UNL     1      38.589  -9.448  11.587  1.00  0.00     0.002 A 
ENDBRANCH  23  28
ENDBRANCH   1  23
TORSDOF 7
ENDMDL
MODEL 4
REMARK VINA RESULT:      -8.5      2.836      3.683
REMARK  7 active torsions:
REMARK  status: ('A' for Active; 'I' for Inactive)
REMARK    1  A    between atoms: S_2  and  C_3 
REMARK    2  A    between atoms: C_3  and  C_4 
REMARK    3  A    between atoms: C_4  and  C_5 
REMARK    4  A    between atoms: C_5  and  N_6 
REMARK    5  A    between atoms: C_5  and  C_26 
REMARK       I    between atoms: N_6  and  C_7 
REMARK    6  A    between atoms: C_7  and  C_8 
REMARK    7  A    between atoms: C_8  and  N_9 
ROOT
HETATM    1  N   UNL     1      40.113 -14.518  -0.606  1.00  0.00    -0.348 N 
HETATM    2  C   UNL     1      41.246 -14.730   0.152  1.00  0.00     0.236 C 
HETATM    3  O   UNL     1      41.854 -13.793   0.677  1.00  0.00    -0.272 OA
HETATM    4  H   UNL     1      39.943 -15.162  -1.375  1.00  0.00     0.163 HD
ENDROOT
BRANCH   2   5
HETATM    5  C   UNL     1      41.847 -16.134   0.132  1.00  0.00     0.239 C 
BRANCH   5   6
HETATM    6  N   UNL     1      42.134 -16.722   1.423  1.00  0.00    -0.259 N 
HETATM    7  C   UNL     1      41.184 -17.162   2.285  1.00  0.00     0.326 A 
HETATM    8  O   UNL     1      39.982 -16.969   2.192  1.00  0.00    -0.247 OA
HETATM    9  N   UNL     1      41.786 -17.857   3.299  1.00  0.00    -0.320 N 
HETATM   10  C   UNL     1      43.226 -17.934   3.147  1.00  0.00     0.144 A 
HETATM   11  H   UNL     1      41.248 -18.357   3.993  1.00  0.00     0.165 HD
HETATM   12  C   UNL     1      43.670 -19.386   3.009  1.00  0.00    -0.014 A 
HETATM   13  C   UNL     1      43.929 -17.195   4.296  1.00  0.00     0.047 C 
HETATM   14  C   UNL     1      43.379 -17.111   1.843  1.00  0.00     0.261 A 
HETATM   15  C   UNL     1      44.324 -20.046   4.074  1.00  0.00    -0.049 A 
HETATM   16  C   UNL     1      43.410 -20.115   1.831  1.00  0.00     0.011 A 
HETATM   17  C   UNL     1      44.729 -21.383   3.923  1.00  0.00     0.007 A 
HETATM   18  C   UNL     1      44.674 -19.339   5.361  1.00  0.00     0.039 C 
HETATM   19  C   UNL     1      44.478 -22.076   2.743  1.00  0.00     0.001 A 
HETATM   20  C   UNL     1      43.815 -21.444   1.698  1.00  0.00     0.001 A 
HETATM   21  C   UNL     1      43.909 -18.037   5.569  1.00  0.00     0.008 C 
HETATM   22  O   UNL     1      44.431 -16.876   1.262  1.00  0.00    -0.270 OA
ENDBRANCH   5   6
ENDBRANCH   2   5
BRANCH   1  23
HETATM   23  C   UNL     1      39.557 -13.171  -0.736  1.00  0.00     0.155 C 
BRANCH  23  24
HETATM   24  C   UNL     1      38.092 -13.201  -1.203  1.00  0.00     0.043 C 
BRANCH  24  25
HETATM   25  C   UNL     1      37.673 -14.489  -1.910  1.00  0.00     0.076 C 
BRANCH  25  26
HETATM   26  S   UNL     1      37.613 -14.414  -3.734  1.00  0.00    -0.173 SA
HETATM   27  C   UNL     1      38.782 -15.735  -4.148  1.00  0.00     0.089 C 
ENDBRANCH  25  26
ENDBRANCH  24  25
ENDBRANCH  23  24
BRANCH  23  28
HETATM   28  C   UNL     1      40.409 -12.374  -1.690  1.00  0.00     0.128 A 
HETATM   29  N   UNL     1      40.637 -12.614  -2.968  1.00  0.00    -0.231 NA
HETATM   30  C   UNL     1      41.363 -11.539  -3.423  1.00  0.00     0.085 A 
HETATM   31  C   UNL     1      41.620 -10.640  -2.394  1.00  0.00     0.062 A 
HETATM   32  C   UNL     1      41.831 -11.254  -4.714  1.00  0.00     0.034 A 
HETATM   33  N   UNL     1      41.004 -11.194  -1.303  1.00  0.00    -0.341 N 
HETATM   34  C   UNL     1      42.345  -9.460  -2.570  1.00  0.00     0.032 A 
HETATM   35  H   UNL     1      40.959 -10.809  -0.366  1.00  0.00     0.167 HD
HETATM   36  C   UNL     1      42.806  -9.192  -3.866  1.00  0.00     0.002 A 
HETATM   37  C   UNL     1      42.550 -10.070  -4.923  1.00  0.00     0.002 A 
ENDBRANCH  23  28
ENDBRANCH   1  23
TORSDOF 7
ENDMDL
MODEL 5
REMARK VINA RESULT:      -8.5      5.168      8.366
REMARK  7 active torsions:
REMARK  status: ('A' for Active; 'I' for Inactive)
REMARK    1  A    between atoms: S_2  and  C_3 
REMARK    2  A    between atoms: C_3  and  C_4 
REMARK    3  A    between atoms: C_4  and  C_5 
REMARK    4  A    between atoms: C_5  and  N_6 
REMARK    5  A    between atoms: C_5  and  C_26 
REMARK       I    between atoms: N_6  and  C_7 
REMARK    6  A    between atoms: C_7  and  C_8 
REMARK    7  A    between atoms: C_8  and  N_9 
ROOT
HETATM    1  N   UNL     1      41.188 -12.105   5.768  1.00  0.00    -0.348 N 
HETATM    2  C   UNL     1      40.203 -12.973   5.346  1.00  0.00     0.236 C 
HETATM    3  O   UNL     1      39.070 -12.946   5.833  1.00  0.00    -0.272 OA
HETATM    4  H   UNL     1      42.148 -12.443   5.739  1.00  0.00     0.163 HD
ENDROOT
BRANCH   2   5
HETATM    5  C   UNL     1      40.625 -14.112   4.420  1.00  0.00     0.239 C 
BRANCH   5   6
HETATM    6  N   UNL     1      41.425 -15.158   5.021  1.00  0.00    -0.259 N 
HETATM    7  C   UNL     1      40.931 -16.106   5.856  1.00  0.00     0.326 A 
HETATM    8  O   UNL     1      39.820 -16.114   6.359  1.00  0.00    -0.247 OA
HETATM    9  N   UNL     1      41.889 -17.063   6.063  1.00  0.00    -0.320 N 
HETATM   10  C   UNL     1      43.112 -16.799   5.330  1.00  0.00     0.144 A 
HETATM   11  H   UNL     1      41.689 -17.912   6.574  1.00  0.00     0.165 HD
HETATM   12  C   UNL     1      43.392 -17.922   4.338  1.00  0.00    -0.014 A 
HETATM   13  C   UNL     1      44.276 -16.547   6.301  1.00  0.00     0.047 C 
HETATM   14  C   UNL     1      42.711 -15.461   4.658  1.00  0.00     0.261 A 
HETATM   15  C   UNL     1      44.419 -18.861   4.581  1.00  0.00    -0.049 A 
HETATM   16  C   UNL     1      42.612 -18.072   3.174  1.00  0.00     0.011 A 
HETATM   17  C   UNL     1      44.663 -19.886   3.651  1.00  0.00     0.007 A 
HETATM   18  C   UNL     1      45.326 -18.764   5.784  1.00  0.00     0.039 C 
HETATM   19  C   UNL     1      43.892 -20.001   2.498  1.00  0.00     0.001 A 
HETATM   20  C   UNL     1      42.864 -19.097   2.260  1.00  0.00     0.001 A 
HETATM   21  C   UNL     1      44.783 -17.862   6.887  1.00  0.00     0.008 C 
HETATM   22  O   UNL     1      43.410 -14.801   3.900  1.00  0.00    -0.270 OA
ENDBRANCH   5   6
ENDBRANCH   2   5
BRANCH   1  23
HETATM   23  C   UNL     1      40.883 -11.068   6.753  1.00  0.00     0.155 C 
BRANCH  23  24
HETATM   24  C   UNL     1      40.701  -9.691   6.096  1.00  0.00     0.043 C 
BRANCH  24  25
HETATM   25  C   UNL     1      39.283  -9.398   5.607  1.00  0.00     0.076 C 
BRANCH  25  26
HETATM   26  S   UNL     1      38.823  -7.632   5.507  1.00  0.00    -0.173 SA
HETATM   27  C   UNL     1      38.532  -7.276   7.260  1.00  0.00     0.089 C 
ENDBRANCH  25  26
ENDBRANCH  24  25
ENDBRANCH  23  24
BRANCH  23  28
HETATM   28  C   UNL     1      41.980 -11.030   7.787  1.00  0.00     0.128 A 
HETATM   29  N   UNL     1      42.067 -10.250   8.848  1.00  0.00    -0.231 NA
HETATM   30  C   UNL     1      43.175 -10.685   9.537  1.00  0.00     0.085 A 
HETATM   31  C   UNL     1      43.802 -11.728   8.864  1.00  0.00     0.062 A 
HETATM   32  C   UNL     1      43.702 -10.244  10.759  1.00  0.00     0.034 A 
HETATM   33  N   UNL     1      43.024 -11.927   7.754  1.00  0.00    -0.341 N 
HETATM   34  C   UNL     1      44.957 -12.358   9.332  1.00  0.00     0.032 A 
HETATM   35  H   UNL     1      43.159 -12.625   7.031  1.00  0.00     0.167 HD
HETATM   36  C   UNL     1      45.470 -11.903  10.553  1.00  0.00     0.002 A 
HETATM   37  C   UNL     1      44.853 -10.867  11.260  1.00  0.00     0.002 A 
ENDBRANCH  23  28
ENDBRANCH   1  23
TORSDOF 7
ENDMDL
MODEL 6
REMARK VINA RESULT:      -8.4      2.918      5.931
REMARK  7 active torsions:
REMARK  status: ('A' for Active; 'I' for Inactive)
REMARK    1  A    between atoms: S_2  and  C_3 
REMARK    2  A    between atoms: C_3  and  C_4 
REMARK    3  A    between atoms: C_4  and  C_5 
REMARK    4  A    between atoms: C_5  and  N_6 
REMARK    5  A    between atoms: C_5  and  C_26 
REMARK       I    between atoms: N_6  and  C_7 
REMARK    6  A    between atoms: C_7  and  C_8 
REMARK    7  A    between atoms: C_8  and  N_9 
ROOT
HETATM    1  N   UNL     1      40.330 -13.205   1.893  1.00  0.00    -0.348 N 
HETATM    2  C   UNL     1      41.059 -12.037   1.984  1.00  0.00     0.236 C 
HETATM    3  O   UNL     1      41.773 -11.650   1.056  1.00  0.00    -0.272 OA
HETATM    4  H   UNL     1      40.177 -13.724   2.755  1.00  0.00     0.163 HD
ENDROOT
BRANCH   2   5
HETATM    5  C   UNL     1      41.126 -11.360   3.352  1.00  0.00     0.239 C 
BRANCH   5   6
HETATM    6  N   UNL     1      41.702 -12.144   4.423  1.00  0.00    -0.259 N 
HETATM    7  C   UNL     1      41.191 -12.206   5.677  1.00  0.00     0.326 A 
HETATM    8  O   UNL     1      40.311 -11.494   6.132  1.00  0.00    -0.247 OA
HETATM    9  N   UNL     1      41.830 -13.197   6.373  1.00  0.00    -0.320 N 
HETATM   10  C   UNL     1      42.828 -13.886   5.577  1.00  0.00     0.144 A 
HETATM   11  H   UNL     1      41.530 -13.477   7.297  1.00  0.00     0.165 HD
HETATM   12  C   UNL     1      42.472 -15.362   5.437  1.00  0.00    -0.014 A 
HETATM   13  C   UNL     1      44.232 -13.657   6.158  1.00  0.00     0.047 C 
HETATM   14  C   UNL     1      42.686 -13.085   4.258  1.00  0.00     0.261 A 
HETATM   15  C   UNL     1      43.190 -16.349   6.149  1.00  0.00    -0.049 A 
HETATM   16  C   UNL     1      41.397 -15.775   4.624  1.00  0.00     0.011 A 
HETATM   17  C   UNL     1      42.848 -17.704   6.002  1.00  0.00     0.007 A 
HETATM   18  C   UNL     1      44.376 -16.006   7.019  1.00  0.00     0.039 C 
HETATM   19  C   UNL     1      41.795 -18.089   5.177  1.00  0.00     0.001 A 
HETATM   20  C   UNL     1      41.067 -17.124   4.491  1.00  0.00     0.001 A 
HETATM   21  C   UNL     1      44.455 -14.530   7.390  1.00  0.00     0.008 C 
HETATM   22  O   UNL     1      43.317 -13.280   3.228  1.00  0.00    -0.270 OA
ENDBRANCH   5   6
ENDBRANCH   2   5
BRANCH   1  23
HETATM   23  C   UNL     1      40.326 -13.974   0.649  1.00  0.00     0.155 C 
BRANCH  23  24
HETATM   24  C   UNL     1      38.900 -14.354   0.217  1.00  0.00     0.043 C 
BRANCH  24  25
HETATM   25  C   UNL     1      38.290 -13.441  -0.845  1.00  0.00     0.076 C 
BRANCH  25  26
HETATM   26  S   UNL     1      38.114 -14.166  -2.514  1.00  0.00    -0.173 SA
HETATM   27  C   UNL     1      39.807 -13.969  -3.129  1.00  0.00     0.089 C 
ENDBRANCH  25  26
ENDBRANCH  24  25
ENDBRANCH  23  24
BRANCH  23  28
HETATM   28  C   UNL     1      41.179 -15.204   0.825  1.00  0.00     0.128 A 
HETATM   29  N   UNL     1      42.490 -15.267   0.971  1.00  0.00    -0.231 NA
HETATM   30  C   UNL     1      42.771 -16.589   1.224  1.00  0.00     0.085 A 
HETATM   31  C   UNL     1      41.613 -17.359   1.194  1.00  0.00     0.062 A 
HETATM   32  C   UNL     1      43.998 -17.208   1.504  1.00  0.00     0.034 A 
HETATM   33  N   UNL     1      40.616 -16.455   0.938  1.00  0.00    -0.341 N 
HETATM   34  C   UNL     1      41.604 -18.738   1.411  1.00  0.00     0.032 A 
HETATM   35  H   UNL     1      39.623 -16.647   0.863  1.00  0.00     0.167 HD
HETATM   36  C   UNL     1      42.839 -19.340   1.687  1.00  0.00     0.002 A 
HETATM   37  C   UNL     1      44.016 -18.589   1.739  1.00  0.00     0.002 A 
ENDBRANCH  23  28
ENDBRANCH   1  23
TORSDOF 7
ENDMDL
MODEL 7
REMARK VINA RESULT:      -8.3      2.740      8.374
REMARK  7 active torsions:
REMARK  status: ('A' for Active; 'I' for Inactive)
REMARK    1  A    between atoms: S_2  and  C_3 
REMARK    2  A    between atoms: C_3  and  C_4 
REMARK    3  A    between atoms: C_4  and  C_5 
REMARK    4  A    between atoms: C_5  and  N_6 
REMARK    5  A    between atoms: C_5  and  C_26 
REMARK       I    between atoms: N_6  and  C_7 
REMARK    6  A    between atoms: C_7  and  C_8 
REMARK    7  A    between atoms: C_8  and  N_9 
ROOT
HETATM    1  N   UNL     1      41.294 -14.984   4.072  1.00  0.00    -0.348 N 
HETATM    2  C   UNL     1      40.194 -14.160   4.188  1.00  0.00     0.236 C 
HETATM    3  O   UNL     1      39.354 -14.329   5.075  1.00  0.00    -0.272 OA
HETATM    4  H   UNL     1      41.658 -15.143   3.136  1.00  0.00     0.163 HD
ENDROOT
BRANCH   2   5
HETATM    5  C   UNL     1      39.935 -13.176   3.049  1.00  0.00     0.239 C 
BRANCH   5   6
HETATM    6  N   UNL     1      39.956 -13.730   1.712  1.00  0.00    -0.259 N 
HETATM    7  C   UNL     1      38.843 -14.020   0.994  1.00  0.00     0.326 A 
HETATM    8  O   UNL     1      37.698 -14.034   1.415  1.00  0.00    -0.247 OA
HETATM    9  N   UNL     1      39.205 -14.310  -0.295  1.00  0.00    -0.320 N 
HETATM   10  C   UNL     1      40.635 -14.205  -0.512  1.00  0.00     0.144 A 
HETATM   11  H   UNL     1      38.516 -14.454  -1.020  1.00  0.00     0.165 HD
HETATM   12  C   UNL     1      40.938 -13.133  -1.552  1.00  0.00    -0.014 A 
HETATM   13  C   UNL     1      41.227 -15.577  -0.871  1.00  0.00     0.047 C 
HETATM   14  C   UNL     1      41.074 -13.821   0.924  1.00  0.00     0.261 A 
HETATM   15  C   UNL     1      41.346 -13.487  -2.857  1.00  0.00    -0.049 A 
HETATM   16  C   UNL     1      40.785 -11.765  -1.248  1.00  0.00     0.011 A 
HETATM   17  C   UNL     1      41.625 -12.482  -3.799  1.00  0.00     0.007 A 
HETATM   18  C   UNL     1      41.567 -14.923  -3.266  1.00  0.00     0.039 C 
HETATM   19  C   UNL     1      41.486 -11.136  -3.469  1.00  0.00     0.001 A 
HETATM   20  C   UNL     1      41.063 -10.777  -2.195  1.00  0.00     0.001 A 
HETATM   21  C   UNL     1      40.922 -15.932  -2.324  1.00  0.00     0.008 C 
HETATM   22  O   UNL     1      42.221 -13.599   1.289  1.00  0.00    -0.270 OA
ENDBRANCH   5   6
ENDBRANCH   2   5
BRANCH   1  23
HETATM   23  C   UNL     1      41.533 -16.035   5.061  1.00  0.00     0.155 C 
BRANCH  23  24
HETATM   24  C   UNL     1      42.251 -15.495   6.308  1.00  0.00     0.043 C 
BRANCH  24  25
HETATM   25  C   UNL     1      43.196 -14.324   6.044  1.00  0.00     0.076 C 
BRANCH  25  26
HETATM   26  S   UNL     1      44.843 -14.436   6.828  1.00  0.00    -0.173 SA
HETATM   27  C   UNL     1      44.705 -13.111   8.056  1.00  0.00     0.089 C 
ENDBRANCH  25  26
ENDBRANCH  24  25
ENDBRANCH  23  24
BRANCH  23  28
HETATM   28  C   UNL     1      42.330 -17.144   4.421  1.00  0.00     0.128 A 
HETATM   29  N   UNL     1      43.338 -17.822   4.938  1.00  0.00    -0.231 NA
HETATM   30  C   UNL     1      43.635 -18.801   4.020  1.00  0.00     0.085 A 
HETATM   31  C   UNL     1      42.819 -18.697   2.899  1.00  0.00     0.062 A 
HETATM   32  C   UNL     1      44.587 -19.829   4.082  1.00  0.00     0.034 A 
HETATM   33  N   UNL     1      41.999 -17.636   3.178  1.00  0.00    -0.341 N 
HETATM   34  C   UNL     1      42.907 -19.560   1.805  1.00  0.00     0.032 A 
HETATM   35  H   UNL     1      41.253 -17.271   2.596  1.00  0.00     0.167 HD
HETATM   36  C   UNL     1      43.864 -20.580   1.883  1.00  0.00     0.002 A 
HETATM   37  C   UNL     1      44.688 -20.717   3.003  1.00  0.00     0.002 A 
ENDBRANCH  23  28
ENDBRANCH   1  23
TORSDOF 7
ENDMDL
MODEL 8
REMARK VINA RESULT:      -8.3      2.616      3.323
REMARK  7 active torsions:
REMARK  status: ('A' for Active; 'I' for Inactive)
REMARK    1  A    between atoms: S_2  and  C_3 
REMARK    2  A    between atoms: C_3  and  C_4 
REMARK    3  A    between atoms: C_4  and  C_5 
REMARK    4  A    between atoms: C_5  and  N_6 
REMARK    5  A    between atoms: C_5  and  C_26 
REMARK       I    between atoms: N_6  and  C_7 
REMARK    6  A    between atoms: C_7  and  C_8 
REMARK    7  A    between atoms: C_8  and  N_9 
ROOT
HETATM    1  N   UNL     1      41.702 -13.197  -0.036  1.00  0.00    -0.348 N 
HETATM    2  C   UNL     1      41.357 -14.037   1.002  1.00  0.00     0.236 C 
HETATM    3  O   UNL     1      41.027 -15.209   0.799  1.00  0.00    -0.272 OA
HETATM    4  H   UNL     1      41.488 -12.208   0.077  1.00  0.00     0.163 HD
ENDROOT
BRANCH   2   5
HETATM    5  C   UNL     1      41.181 -13.408   2.382  1.00  0.00     0.239 C 
BRANCH   5   6
HETATM    6  N   UNL     1      41.623 -14.204   3.506  1.00  0.00    -0.259 N 
HETATM    7  C   UNL     1      40.785 -14.827   4.371  1.00  0.00     0.326 A 
HETATM    8  O   UNL     1      39.578 -14.667   4.445  1.00  0.00    -0.247 OA
HETATM    9  N   UNL     1      41.511 -15.668   5.172  1.00  0.00    -0.320 N 
HETATM   10  C   UNL     1      42.926 -15.661   4.854  1.00  0.00     0.144 A 
HETATM   11  H   UNL     1      41.064 -16.304   5.818  1.00  0.00     0.165 HD
HETATM   12  C   UNL     1      43.379 -17.046   4.408  1.00  0.00    -0.014 A 
HETATM   13  C   UNL     1      43.740 -15.111   6.035  1.00  0.00     0.047 C 
HETATM   14  C   UNL     1      42.915 -14.613   3.711  1.00  0.00     0.261 A 
HETATM   15  C   UNL     1      44.161 -17.859   5.258  1.00  0.00    -0.049 A 
HETATM   16  C   UNL     1      43.000 -17.564   3.153  1.00  0.00     0.011 A 
HETATM   17  C   UNL     1      44.572 -19.131   4.826  1.00  0.00     0.007 A 
HETATM   18  C   UNL     1      44.641 -17.379   6.607  1.00  0.00     0.039 C 
HETATM   19  C   UNL     1      44.201 -19.613   3.573  1.00  0.00     0.001 A 
HETATM   20  C   UNL     1      43.412 -18.832   2.738  1.00  0.00     0.001 A 
HETATM   21  C   UNL     1      43.881 -16.166   7.129  1.00  0.00     0.008 C 
HETATM   22  O   UNL     1      43.889 -14.238   3.072  1.00  0.00    -0.270 OA
ENDBRANCH   5   6
ENDBRANCH   2   5
BRANCH   1  23
HETATM   23  C   UNL     1      41.764 -13.706  -1.406  1.00  0.00     0.155 C 
BRANCH  23  24
HETATM   24  C   UNL     1      42.767 -12.919  -2.264  1.00  0.00     0.043 C 
BRANCH  24  25
HETATM   25  C   UNL     1      43.043 -11.496  -1.780  1.00  0.00     0.076 C 
BRANCH  25  26
HETATM   26  S   UNL     1      42.608 -10.158  -2.946  1.00  0.00    -0.173 SA
HETATM   27  C   UNL     1      42.344  -8.793  -1.784  1.00  0.00     0.089 C 
ENDBRANCH  25  26
ENDBRANCH  24  25
ENDBRANCH  23  24
BRANCH  23  28
HETATM   28  C   UNL     1      40.384 -13.660  -2.013  1.00  0.00     0.128 A 
HETATM   29  N   UNL     1      39.716 -12.600  -2.429  1.00  0.00    -0.231 NA
HETATM   30  C   UNL     1      38.573 -13.089  -3.015  1.00  0.00     0.085 A 
HETATM   31  C   UNL     1      38.519 -14.475  -2.921  1.00  0.00     0.062 A 
HETATM   32  C   UNL     1      37.534 -12.406  -3.663  1.00  0.00     0.034 A 
HETATM   33  N   UNL     1      39.681 -14.813  -2.280  1.00  0.00    -0.341 N 
HETATM   34  C   UNL     1      37.464 -15.238  -3.427  1.00  0.00     0.032 A 
HETATM   35  H   UNL     1      40.002 -15.748  -2.050  1.00  0.00     0.167 HD
HETATM   36  C   UNL     1      36.434 -14.538  -4.069  1.00  0.00     0.002 A 
HETATM   37  C   UNL     1      36.469 -13.147  -4.191  1.00  0.00     0.002 A 
ENDBRANCH  23  28
ENDBRANCH   1  23
TORSDOF 7
ENDMDL
MODEL 9
REMARK VINA RESULT:      -8.2      2.576      3.149
REMARK  7 active torsions:
REMARK  status: ('A' for Active; 'I' for Inactive)
REMARK    1  A    between atoms: S_2  and  C_3 
REMARK    2  A    between atoms: C_3  and  C_4 
REMARK    3  A    between atoms: C_4  and  C_5 
REMARK    4  A    between atoms: C_5  and  N_6 
REMARK    5  A    between atoms: C_5  and  C_26 
REMARK       I    between atoms: N_6  and  C_7 
REMARK    6  A    between atoms: C_7  and  C_8 
REMARK    7  A    between atoms: C_8  and  N_9 
ROOT
HETATM    1  N   UNL     1      42.042 -13.819   1.389  1.00  0.00    -0.348 N 
HETATM    2  C   UNL     1      41.434 -14.601   0.430  1.00  0.00     0.236 C 
HETATM    3  O   UNL     1      40.453 -14.200  -0.202  1.00  0.00    -0.272 OA
HETATM    4  H   UNL     1      42.469 -14.300   2.177  1.00  0.00     0.163 HD
ENDROOT
BRANCH   2   5
HETATM    5  C   UNL     1      41.874 -16.061   0.337  1.00  0.00     0.239 C 
BRANCH   5   6
HETATM    6  N   UNL     1      42.190 -16.712   1.590  1.00  0.00    -0.259 N 
HETATM    7  C   UNL     1      41.259 -17.169   2.464  1.00  0.00     0.326 A 
HETATM    8  O   UNL     1      40.061 -16.946   2.421  1.00  0.00    -0.247 OA
HETATM    9  N   UNL     1      41.879 -17.922   3.425  1.00  0.00    -0.320 N 
HETATM   10  C   UNL     1      43.311 -18.024   3.220  1.00  0.00     0.144 A 
HETATM   11  H   UNL     1      41.353 -18.441   4.115  1.00  0.00     0.165 HD
HETATM   12  C   UNL     1      43.716 -19.478   3.003  1.00  0.00    -0.014 A 
HETATM   13  C   UNL     1      44.069 -17.353   4.375  1.00  0.00     0.047 C 
HETATM   14  C   UNL     1      43.440 -17.147   1.949  1.00  0.00     0.261 A 
HETATM   15  C   UNL     1      44.389 -20.199   4.015  1.00  0.00    -0.049 A 
HETATM   16  C   UNL     1      43.398 -20.148   1.805  1.00  0.00     0.011 A 
HETATM   17  C   UNL     1      44.757 -21.537   3.792  1.00  0.00     0.007 A 
HETATM   18  C   UNL     1      44.799 -19.558   5.319  1.00  0.00     0.039 C 
HETATM   19  C   UNL     1      44.450 -22.171   2.592  1.00  0.00     0.001 A 
HETATM   20  C   UNL     1      43.767 -21.479   1.599  1.00  0.00     0.001 A 
HETATM   21  C   UNL     1      44.073 -18.250   5.610  1.00  0.00     0.008 C 
HETATM   22  O   UNL     1      44.476 -16.910   1.342  1.00  0.00    -0.270 OA
ENDBRANCH   5   6
ENDBRANCH   2   5
BRANCH   1  23
HETATM   23  C   UNL     1      41.583 -12.449   1.620  1.00  0.00     0.155 C 
BRANCH  23  24
HETATM   24  C   UNL     1      40.146 -12.412   2.166  1.00  0.00     0.043 C 
BRANCH  24  25
HETATM   25  C   UNL     1      39.930 -13.210   3.450  1.00  0.00     0.076 C 
BRANCH  25  26
HETATM   26  S   UNL     1      39.374 -12.250   4.902  1.00  0.00    -0.173 SA
HETATM   27  C   UNL     1      38.556 -10.861   4.074  1.00  0.00     0.089 C 
ENDBRANCH  25  26
ENDBRANCH  24  25
ENDBRANCH  23  24
BRANCH  23  28
HETATM   28  C   UNL     1      41.690 -11.669   0.335  1.00  0.00     0.128 A 
HETATM   29  N   UNL     1      42.785 -11.350  -0.332  1.00  0.00    -0.231 NA
HETATM   30  C   UNL     1      42.351 -10.756  -1.493  1.00  0.00     0.085 A 
HETATM   31  C   UNL     1      40.963 -10.673  -1.522  1.00  0.00     0.062 A 
HETATM   32  C   UNL     1      43.089 -10.271  -2.582  1.00  0.00     0.034 A 
HETATM   33  N   UNL     1      40.568 -11.259  -0.349  1.00  0.00    -0.341 N 
HETATM   34  C   UNL     1      40.251 -10.108  -2.582  1.00  0.00     0.032 A 
HETATM   35  H   UNL     1      39.616 -11.400  -0.027  1.00  0.00     0.167 HD
HETATM   36  C   UNL     1      41.004  -9.627  -3.660  1.00  0.00     0.002 A 
HETATM   37  C   UNL     1      42.399  -9.710  -3.666  1.00  0.00     0.002 A 
ENDBRANCH  23  28
ENDBRANCH   1  23
TORSDOF 7
ENDMDL
MODEL 10
REMARK VINA RESULT:      -8.1      3.293      6.220
REMARK  7 active torsions:
REMARK  status: ('A' for Active; 'I' for Inactive)
REMARK    1  A    between atoms: S_2  and  C_3 
REMARK    2  A    between atoms: C_3  and  C_4 
REMARK    3  A    between atoms: C_4  and  C_5 
REMARK    4  A    between atoms: C_5  and  N_6 
REMARK    5  A    between atoms: C_5  and  C_26 
REMARK       I    between atoms: N_6  and  C_7 
REMARK    6  A    between atoms: C_7  and  C_8 
REMARK    7  A    between atoms: C_8  and  N_9 
ROOT
HETATM    1  N   UNL     1      41.039 -14.575   1.775  1.00  0.00    -0.348 N 
HETATM    2  C   UNL     1      40.015 -15.483   1.608  1.00  0.00     0.236 C 
HETATM    3  O   UNL     1      38.849 -15.115   1.441  1.00  0.00    -0.272 OA
HETATM    4  H   UNL     1      41.818 -14.859   2.365  1.00  0.00     0.163 HD
ENDROOT
BRANCH   2   5
HETATM    5  C   UNL     1      40.337 -16.955   1.859  1.00  0.00     0.239 C 
BRANCH   5   6
HETATM    6  N   UNL     1      41.542 -17.223   2.614  1.00  0.00    -0.259 N 
HETATM    7  C   UNL     1      42.792 -17.166   2.092  1.00  0.00     0.326 A 
HETATM    8  O   UNL     1      43.075 -17.068   0.909  1.00  0.00    -0.247 OA
HETATM    9  N   UNL     1      43.706 -17.250   3.109  1.00  0.00    -0.320 N 
HETATM   10  C   UNL     1      43.084 -17.351   4.414  1.00  0.00     0.144 A 
HETATM   11  H   UNL     1      44.696 -17.124   2.945  1.00  0.00     0.165 HD
HETATM   12  C   UNL     1      43.471 -16.160   5.283  1.00  0.00    -0.014 A 
HETATM   13  C   UNL     1      43.414 -18.704   5.064  1.00  0.00     0.047 C 
HETATM   14  C   UNL     1      41.596 -17.345   3.978  1.00  0.00     0.261 A 
HETATM   15  C   UNL     1      44.390 -16.309   6.346  1.00  0.00    -0.049 A 
HETATM   16  C   UNL     1      42.949 -14.875   5.027  1.00  0.00     0.011 A 
HETATM   17  C   UNL     1      44.729 -15.198   7.137  1.00  0.00     0.007 A 
HETATM   18  C   UNL     1      44.977 -17.650   6.716  1.00  0.00     0.039 C 
HETATM   19  C   UNL     1      44.186 -13.943   6.876  1.00  0.00     0.001 A 
HETATM   20  C   UNL     1      43.299 -13.781   5.819  1.00  0.00     0.001 A 
HETATM   21  C   UNL     1      44.834 -18.701   5.622  1.00  0.00     0.008 C 
HETATM   22  O   UNL     1      40.629 -17.402   4.726  1.00  0.00    -0.270 OA
ENDBRANCH   5   6
ENDBRANCH   2   5
BRANCH   1  23
HETATM   23  C   UNL     1      40.774 -13.140   1.675  1.00  0.00     0.155 C 
BRANCH  23  24
HETATM   24  C   UNL     1      41.904 -12.400   0.941  1.00  0.00     0.043 C 
BRANCH  24  25
HETATM   25  C   UNL     1      41.544 -11.916  -0.463  1.00  0.00     0.076 C 
BRANCH  25  26
HETATM   26  S   UNL     1      42.280 -12.857  -1.845  1.00  0.00    -0.173 SA
HETATM   27  C   UNL     1      41.195 -14.309  -1.858  1.00  0.00     0.089 C 
ENDBRANCH  25  26
ENDBRANCH  24  25
ENDBRANCH  23  24
BRANCH  23  28
HETATM   28  C   UNL     1      40.574 -12.577   3.059  1.00  0.00     0.128 A 
HETATM   29  N   UNL     1      39.796 -13.042   4.019  1.00  0.00    -0.231 NA
HETATM   30  C   UNL     1      40.060 -12.262   5.120  1.00  0.00     0.085 A 
HETATM   31  C   UNL     1      40.990 -11.273   4.818  1.00  0.00     0.062 A 
HETATM   32  C   UNL     1      39.549 -12.347   6.423  1.00  0.00     0.034 A 
HETATM   33  N   UNL     1      41.300 -11.495   3.503  1.00  0.00    -0.341 N 
HETATM   34  C   UNL     1      41.438 -10.333   5.748  1.00  0.00     0.032 A 
HETATM   35  H   UNL     1      41.965 -10.978   2.937  1.00  0.00     0.167 HD
HETATM   36  C   UNL     1      40.916 -10.432   7.045  1.00  0.00     0.002 A 
HETATM   37  C   UNL     1      39.991 -11.425   7.380  1.00  0.00     0.002 A 
ENDBRANCH  23  28
ENDBRANCH   1  23
TORSDOF 7
ENDMDL
