MODEL 1
REMARK VINA RESULT:     -10.6      0.000      0.000
REMARK  5 active torsions:
REMARK  status: ('A' for Active; 'I' for Inactive)
REMARK    1  A    between atoms: C_4  and  C_5 
REMARK    2  A    between atoms: C_17  and  C_18 
REMARK    3  A    between atoms: C_18  and  N_19 
REMARK       I    between atoms: N_19  and  C_20 
REMARK    4  A    between atoms: C_20  and  C_21 
REMARK    5  A    between atoms: C_21  and  C_22 
ROOT
HETATM    1  C   UNL     1      41.749 -14.894   0.242  1.00  0.00     0.048 C 
HETATM    2  C   UNL     1      42.242 -15.158   1.635  1.00  0.00    -0.060 A 
HETATM    3  C   UNL     1      42.689 -16.443   2.007  1.00  0.00     0.024 A 
HETATM    4  C   UNL     1      43.183 -16.719   3.298  1.00  0.00     0.034 A 
HETATM    5  C   UNL     1      43.232 -15.651   4.185  1.00  0.00     0.088 A 
HETATM    6  C   UNL     1      42.798 -14.380   3.829  1.00  0.00    -0.021 A 
HETATM    7  C   UNL     1      43.037 -13.428   4.936  1.00  0.00     0.075 C 
HETATM    8  C   UNL     1      43.418 -14.409   6.054  1.00  0.00     0.151 C 
HETATM    9  O   UNL     1      43.753 -15.691   5.456  1.00  0.00    -0.342 OA
HETATM   10  C   UNL     1      42.302 -14.113   2.563  1.00  0.00     0.017 A 
ENDROOT
BRANCH   8  11
HETATM   11  C   UNL     1      44.622 -13.927   6.873  1.00  0.00     0.155 C 
BRANCH  11  12
HETATM   12  N   UNL     1      44.286 -13.487   8.216  1.00  0.00    -0.359 N 
HETATM   13  C   UNL     1      45.032 -12.537   8.880  1.00  0.00     0.219 C 
HETATM   14  O   UNL     1      46.029 -12.014   8.397  1.00  0.00    -0.274 OA
HETATM   15  H   UNL     1      43.429 -13.829   8.634  1.00  0.00     0.162 HD
BRANCH  13  16
HETATM   16  C   UNL     1      44.496 -12.231  10.261  1.00  0.00     0.128 C 
BRANCH  16  17
HETATM   17  C   UNL     1      44.054 -10.772  10.437  1.00  0.00     0.094 C 
HETATM   18  N   UNL     1      42.757 -10.578   9.793  1.00  0.00    -0.362 N 
HETATM   19  C   UNL     1      41.564 -10.746  10.415  1.00  0.00     0.168 C 
HETATM   20  H   UNL     1      42.718 -10.478   8.784  1.00  0.00     0.162 HD
HETATM   21  S   UNL     1      40.144 -10.764   9.558  1.00  0.00    -0.041 SA
HETATM   22  N   UNL     1      41.572 -10.871  11.764  1.00  0.00    -0.363 N 
HETATM   23  C   UNL     1      42.771 -10.980  12.579  1.00  0.00     0.081 C 
HETATM   24  H   UNL     1      40.671 -11.057  12.188  1.00  0.00     0.162 HD
HETATM   25  C   UNL     1      42.530 -10.388  13.964  1.00  0.00     0.032 C 
HETATM   26  C   UNL     1      43.954 -10.301  11.892  1.00  0.00     0.050 C 
ENDBRANCH  16  17
ENDBRANCH  13  16
ENDBRANCH  11  12
ENDBRANCH   8  11
BRANCH   4  27
HETATM   27  C   UNL     1      43.630 -18.086   3.605  1.00  0.00     0.112 A 
HETATM   28  S   UNL     1      43.898 -18.606   5.225  1.00  0.00    -0.067 SA
HETATM   29  C   UNL     1      44.266 -20.191   4.671  1.00  0.00     0.035 A 
HETATM   30  C   UNL     1      44.142 -20.224   3.282  1.00  0.00     0.075 A 
HETATM   31  C   UNL     1      44.632 -21.328   5.411  1.00  0.00     0.021 A 
HETATM   32  N   UNL     1      43.768 -19.030   2.692  1.00  0.00    -0.239 NA
HETATM   33  C   UNL     1      44.394 -21.436   2.607  1.00  0.00     0.033 A 
HETATM   34  C   UNL     1      44.759 -22.574   3.333  1.00  0.00     0.002 A 
HETATM   35  C   UNL     1      44.876 -22.518   4.718  1.00  0.00     0.002 A 
ENDBRANCH   4  27
TORSDOF 5
ENDMDL
MODEL 2
REMARK VINA RESULT:     -10.2      3.394      6.227
REMARK  5 active torsions:
REMARK  status: ('A' for Active; 'I' for Inactive)
REMARK    1  A    between atoms: C_4  and  C_5 
REMARK    2  A    between atoms: C_17  and  C_18 
REMARK    3  A    between atoms: C_18  and  N_19 
REMARK       I    between atoms: N_19  and  C_20 
REMARK    4  A    between atoms: C_20  and  C_21 
REMARK    5  A    between atoms: C_21  and  C_22 
ROOT
HETATM    1  C   UNL     1      43.972 -21.925   1.732  1.00  0.00     0.048 C 
HETATM    2  C   UNL     1      43.883 -20.612   2.455  1.00  0.00    -0.060 A 
HETATM    3  C   UNL     1      43.076 -19.570   1.952  1.00  0.00     0.024 A 
HETATM    4  C   UNL     1      42.948 -18.334   2.620  1.00  0.00     0.034 A 
HETATM    5  C   UNL     1      43.641 -18.201   3.817  1.00  0.00     0.088 A 
HETATM    6  C   UNL     1      44.435 -19.223   4.323  1.00  0.00    -0.021 A 
HETATM    7  C   UNL     1      44.985 -18.838   5.641  1.00  0.00     0.075 C 
HETATM    8  C   UNL     1      44.601 -17.353   5.668  1.00  0.00     0.151 C 
HETATM    9  O   UNL     1      43.584 -17.115   4.657  1.00  0.00    -0.342 OA
HETATM   10  C   UNL     1      44.568 -20.432   3.660  1.00  0.00     0.017 A 
ENDROOT
BRANCH   8  11
HETATM   11  C   UNL     1      44.042 -16.915   7.028  1.00  0.00     0.155 C 
BRANCH  11  12
HETATM   12  N   UNL     1      43.305 -15.663   6.990  1.00  0.00    -0.359 N 
HETATM   13  C   UNL     1      43.927 -14.459   6.744  1.00  0.00     0.219 C 
HETATM   14  O   UNL     1      45.134 -14.356   6.560  1.00  0.00    -0.274 OA
HETATM   15  H   UNL     1      42.295 -15.696   7.059  1.00  0.00     0.162 HD
BRANCH  13  16
HETATM   16  C   UNL     1      42.966 -13.290   6.747  1.00  0.00     0.128 C 
BRANCH  16  17
HETATM   17  C   UNL     1      41.630 -13.594   6.055  1.00  0.00     0.094 C 
HETATM   18  N   UNL     1      40.685 -12.515   6.333  1.00  0.00    -0.362 N 
HETATM   19  C   UNL     1      40.541 -11.411   5.559  1.00  0.00     0.168 C 
HETATM   20  H   UNL     1      40.222 -12.485   7.235  1.00  0.00     0.162 HD
HETATM   21  S   UNL     1      39.642 -10.114   6.072  1.00  0.00    -0.041 SA
HETATM   22  N   UNL     1      41.134 -11.417   4.341  1.00  0.00    -0.363 N 
HETATM   23  C   UNL     1      42.028 -12.456   3.859  1.00  0.00     0.081 C 
HETATM   24  H   UNL     1      41.057 -10.552   3.817  1.00  0.00     0.162 HD
HETATM   25  C   UNL     1      41.934 -12.580   2.342  1.00  0.00     0.032 C 
HETATM   26  C   UNL     1      41.721 -13.789   4.538  1.00  0.00     0.050 C 
ENDBRANCH  16  17
ENDBRANCH  13  16
ENDBRANCH  11  12
ENDBRANCH   8  11
BRANCH   4  27
HETATM   27  C   UNL     1      42.087 -17.299   2.029  1.00  0.00     0.112 A 
HETATM   28  S   UNL     1      42.438 -16.601   0.494  1.00  0.00    -0.067 SA
HETATM   29  C   UNL     1      40.998 -15.665   0.574  1.00  0.00     0.035 A 
HETATM   30  C   UNL     1      40.333 -15.962   1.763  1.00  0.00     0.075 A 
HETATM   31  C   UNL     1      40.488 -14.738  -0.351  1.00  0.00     0.021 A 
HETATM   32  N   UNL     1      40.952 -16.899   2.571  1.00  0.00    -0.239 NA
HETATM   33  C   UNL     1      39.113 -15.310   2.039  1.00  0.00     0.033 A 
HETATM   34  C   UNL     1      38.596 -14.385   1.126  1.00  0.00     0.002 A 
HETATM   35  C   UNL     1      39.277 -14.105  -0.054  1.00  0.00     0.002 A 
ENDBRANCH   4  27
TORSDOF 5
ENDMDL
MODEL 3
REMARK VINA RESULT:      -9.9      4.519      8.859
REMARK  5 active torsions:
REMARK  status: ('A' for Active; 'I' for Inactive)
REMARK    1  A    between atoms: C_4  and  C_5 
REMARK    2  A    between atoms: C_17  and  C_18 
REMARK    3  A    between atoms: C_18  and  N_19 
REMARK       I    between atoms: N_19  and  C_20 
REMARK    4  A    between atoms: C_20  and  C_21 
REMARK    5  A    between atoms: C_21  and  C_22 
ROOT
HETATM    1  C   UNL     1      44.720 -13.940   7.734  1.00  0.00     0.048 C 
HETATM    2  C   UNL     1      44.021 -14.610   6.587  1.00  0.00    -0.060 A 
HETATM    3  C   UNL     1      44.268 -15.966   6.289  1.00  0.00     0.024 A 
HETATM    4  C   UNL     1      43.609 -16.634   5.236  1.00  0.00     0.034 A 
HETATM    5  C   UNL     1      42.680 -15.891   4.517  1.00  0.00     0.088 A 
HETATM    6  C   UNL     1      42.425 -14.556   4.805  1.00  0.00    -0.021 A 
HETATM    7  C   UNL     1      41.340 -14.044   3.939  1.00  0.00     0.075 C 
HETATM    8  C   UNL     1      41.217 -15.210   2.948  1.00  0.00     0.151 C 
HETATM    9  O   UNL     1      41.876 -16.375   3.513  1.00  0.00    -0.342 OA
HETATM   10  C   UNL     1      43.081 -13.900   5.833  1.00  0.00     0.017 A 
ENDROOT
BRANCH   8  11
HETATM   11  C   UNL     1      39.757 -15.576   2.650  1.00  0.00     0.155 C 
BRANCH  11  12
HETATM   12  N   UNL     1      39.307 -15.183   1.325  1.00  0.00    -0.359 N 
HETATM   13  C   UNL     1      38.671 -13.982   1.098  1.00  0.00     0.219 C 
HETATM   14  O   UNL     1      38.426 -13.177   1.989  1.00  0.00    -0.274 OA
HETATM   15  H   UNL     1      39.550 -15.774   0.540  1.00  0.00     0.162 HD
BRANCH  13  16
HETATM   16  C   UNL     1      38.296 -13.782  -0.354  1.00  0.00     0.128 C 
BRANCH  16  17
HETATM   17  C   UNL     1      39.508 -13.627  -1.283  1.00  0.00     0.094 C 
HETATM   18  N   UNL     1      39.563 -14.764  -2.199  1.00  0.00    -0.362 N 
HETATM   19  C   UNL     1      38.960 -14.795  -3.413  1.00  0.00     0.168 C 
HETATM   20  H   UNL     1      39.923 -15.651  -1.863  1.00  0.00     0.162 HD
HETATM   21  S   UNL     1      38.847 -16.204  -4.281  1.00  0.00    -0.041 SA
HETATM   22  N   UNL     1      38.477 -13.627  -3.904  1.00  0.00    -0.363 N 
HETATM   23  C   UNL     1      38.431 -12.375  -3.168  1.00  0.00     0.081 C 
HETATM   24  H   UNL     1      37.979 -13.700  -4.783  1.00  0.00     0.162 HD
HETATM   25  C   UNL     1      38.549 -11.191  -4.122  1.00  0.00     0.032 C 
HETATM   26  C   UNL     1      39.527 -12.334  -2.105  1.00  0.00     0.050 C 
ENDBRANCH  16  17
ENDBRANCH  13  16
ENDBRANCH  11  12
ENDBRANCH   8  11
BRANCH   4  27
HETATM   27  C   UNL     1      43.925 -18.048   4.991  1.00  0.00     0.112 A 
HETATM   28  S   UNL     1      44.155 -19.160   6.286  1.00  0.00    -0.067 SA
HETATM   29  C   UNL     1      44.364 -20.446   5.165  1.00  0.00     0.035 A 
HETATM   30  C   UNL     1      44.225 -19.944   3.872  1.00  0.00     0.075 A 
HETATM   31  C   UNL     1      44.626 -21.805   5.411  1.00  0.00     0.021 A 
HETATM   32  N   UNL     1      43.963 -18.588   3.787  1.00  0.00    -0.239 NA
HETATM   33  C   UNL     1      44.353 -20.831   2.783  1.00  0.00     0.033 A 
HETATM   34  C   UNL     1      44.613 -22.185   3.015  1.00  0.00     0.002 A 
HETATM   35  C   UNL     1      44.747 -22.664   4.314  1.00  0.00     0.002 A 
ENDBRANCH   4  27
TORSDOF 5
ENDMDL
MODEL 4
REMARK VINA RESULT:      -9.8      3.943      6.273
REMARK  5 active torsions:
REMARK  status: ('A' for Active; 'I' for Inactive)
REMARK    1  A    between atoms: C_4  and  C_5 
REMARK    2  A    between atoms: C_17  and  C_18 
REMARK    3  A    between atoms: C_18  and  N_19 
REMARK       I    between atoms: N_19  and  C_20 
REMARK    4  A    between atoms: C_20  and  C_21 
REMARK    5  A    between atoms: C_21  and  C_22 
ROOT
HETATM    1  C   UNL     1      44.076 -21.787   1.738  1.00  0.00     0.048 C 
HETATM    2  C   UNL     1      43.844 -20.452   2.385  1.00  0.00    -0.060 A 
HETATM    3  C   UNL     1      43.072 -19.465   1.738  1.00  0.00     0.024 A 
HETATM    4  C   UNL     1      42.812 -18.211   2.328  1.00  0.00     0.034 A 
HETATM    5  C   UNL     1      43.337 -18.003   3.598  1.00  0.00     0.088 A 
HETATM    6  C   UNL     1      44.095 -18.970   4.247  1.00  0.00    -0.021 A 
HETATM    7  C   UNL     1      44.453 -18.511   5.606  1.00  0.00     0.075 C 
HETATM    8  C   UNL     1      44.014 -17.043   5.518  1.00  0.00     0.151 C 
HETATM    9  O   UNL     1      43.130 -16.889   4.375  1.00  0.00    -0.342 OA
HETATM   10  C   UNL     1      44.358 -20.197   3.660  1.00  0.00     0.017 A 
ENDROOT
BRANCH   8  11
HETATM   11  C   UNL     1      43.266 -16.577   6.774  1.00  0.00     0.155 C 
BRANCH  11  12
HETATM   12  N   UNL     1      42.327 -15.493   6.536  1.00  0.00    -0.359 N 
HETATM   13  C   UNL     1      40.998 -15.728   6.262  1.00  0.00     0.219 C 
HETATM   14  O   UNL     1      40.521 -16.854   6.184  1.00  0.00    -0.274 OA
HETATM   15  H   UNL     1      42.649 -14.542   6.663  1.00  0.00     0.162 HD
BRANCH  13  16
HETATM   16  C   UNL     1      40.208 -14.455   6.053  1.00  0.00     0.128 C 
BRANCH  16  17
HETATM   17  C   UNL     1      41.021 -13.331   5.396  1.00  0.00     0.094 C 
HETATM   18  N   UNL     1      40.338 -12.885   4.184  1.00  0.00    -0.362 N 
HETATM   19  C   UNL     1      39.417 -11.889   4.151  1.00  0.00     0.168 C 
HETATM   20  H   UNL     1      40.413 -13.444   3.342  1.00  0.00     0.162 HD
HETATM   21  S   UNL     1      38.498 -11.615   2.797  1.00  0.00    -0.041 SA
HETATM   22  N   UNL     1      39.294 -11.111   5.253  1.00  0.00    -0.363 N 
HETATM   23  C   UNL     1      39.973 -11.349   6.515  1.00  0.00     0.081 C 
HETATM   24  H   UNL     1      38.555 -10.419   5.215  1.00  0.00     0.162 HD
HETATM   25  C   UNL     1      40.230 -10.032   7.240  1.00  0.00     0.032 C 
HETATM   26  C   UNL     1      41.276 -12.114   6.291  1.00  0.00     0.050 C 
ENDBRANCH  16  17
ENDBRANCH  13  16
ENDBRANCH  11  12
ENDBRANCH   8  11
BRANCH   4  27
HETATM   27  C   UNL     1      41.997 -17.238   1.586  1.00  0.00     0.112 A 
HETATM   28  S   UNL     1      40.732 -16.352   2.348  1.00  0.00    -0.067 SA
HETATM   29  C   UNL     1      40.437 -15.491   0.890  1.00  0.00     0.035 A 
HETATM   30  C   UNL     1      41.338 -15.924  -0.080  1.00  0.00     0.075 A 
HETATM   31  C   UNL     1      39.480 -14.497   0.624  1.00  0.00     0.021 A 
HETATM   32  N   UNL     1      42.226 -16.903   0.330  1.00  0.00    -0.239 NA
HETATM   33  C   UNL     1      41.283 -15.345  -1.365  1.00  0.00     0.033 A 
HETATM   34  C   UNL     1      40.335 -14.355  -1.642  1.00  0.00     0.002 A 
HETATM   35  C   UNL     1      39.446 -13.937  -0.657  1.00  0.00     0.002 A 
ENDBRANCH   4  27
TORSDOF 5
ENDMDL
MODEL 5
REMARK VINA RESULT:      -9.7      4.452      8.107
REMARK  5 active torsions:
REMARK  status: ('A' for Active; 'I' for Inactive)
REMARK    1  A    between atoms: C_4  and  C_5 
REMARK    2  A    between atoms: C_17  and  C_18 
REMARK    3  A    between atoms: C_18  and  N_19 
REMARK       I    between atoms: N_19  and  C_20 
REMARK    4  A    between atoms: C_20  and  C_21 
REMARK    5  A    between atoms: C_21  and  C_22 
ROOT
HETATM    1  C   UNL     1      44.785 -13.724   7.561  1.00  0.00     0.048 C 
HETATM    2  C   UNL     1      44.011 -14.383   6.457  1.00  0.00    -0.060 A 
HETATM    3  C   UNL     1      44.262 -15.726   6.107  1.00  0.00     0.024 A 
HETATM    4  C   UNL     1      43.536 -16.384   5.094  1.00  0.00     0.034 A 
HETATM    5  C   UNL     1      42.537 -15.647   4.468  1.00  0.00     0.088 A 
HETATM    6  C   UNL     1      42.279 -14.325   4.808  1.00  0.00    -0.021 A 
HETATM    7  C   UNL     1      41.119 -13.818   4.042  1.00  0.00     0.075 C 
HETATM    8  C   UNL     1      40.942 -14.963   3.035  1.00  0.00     0.151 C 
HETATM    9  O   UNL     1      41.667 -16.126   3.519  1.00  0.00    -0.342 OA
HETATM   10  C   UNL     1      43.001 -13.677   5.796  1.00  0.00     0.017 A 
ENDROOT
BRANCH   8  11
HETATM   11  C   UNL     1      39.471 -15.355   2.844  1.00  0.00     0.155 C 
BRANCH  11  12
HETATM   12  N   UNL     1      38.981 -15.172   1.488  1.00  0.00    -0.359 N 
HETATM   13  C   UNL     1      38.420 -13.986   1.071  1.00  0.00     0.219 C 
HETATM   14  O   UNL     1      38.279 -13.017   1.808  1.00  0.00    -0.274 OA
HETATM   15  H   UNL     1      39.141 -15.912   0.815  1.00  0.00     0.162 HD
BRANCH  13  16
HETATM   16  C   UNL     1      37.985 -14.020  -0.378  1.00  0.00     0.128 C 
BRANCH  16  17
HETATM   17  C   UNL     1      38.805 -13.093  -1.286  1.00  0.00     0.094 C 
HETATM   18  N   UNL     1      39.829 -12.420  -0.491  1.00  0.00    -0.362 N 
HETATM   19  C   UNL     1      41.079 -12.905  -0.290  1.00  0.00     0.168 C 
HETATM   20  H   UNL     1      39.563 -11.632   0.090  1.00  0.00     0.162 HD
HETATM   21  S   UNL     1      42.096 -12.222   0.829  1.00  0.00    -0.041 SA
HETATM   22  N   UNL     1      41.477 -13.950  -1.055  1.00  0.00    -0.363 N 
HETATM   23  C   UNL     1      40.618 -14.679  -1.974  1.00  0.00     0.081 C 
HETATM   24  H   UNL     1      42.392 -14.326  -0.835  1.00  0.00     0.162 HD
HETATM   25  C   UNL     1      41.431 -15.231  -3.140  1.00  0.00     0.032 C 
HETATM   26  C   UNL     1      39.482 -13.788  -2.472  1.00  0.00     0.050 C 
ENDBRANCH  16  17
ENDBRANCH  13  16
ENDBRANCH  11  12
ENDBRANCH   8  11
BRANCH   4  27
HETATM   27  C   UNL     1      43.860 -17.786   4.790  1.00  0.00     0.112 A 
HETATM   28  S   UNL     1      44.228 -18.918   6.036  1.00  0.00    -0.067 SA
HETATM   29  C   UNL     1      44.366 -20.175   4.872  1.00  0.00     0.035 A 
HETATM   30  C   UNL     1      44.104 -19.651   3.608  1.00  0.00     0.075 A 
HETATM   31  C   UNL     1      44.678 -21.532   5.064  1.00  0.00     0.021 A 
HETATM   32  N   UNL     1      43.805 -18.300   3.576  1.00  0.00    -0.239 NA
HETATM   33  C   UNL     1      44.155 -20.512   2.492  1.00  0.00     0.033 A 
HETATM   34  C   UNL     1      44.465 -21.864   2.670  1.00  0.00     0.002 A 
HETATM   35  C   UNL     1      44.722 -22.366   3.942  1.00  0.00     0.002 A 
ENDBRANCH   4  27
TORSDOF 5
ENDMDL
MODEL 6
REMARK VINA RESULT:      -9.2      6.296      9.741
REMARK  5 active torsions:
REMARK  status: ('A' for Active; 'I' for Inactive)
REMARK    1  A    between atoms: C_4  and  C_5 
REMARK    2  A    between atoms: C_17  and  C_18 
REMARK    3  A    between atoms: C_18  and  N_19 
REMARK       I    between atoms: N_19  and  C_20 
REMARK    4  A    between atoms: C_20  and  C_21 
REMARK    5  A    between atoms: C_21  and  C_22 
ROOT
HETATM    1  C   UNL     1      38.153 -10.856   3.509  1.00  0.00     0.048 C 
HETATM    2  C   UNL     1      39.400 -11.031   2.691  1.00  0.00    -0.060 A 
HETATM    3  C   UNL     1      40.095 -12.259   2.697  1.00  0.00     0.024 A 
HETATM    4  C   UNL     1      41.253 -12.467   1.921  1.00  0.00     0.034 A 
HETATM    5  C   UNL     1      41.665 -11.405   1.125  1.00  0.00     0.088 A 
HETATM    6  C   UNL     1      40.986 -10.193   1.108  1.00  0.00    -0.021 A 
HETATM    7  C   UNL     1      41.596  -9.278   0.119  1.00  0.00     0.075 C 
HETATM    8  C   UNL     1      42.874 -10.060  -0.215  1.00  0.00     0.151 C 
HETATM    9  O   UNL     1      42.715 -11.431   0.239  1.00  0.00    -0.342 OA
HETATM   10  C   UNL     1      39.855  -9.987   1.880  1.00  0.00     0.017 A 
ENDROOT
BRANCH   8  11
HETATM   11  C   UNL     1      43.174 -10.079  -1.720  1.00  0.00     0.155 C 
BRANCH  11  12
HETATM   12  N   UNL     1      42.907 -11.357  -2.359  1.00  0.00    -0.359 N 
HETATM   13  C   UNL     1      41.682 -11.650  -2.917  1.00  0.00     0.219 C 
HETATM   14  O   UNL     1      40.736 -10.872  -2.898  1.00  0.00    -0.274 OA
HETATM   15  H   UNL     1      43.674 -12.008  -2.471  1.00  0.00     0.162 HD
BRANCH  13  16
HETATM   16  C   UNL     1      41.632 -13.033  -3.530  1.00  0.00     0.128 C 
BRANCH  16  17
HETATM   17  C   UNL     1      41.422 -14.152  -2.500  1.00  0.00     0.094 C 
HETATM   18  N   UNL     1      40.479 -13.700  -1.480  1.00  0.00    -0.362 N 
HETATM   19  C   UNL     1      39.135 -13.867  -1.556  1.00  0.00     0.168 C 
HETATM   20  H   UNL     1      40.805 -13.076  -0.750  1.00  0.00     0.162 HD
HETATM   21  S   UNL     1      38.113 -13.103  -0.497  1.00  0.00    -0.041 SA
HETATM   22  N   UNL     1      38.660 -14.703  -2.512  1.00  0.00    -0.363 N 
HETATM   23  C   UNL     1      39.469 -15.321  -3.549  1.00  0.00     0.081 C 
HETATM   24  H   UNL     1      37.651 -14.755  -2.579  1.00  0.00     0.162 HD
HETATM   25  C   UNL     1      38.879 -16.668  -3.955  1.00  0.00     0.032 C 
HETATM   26  C   UNL     1      40.916 -15.475  -3.084  1.00  0.00     0.050 C 
ENDBRANCH  16  17
ENDBRANCH  13  16
ENDBRANCH  11  12
ENDBRANCH   8  11
BRANCH   4  27
HETATM   27  C   UNL     1      41.919 -13.776   1.984  1.00  0.00     0.112 A 
HETATM   28  S   UNL     1      42.790 -14.280   3.381  1.00  0.00    -0.067 SA
HETATM   29  C   UNL     1      43.104 -15.806   2.654  1.00  0.00     0.035 A 
HETATM   30  C   UNL     1      42.505 -15.837   1.396  1.00  0.00     0.075 A 
HETATM   31  C   UNL     1      43.823 -16.901   3.163  1.00  0.00     0.021 A 
HETATM   32  N   UNL     1      41.825 -14.688   1.034  1.00  0.00    -0.239 NA
HETATM   33  C   UNL     1      42.629 -17.005   0.615  1.00  0.00     0.033 A 
HETATM   34  C   UNL     1      43.342 -18.101   1.110  1.00  0.00     0.002 A 
HETATM   35  C   UNL     1      43.931 -18.047   2.369  1.00  0.00     0.002 A 
ENDBRANCH   4  27
TORSDOF 5
ENDMDL
MODEL 7
REMARK VINA RESULT:      -9.1      2.962      3.943
REMARK  5 active torsions:
REMARK  status: ('A' for Active; 'I' for Inactive)
REMARK    1  A    between atoms: C_4  and  C_5 
REMARK    2  A    between atoms: C_17  and  C_18 
REMARK    3  A    between atoms: C_18  and  N_19 
REMARK       I    between atoms: N_19  and  C_20 
REMARK    4  A    between atoms: C_20  and  C_21 
REMARK    5  A    between atoms: C_21  and  C_22 
ROOT
HETATM    1  C   UNL     1      37.656 -12.855   0.118  1.00  0.00     0.048 C 
HETATM    2  C   UNL     1      38.413 -12.978   1.408  1.00  0.00    -0.060 A 
HETATM    3  C   UNL     1      39.299 -14.055   1.620  1.00  0.00     0.024 A 
HETATM    4  C   UNL     1      40.047 -14.187   2.808  1.00  0.00     0.034 A 
HETATM    5  C   UNL     1      39.886 -13.183   3.756  1.00  0.00     0.088 A 
HETATM    6  C   UNL     1      39.021 -12.115   3.555  1.00  0.00    -0.021 A 
HETATM    7  C   UNL     1      39.110 -11.165   4.685  1.00  0.00     0.075 C 
HETATM    8  C   UNL     1      39.950 -11.995   5.667  1.00  0.00     0.151 C 
HETATM    9  O   UNL     1      40.581 -13.082   4.937  1.00  0.00    -0.342 OA
HETATM   10  C   UNL     1      38.279 -11.994   2.392  1.00  0.00     0.017 A 
ENDROOT
BRANCH   8  11
HETATM   11  C   UNL     1      41.048 -11.167   6.346  1.00  0.00     0.155 C 
BRANCH  11  12
HETATM   12  N   UNL     1      40.717 -10.740   7.696  1.00  0.00    -0.359 N 
HETATM   13  C   UNL     1      41.677 -10.277   8.569  1.00  0.00     0.219 C 
HETATM   14  O   UNL     1      42.866 -10.208   8.280  1.00  0.00    -0.274 OA
HETATM   15  H   UNL     1      39.742 -10.703   7.963  1.00  0.00     0.162 HD
BRANCH  13  16
HETATM   16  C   UNL     1      41.106  -9.885   9.914  1.00  0.00     0.128 C 
BRANCH  16  17
HETATM   17  C   UNL     1      41.304 -10.953  10.998  1.00  0.00     0.094 C 
HETATM   18  N   UNL     1      42.542 -11.684  10.736  1.00  0.00    -0.362 N 
HETATM   19  C   UNL     1      43.756 -11.328  11.226  1.00  0.00     0.168 C 
HETATM   20  H   UNL     1      42.549 -12.399  10.017  1.00  0.00     0.162 HD
HETATM   21  S   UNL     1      45.147 -12.047  10.679  1.00  0.00    -0.041 SA
HETATM   22  N   UNL     1      43.788 -10.384  12.198  1.00  0.00    -0.363 N 
HETATM   23  C   UNL     1      42.636  -9.625  12.654  1.00  0.00     0.081 C 
HETATM   24  H   UNL     1      44.714 -10.100  12.495  1.00  0.00     0.162 HD
HETATM   25  C   UNL     1      42.796  -9.241  14.121  1.00  0.00     0.032 C 
HETATM   26  C   UNL     1      41.347 -10.414  12.432  1.00  0.00     0.050 C 
ENDBRANCH  16  17
ENDBRANCH  13  16
ENDBRANCH  11  12
ENDBRANCH   8  11
BRANCH   4  27
HETATM   27  C   UNL     1      40.947 -15.341   2.951  1.00  0.00     0.112 A 
HETATM   28  S   UNL     1      42.109 -15.734   1.741  1.00  0.00    -0.067 SA
HETATM   29  C   UNL     1      42.698 -17.028   2.708  1.00  0.00     0.035 A 
HETATM   30  C   UNL     1      41.980 -17.063   3.902  1.00  0.00     0.075 A 
HETATM   31  C   UNL     1      43.728 -17.943   2.434  1.00  0.00     0.021 A 
HETATM   32  N   UNL     1      41.000 -16.094   4.033  1.00  0.00    -0.239 NA
HETATM   33  C   UNL     1      42.300 -18.048   4.858  1.00  0.00     0.033 A 
HETATM   34  C   UNL     1      43.323 -18.966   4.596  1.00  0.00     0.002 A 
HETATM   35  C   UNL     1      44.027 -18.911   3.398  1.00  0.00     0.002 A 
ENDBRANCH   4  27
TORSDOF 5
ENDMDL
MODEL 8
REMARK VINA RESULT:      -9.0      2.693      3.449
REMARK  5 active torsions:
REMARK  status: ('A' for Active; 'I' for Inactive)
REMARK    1  A    between atoms: C_4  and  C_5 
REMARK    2  A    between atoms: C_17  and  C_18 
REMARK    3  A    between atoms: C_18  and  N_19 
REMARK       I    between atoms: N_19  and  C_20 
REMARK    4  A    between atoms: C_20  and  C_21 
REMARK    5  A    between atoms: C_21  and  C_22 
ROOT
HETATM    1  C   UNL     1      37.820 -13.615  -0.075  1.00  0.00     0.048 C 
HETATM    2  C   UNL     1      38.647 -13.719   1.173  1.00  0.00    -0.060 A 
HETATM    3  C   UNL     1      39.518 -14.812   1.368  1.00  0.00     0.024 A 
HETATM    4  C   UNL     1      40.329 -14.928   2.516  1.00  0.00     0.034 A 
HETATM    5  C   UNL     1      40.246 -13.894   3.440  1.00  0.00     0.088 A 
HETATM    6  C   UNL     1      39.395 -12.811   3.257  1.00  0.00    -0.021 A 
HETATM    7  C   UNL     1      39.570 -11.831   4.351  1.00  0.00     0.075 C 
HETATM    8  C   UNL     1      40.445 -12.653   5.308  1.00  0.00     0.151 C 
HETATM    9  O   UNL     1      41.008 -13.776   4.577  1.00  0.00    -0.342 OA
HETATM   10  C   UNL     1      38.591 -12.704   2.134  1.00  0.00     0.017 A 
ENDROOT
BRANCH   8  11
HETATM   11  C   UNL     1      41.598 -11.833   5.900  1.00  0.00     0.155 C 
BRANCH  11  12
HETATM   12  N   UNL     1      41.579 -11.746   7.351  1.00  0.00    -0.359 N 
HETATM   13  C   UNL     1      41.822 -10.562   8.012  1.00  0.00     0.219 C 
HETATM   14  O   UNL     1      42.086  -9.515   7.434  1.00  0.00    -0.274 OA
HETATM   15  H   UNL     1      41.291 -12.561   7.878  1.00  0.00     0.162 HD
BRANCH  13  16
HETATM   16  C   UNL     1      41.745 -10.705   9.517  1.00  0.00     0.128 C 
BRANCH  16  17
HETATM   17  C   UNL     1      41.752  -9.362  10.261  1.00  0.00     0.094 C 
HETATM   18  N   UNL     1      40.380  -8.991  10.600  1.00  0.00    -0.362 N 
HETATM   19  C   UNL     1      39.760  -9.336  11.756  1.00  0.00     0.168 C 
HETATM   20  H   UNL     1      39.783  -8.600   9.879  1.00  0.00     0.162 HD
HETATM   21  S   UNL     1      38.130  -9.105  11.958  1.00  0.00    -0.041 SA
HETATM   22  N   UNL     1      40.526  -9.851  12.748  1.00  0.00    -0.363 N 
HETATM   23  C   UNL     1      41.932 -10.192  12.618  1.00  0.00     0.081 C 
HETATM   24  H   UNL     1      40.020 -10.155  13.572  1.00  0.00     0.162 HD
HETATM   25  C   UNL     1      42.646 -10.033  13.957  1.00  0.00     0.032 C 
HETATM   26  C   UNL     1      42.596  -9.339  11.539  1.00  0.00     0.050 C 
ENDBRANCH  16  17
ENDBRANCH  13  16
ENDBRANCH  11  12
ENDBRANCH   8  11
BRANCH   4  27
HETATM   27  C   UNL     1      41.209 -16.098   2.642  1.00  0.00     0.112 A 
HETATM   28  S   UNL     1      41.863 -16.890   1.259  1.00  0.00    -0.067 SA
HETATM   29  C   UNL     1      42.743 -17.964   2.272  1.00  0.00     0.035 A 
HETATM   30  C   UNL     1      42.494 -17.635   3.603  1.00  0.00     0.075 A 
HETATM   31  C   UNL     1      43.600 -19.020   1.915  1.00  0.00     0.021 A 
HETATM   32  N   UNL     1      41.635 -16.568   3.799  1.00  0.00    -0.239 NA
HETATM   33  C   UNL     1      43.123 -18.387   4.617  1.00  0.00     0.033 A 
HETATM   34  C   UNL     1      43.977 -19.440   4.274  1.00  0.00     0.002 A 
HETATM   35  C   UNL     1      44.211 -19.750   2.939  1.00  0.00     0.002 A 
ENDBRANCH   4  27
TORSDOF 5
ENDMDL
MODEL 9
REMARK VINA RESULT:      -9.0      4.892      7.534
REMARK  5 active torsions:
REMARK  status: ('A' for Active; 'I' for Inactive)
REMARK    1  A    between atoms: C_4  and  C_5 
REMARK    2  A    between atoms: C_17  and  C_18 
REMARK    3  A    between atoms: C_18  and  N_19 
REMARK       I    between atoms: N_19  and  C_20 
REMARK    4  A    between atoms: C_20  and  C_21 
REMARK    5  A    between atoms: C_21  and  C_22 
ROOT
HETATM    1  C   UNL     1      44.092 -20.605   2.114  1.00  0.00     0.048 C 
HETATM    2  C   UNL     1      43.460 -19.321   2.568  1.00  0.00    -0.060 A 
HETATM    3  C   UNL     1      43.007 -18.372   1.628  1.00  0.00     0.024 A 
HETATM    4  C   UNL     1      42.385 -17.169   2.018  1.00  0.00     0.034 A 
HETATM    5  C   UNL     1      42.215 -16.974   3.384  1.00  0.00     0.088 A 
HETATM    6  C   UNL     1      42.653 -17.904   4.319  1.00  0.00    -0.021 A 
HETATM    7  C   UNL     1      42.273 -17.476   5.683  1.00  0.00     0.075 C 
HETATM    8  C   UNL     1      41.800 -16.045   5.392  1.00  0.00     0.151 C 
HETATM    9  O   UNL     1      41.563 -15.913   3.964  1.00  0.00    -0.342 OA
HETATM   10  C   UNL     1      43.274 -19.080   3.933  1.00  0.00     0.017 A 
ENDROOT
BRANCH   8  11
HETATM   11  C   UNL     1      40.503 -15.693   6.132  1.00  0.00     0.155 C 
BRANCH  11  12
HETATM   12  N   UNL     1      39.705 -14.672   5.475  1.00  0.00    -0.359 N 
HETATM   13  C   UNL     1      39.998 -13.331   5.591  1.00  0.00     0.219 C 
HETATM   14  O   UNL     1      40.931 -12.907   6.262  1.00  0.00    -0.274 OA
HETATM   15  H   UNL     1      38.968 -14.968   4.846  1.00  0.00     0.162 HD
BRANCH  13  16
HETATM   16  C   UNL     1      39.038 -12.452   4.820  1.00  0.00     0.128 C 
BRANCH  16  17
HETATM   17  C   UNL     1      39.631 -11.888   3.521  1.00  0.00     0.094 C 
HETATM   18  N   UNL     1      39.297 -12.778   2.412  1.00  0.00    -0.362 N 
HETATM   19  C   UNL     1      38.180 -12.662   1.650  1.00  0.00     0.168 C 
HETATM   20  H   UNL     1      39.825 -13.636   2.292  1.00  0.00     0.162 HD
HETATM   21  S   UNL     1      37.740 -13.855   0.585  1.00  0.00    -0.041 SA
HETATM   22  N   UNL     1      37.454 -11.525   1.772  1.00  0.00    -0.363 N 
HETATM   23  C   UNL     1      37.702 -10.485   2.756  1.00  0.00     0.081 C 
HETATM   24  H   UNL     1      36.595 -11.500   1.235  1.00  0.00     0.162 HD
HETATM   25  C   UNL     1      37.272  -9.125   2.215  1.00  0.00     0.032 C 
HETATM   26  C   UNL     1      39.172 -10.470   3.167  1.00  0.00     0.050 C 
ENDBRANCH  16  17
ENDBRANCH  13  16
ENDBRANCH  11  12
ENDBRANCH   8  11
BRANCH   4  27
HETATM   27  C   UNL     1      41.942 -16.232   0.975  1.00  0.00     0.112 A 
HETATM   28  S   UNL     1      42.099 -14.528   1.166  1.00  0.00    -0.067 SA
HETATM   29  C   UNL     1      41.475 -14.278  -0.416  1.00  0.00     0.035 A 
HETATM   30  C   UNL     1      41.205 -15.517  -0.995  1.00  0.00     0.075 A 
HETATM   31  C   UNL     1      41.247 -13.073  -1.101  1.00  0.00     0.021 A 
HETATM   32  N   UNL     1      41.486 -16.616  -0.203  1.00  0.00    -0.239 NA
HETATM   33  C   UNL     1      40.687 -15.555  -2.306  1.00  0.00     0.033 A 
HETATM   34  C   UNL     1      40.455 -14.361  -2.997  1.00  0.00     0.002 A 
HETATM   35  C   UNL     1      40.733 -13.137  -2.400  1.00  0.00     0.002 A 
ENDBRANCH   4  27
TORSDOF 5
ENDMDL
MODEL 10
REMARK VINA RESULT:      -9.0      5.622      9.903
REMARK  5 active torsions:
REMARK  status: ('A' for Active; 'I' for Inactive)
REMARK    1  A    between atoms: C_4  and  C_5 
REMARK    2  A    between atoms: C_17  and  C_18 
REMARK    3  A    between atoms: C_18  and  N_19 
REMARK       I    between atoms: N_19  and  C_20 
REMARK    4  A    between atoms: C_20  and  C_21 
REMARK    5  A    between atoms: C_21  and  C_22 
ROOT
HETATM    1  C   UNL     1      39.998 -14.254   5.673  1.00  0.00     0.048 C 
HETATM    2  C   UNL     1      40.578 -14.750   4.380  1.00  0.00    -0.060 A 
HETATM    3  C   UNL     1      41.324 -15.947   4.341  1.00  0.00     0.024 A 
HETATM    4  C   UNL     1      41.859 -16.457   3.141  1.00  0.00     0.034 A 
HETATM    5  C   UNL     1      41.594 -15.730   1.986  1.00  0.00     0.088 A 
HETATM    6  C   UNL     1      40.857 -14.553   2.012  1.00  0.00    -0.021 A 
HETATM    7  C   UNL     1      40.665 -14.039   0.639  1.00  0.00     0.075 C 
HETATM    8  C   UNL     1      41.630 -14.955  -0.127  1.00  0.00     0.151 C 
HETATM    9  O   UNL     1      41.953 -16.097   0.711  1.00  0.00    -0.342 OA
HETATM   10  C   UNL     1      40.341 -14.048   3.194  1.00  0.00     0.017 A 
ENDROOT
BRANCH   8  11
HETATM   11  C   UNL     1      41.030 -15.473  -1.441  1.00  0.00     0.155 C 
BRANCH  11  12
HETATM   12  N   UNL     1      39.713 -14.938  -1.741  1.00  0.00    -0.359 N 
HETATM   13  C   UNL     1      39.356 -14.552  -3.014  1.00  0.00     0.219 C 
HETATM   14  O   UNL     1      40.120 -14.614  -3.970  1.00  0.00    -0.274 OA
HETATM   15  H   UNL     1      39.016 -14.936  -1.006  1.00  0.00     0.162 HD
BRANCH  13  16
HETATM   16  C   UNL     1      37.938 -14.030  -3.093  1.00  0.00     0.128 C 
BRANCH  16  17
HETATM   17  C   UNL     1      37.800 -12.563  -2.666  1.00  0.00     0.094 C 
HETATM   18  N   UNL     1      38.992 -11.825  -3.077  1.00  0.00    -0.362 N 
HETATM   19  C   UNL     1      39.126 -11.197  -4.272  1.00  0.00     0.168 C 
HETATM   20  H   UNL     1      39.841 -11.915  -2.528  1.00  0.00     0.162 HD
HETATM   21  S   UNL     1      40.594 -10.607  -4.771  1.00  0.00    -0.041 SA
HETATM   22  N   UNL     1      38.013 -11.046  -5.029  1.00  0.00    -0.363 N 
HETATM   23  C   UNL     1      36.717 -11.629  -4.724  1.00  0.00     0.081 C 
HETATM   24  H   UNL     1      38.162 -10.629  -5.940  1.00  0.00     0.162 HD
HETATM   25  C   UNL     1      35.595 -10.750  -5.266  1.00  0.00     0.032 C 
HETATM   26  C   UNL     1      36.564 -11.845  -3.220  1.00  0.00     0.050 C 
ENDBRANCH  16  17
ENDBRANCH  13  16
ENDBRANCH  11  12
ENDBRANCH   8  11
BRANCH   4  27
HETATM   27  C   UNL     1      42.625 -17.711   3.186  1.00  0.00     0.112 A 
HETATM   28  S   UNL     1      43.630 -18.107   4.528  1.00  0.00    -0.067 SA
HETATM   29  C   UNL     1      44.006 -19.626   3.817  1.00  0.00     0.035 A 
HETATM   30  C   UNL     1      43.323 -19.739   2.606  1.00  0.00     0.075 A 
HETATM   31  C   UNL     1      44.840 -20.650   4.297  1.00  0.00     0.021 A 
HETATM   32  N   UNL     1      42.534 -18.654   2.267  1.00  0.00    -0.239 NA
HETATM   33  C   UNL     1      43.479 -20.917   1.847  1.00  0.00     0.033 A 
HETATM   34  C   UNL     1      44.307 -21.942   2.314  1.00  0.00     0.002 A 
HETATM   35  C   UNL     1      44.977 -21.808   3.525  1.00  0.00     0.002 A 
ENDBRANCH   4  27
TORSDOF 5
ENDMDL
