MODEL 1
REMARK VINA RESULT:      -8.0      0.000      0.000
REMARK  9 active torsions:
REMARK  status: ('A' for Active; 'I' for Inactive)
REMARK    1  A    between atoms: C_2  and  O_3 
REMARK    2  A    between atoms: O_3  and  C_4 
REMARK    3  A    between atoms: C_4  and  C_5 
REMARK    4  A    between atoms: C_7  and  C_8 
REMARK       I    between atoms: C_8  and  N_9 
REMARK    5  A    between atoms: N_9  and  N_10 
REMARK    6  A    between atoms: N_10  and  C_11 
REMARK    7  A    between atoms: C_11  and  N_12 
REMARK    8  A    between atoms: N_12  and  C_13 
REMARK    9  A    between atoms: C_13  and  C_14 
ROOT
HETATM    1  C   UNL     1      39.344 -12.687   6.198  1.00  0.00     0.293 C 
HETATM    2  N   UNL     1      39.502 -12.930   7.557  1.00  0.00    -0.262 N 
HETATM    3  O   UNL     1      38.728 -11.693   5.809  1.00  0.00    -0.264 OA
HETATM    4  H   UNL     1      40.195 -13.589   7.899  1.00  0.00     0.190 HD
ENDROOT
BRANCH   1   5
HETATM    5  C   UNL     1      39.960 -13.669   5.328  1.00  0.00     0.145 A 
HETATM    6  O   UNL     1      40.886 -14.522   5.872  1.00  0.00    -0.307 OA
HETATM    7  C   UNL     1      41.337 -15.337   4.876  1.00  0.00     0.078 A 
HETATM    8  C   UNL     1      40.707 -15.027   3.692  1.00  0.00     0.038 A 
HETATM    9  C   UNL     1      39.822 -13.959   3.979  1.00  0.00     0.045 A 
BRANCH   7  10
HETATM   10  C   UNL     1      42.363 -16.346   5.248  1.00  0.00     0.240 C 
BRANCH  10  11
HETATM   11  O   UNL     1      43.289 -16.395   4.163  1.00  0.00    -0.345 OA
BRANCH  11  12
HETATM   12  C   UNL     1      43.479 -17.608   3.564  1.00  0.00     0.069 A 
HETATM   13  C   UNL     1      43.169 -17.929   2.241  1.00  0.00     0.038 A 
HETATM   14  C   UNL     1      43.435 -19.212   1.750  1.00  0.00     0.022 A 
HETATM   15  C   UNL     1      44.009 -20.172   2.581  1.00  0.00     0.011 A 
HETATM   16  C   UNL     1      44.321 -19.861   3.901  1.00  0.00     0.022 A 
HETATM   17 BR   UNL     1      44.366 -21.903   1.913  1.00  0.00    -0.051 Br
HETATM   18  C   UNL     1      44.058 -18.579   4.387  1.00  0.00     0.038 A 
ENDBRANCH  11  12
ENDBRANCH  10  11
ENDBRANCH   7  10
ENDBRANCH   1   5
BRANCH   2  19
HETATM   19  N   UNL     1      39.117 -11.915   8.461  1.00  0.00    -0.274 N 
HETATM   20  H   UNL     1      38.111 -11.745   8.457  1.00  0.00     0.189 HD
BRANCH  19  21
HETATM   21  C   UNL     1      39.943 -10.839   8.667  1.00  0.00     0.186 C 
HETATM   22  S   UNL     1      39.461  -9.237   8.610  1.00  0.00    -0.040 SA
BRANCH  21  23
HETATM   23  N   UNL     1      41.257 -11.112   8.884  1.00  0.00    -0.364 N 
HETATM   24  H   UNL     1      41.547 -12.050   8.620  1.00  0.00     0.162 HD
BRANCH  23  25
HETATM   25  C   UNL     1      42.260 -10.351   9.624  1.00  0.00     0.154 C 
BRANCH  25  26
HETATM   26  C   UNL     1      42.821 -11.140  10.819  1.00  0.00     0.139 C 
HETATM   27  O   UNL     1      41.796 -11.273  11.826  1.00  0.00    -0.384 OA
HETATM   28  C   UNL     1      42.343 -10.862  13.085  1.00  0.00     0.168 C 
HETATM   29  C   UNL     1      43.470  -9.911  12.760  1.00  0.00     0.029 C 
HETATM   30  C   UNL     1      44.032 -10.502  11.490  1.00  0.00     0.035 C 
ENDBRANCH  25  26
ENDBRANCH  23  25
ENDBRANCH  21  23
ENDBRANCH  19  21
ENDBRANCH   2  19
TORSDOF 9
ENDMDL
MODEL 2
REMARK VINA RESULT:      -8.0      3.826      4.637
REMARK  9 active torsions:
REMARK  status: ('A' for Active; 'I' for Inactive)
REMARK    1  A    between atoms: C_2  and  O_3 
REMARK    2  A    between atoms: O_3  and  C_4 
REMARK    3  A    between atoms: C_4  and  C_5 
REMARK    4  A    between atoms: C_7  and  C_8 
REMARK       I    between atoms: C_8  and  N_9 
REMARK    5  A    between atoms: N_9  and  N_10 
REMARK    6  A    between atoms: N_10  and  C_11 
REMARK    7  A    between atoms: C_11  and  N_12 
REMARK    8  A    between atoms: N_12  and  C_13 
REMARK    9  A    between atoms: C_13  and  C_14 
ROOT
HETATM    1  C   UNL     1      39.912 -14.689   3.032  1.00  0.00     0.293 C 
HETATM    2  N   UNL     1      40.084 -15.304   4.266  1.00  0.00    -0.262 N 
HETATM    3  O   UNL     1      39.154 -13.724   2.916  1.00  0.00    -0.264 OA
HETATM    4  H   UNL     1      40.865 -15.929   4.441  1.00  0.00     0.190 HD
ENDROOT
BRANCH   1   5
HETATM    5  C   UNL     1      40.687 -15.265   1.951  1.00  0.00     0.145 A 
HETATM    6  O   UNL     1      41.832 -15.949   2.271  1.00  0.00    -0.307 OA
HETATM    7  C   UNL     1      42.397 -16.382   1.109  1.00  0.00     0.078 A 
HETATM    8  C   UNL     1      41.626 -15.993   0.037  1.00  0.00     0.038 A 
HETATM    9  C   UNL     1      40.527 -15.278   0.574  1.00  0.00     0.045 A 
BRANCH   7  10
HETATM   10  C   UNL     1      43.665 -17.149   1.224  1.00  0.00     0.240 C 
BRANCH  10  11
HETATM   11  O   UNL     1      43.310 -18.528   1.122  1.00  0.00    -0.345 OA
BRANCH  11  12
HETATM   12  C   UNL     1      43.755 -19.358   2.112  1.00  0.00     0.069 A 
HETATM   13  C   UNL     1      44.141 -18.972   3.397  1.00  0.00     0.038 A 
HETATM   14  C   UNL     1      44.561 -19.934   4.323  1.00  0.00     0.022 A 
HETATM   15  C   UNL     1      44.596 -21.280   3.961  1.00  0.00     0.011 A 
HETATM   16  C   UNL     1      44.214 -21.673   2.682  1.00  0.00     0.022 A 
HETATM   17 BR   UNL     1      45.164 -22.575   5.214  1.00  0.00    -0.051 Br
HETATM   18  C   UNL     1      43.792 -20.711   1.763  1.00  0.00     0.038 A 
ENDBRANCH  11  12
ENDBRANCH  10  11
ENDBRANCH   7  10
ENDBRANCH   1   5
BRANCH   2  19
HETATM   19  N   UNL     1      39.531 -14.674   5.403  1.00  0.00    -0.274 N 
HETATM   20  H   UNL     1      38.511 -14.665   5.391  1.00  0.00     0.189 HD
BRANCH  19  21
HETATM   21  C   UNL     1      40.171 -13.597   5.962  1.00  0.00     0.186 C 
HETATM   22  S   UNL     1      39.482 -12.088   6.193  1.00  0.00    -0.040 SA
BRANCH  21  23
HETATM   23  N   UNL     1      41.475 -13.770   6.301  1.00  0.00    -0.364 N 
HETATM   24  H   UNL     1      41.628 -14.122   7.243  1.00  0.00     0.162 HD
BRANCH  23  25
HETATM   25  C   UNL     1      42.687 -13.335   5.610  1.00  0.00     0.154 C 
BRANCH  25  26
HETATM   26  C   UNL     1      43.736 -14.456   5.516  1.00  0.00     0.139 C 
HETATM   27  O   UNL     1      43.077 -15.698   5.189  1.00  0.00    -0.384 OA
HETATM   28  C   UNL     1      43.510 -16.698   6.120  1.00  0.00     0.168 C 
HETATM   29  C   UNL     1      43.934 -15.954   7.364  1.00  0.00     0.029 C 
HETATM   30  C   UNL     1      44.532 -14.691   6.795  1.00  0.00     0.035 C 
ENDBRANCH  25  26
ENDBRANCH  23  25
ENDBRANCH  21  23
ENDBRANCH  19  21
ENDBRANCH   2  19
TORSDOF 9
ENDMDL
MODEL 3
REMARK VINA RESULT:      -7.9      1.167      1.521
REMARK  9 active torsions:
REMARK  status: ('A' for Active; 'I' for Inactive)
REMARK    1  A    between atoms: C_2  and  O_3 
REMARK    2  A    between atoms: O_3  and  C_4 
REMARK    3  A    between atoms: C_4  and  C_5 
REMARK    4  A    between atoms: C_7  and  C_8 
REMARK       I    between atoms: C_8  and  N_9 
REMARK    5  A    between atoms: N_9  and  N_10 
REMARK    6  A    between atoms: N_10  and  C_11 
REMARK    7  A    between atoms: C_11  and  N_12 
REMARK    8  A    between atoms: N_12  and  C_13 
REMARK    9  A    between atoms: C_13  and  C_14 
ROOT
HETATM    1  C   UNL     1      39.799 -12.533   6.092  1.00  0.00     0.293 C 
HETATM    2  N   UNL     1      40.711 -12.003   6.996  1.00  0.00    -0.262 N 
HETATM    3  O   UNL     1      38.700 -12.000   5.927  1.00  0.00    -0.264 OA
HETATM    4  H   UNL     1      41.691 -12.270   6.976  1.00  0.00     0.190 HD
ENDROOT
BRANCH   1   5
HETATM    5  C   UNL     1      40.255 -13.717   5.388  1.00  0.00     0.145 A 
HETATM    6  O   UNL     1      41.158 -14.534   6.020  1.00  0.00    -0.307 OA
HETATM    7  C   UNL     1      41.452 -15.561   5.173  1.00  0.00     0.078 A 
HETATM    8  C   UNL     1      40.743 -15.423   4.001  1.00  0.00     0.038 A 
HETATM    9  C   UNL     1      39.973 -14.242   4.137  1.00  0.00     0.045 A 
BRANCH   7  10
HETATM   10  C   UNL     1      42.426 -16.573   5.659  1.00  0.00     0.240 C 
BRANCH  10  11
HETATM   11  O   UNL     1      43.471 -16.623   4.688  1.00  0.00    -0.345 OA
BRANCH  11  12
HETATM   12  C   UNL     1      43.579 -17.768   3.951  1.00  0.00     0.069 A 
HETATM   13  C   UNL     1      43.083 -17.966   2.661  1.00  0.00     0.038 A 
HETATM   14  C   UNL     1      43.282 -19.190   2.013  1.00  0.00     0.022 A 
HETATM   15  C   UNL     1      43.975 -20.214   2.655  1.00  0.00     0.011 A 
HETATM   16  C   UNL     1      44.473 -20.026   3.941  1.00  0.00     0.022 A 
HETATM   17 BR   UNL     1      44.242 -21.865   1.775  1.00  0.00    -0.051 Br
HETATM   18  C   UNL     1      44.276 -18.802   4.583  1.00  0.00     0.038 A 
ENDBRANCH  11  12
ENDBRANCH  10  11
ENDBRANCH   7  10
ENDBRANCH   1   5
BRANCH   2  19
HETATM   19  N   UNL     1      40.427 -10.740   7.560  1.00  0.00    -0.274 N 
HETATM   20  H   UNL     1      41.017  -9.999   7.182  1.00  0.00     0.189 HD
BRANCH  19  21
HETATM   21  C   UNL     1      40.060 -10.652   8.879  1.00  0.00     0.186 C 
HETATM   22  S   UNL     1      38.752  -9.777   9.452  1.00  0.00    -0.040 SA
BRANCH  21  23
HETATM   23  N   UNL     1      40.858 -11.284   9.778  1.00  0.00    -0.364 N 
HETATM   24  H   UNL     1      40.612 -12.254   9.958  1.00  0.00     0.162 HD
BRANCH  23  25
HETATM   25  C   UNL     1      41.872 -10.737  10.676  1.00  0.00     0.154 C 
BRANCH  25  26
HETATM   26  C   UNL     1      43.194 -10.442   9.948  1.00  0.00     0.139 C 
HETATM   27  O   UNL     1      43.335 -11.345   8.830  1.00  0.00    -0.384 OA
HETATM   28  C   UNL     1      44.632 -11.950   8.899  1.00  0.00     0.168 C 
HETATM   29  C   UNL     1      45.039 -11.902  10.352  1.00  0.00     0.029 C 
HETATM   30  C   UNL     1      44.442 -10.593  10.809  1.00  0.00     0.035 C 
ENDBRANCH  25  26
ENDBRANCH  23  25
ENDBRANCH  21  23
ENDBRANCH  19  21
ENDBRANCH   2  19
TORSDOF 9
ENDMDL
MODEL 4
REMARK VINA RESULT:      -7.9      3.381      4.130
REMARK  9 active torsions:
REMARK  status: ('A' for Active; 'I' for Inactive)
REMARK    1  A    between atoms: C_2  and  O_3 
REMARK    2  A    between atoms: O_3  and  C_4 
REMARK    3  A    between atoms: C_4  and  C_5 
REMARK    4  A    between atoms: C_7  and  C_8 
REMARK       I    between atoms: C_8  and  N_9 
REMARK    5  A    between atoms: N_9  and  N_10 
REMARK    6  A    between atoms: N_10  and  C_11 
REMARK    7  A    between atoms: C_11  and  N_12 
REMARK    8  A    between atoms: N_12  and  C_13 
REMARK    9  A    between atoms: C_13  and  C_14 
ROOT
HETATM    1  C   UNL     1      44.028 -14.779   6.928  1.00  0.00     0.293 C 
HETATM    2  N   UNL     1      44.132 -14.140   8.158  1.00  0.00    -0.262 N 
HETATM    3  O   UNL     1      43.962 -14.123   5.887  1.00  0.00    -0.264 OA
HETATM    4  H   UNL     1      44.426 -14.642   8.991  1.00  0.00     0.190 HD
ENDROOT
BRANCH   1   5
HETATM    5  C   UNL     1      44.017 -16.228   6.993  1.00  0.00     0.145 A 
HETATM    6  O   UNL     1      44.604 -16.924   5.967  1.00  0.00    -0.307 OA
HETATM    7  C   UNL     1      44.461 -18.254   6.231  1.00  0.00     0.078 A 
HETATM    8  C   UNL     1      43.794 -18.428   7.423  1.00  0.00     0.038 A 
HETATM    9  C   UNL     1      43.510 -17.131   7.915  1.00  0.00     0.045 A 
BRANCH   7  10
HETATM   10  C   UNL     1      45.025 -19.200   5.233  1.00  0.00     0.240 C 
BRANCH  10  11
HETATM   11  O   UNL     1      43.914 -19.733   4.514  1.00  0.00    -0.345 OA
BRANCH  11  12
HETATM   12  C   UNL     1      43.317 -18.913   3.598  1.00  0.00     0.069 A 
HETATM   13  C   UNL     1      42.135 -18.195   3.786  1.00  0.00     0.038 A 
HETATM   14  C   UNL     1      41.643 -17.374   2.765  1.00  0.00     0.022 A 
HETATM   15  C   UNL     1      42.332 -17.275   1.557  1.00  0.00     0.011 A 
HETATM   16  C   UNL     1      43.511 -17.988   1.361  1.00  0.00     0.022 A 
HETATM   17 BR   UNL     1      41.664 -16.165   0.181  1.00  0.00    -0.051 Br
HETATM   18  C   UNL     1      44.001 -18.802   2.384  1.00  0.00     0.038 A 
ENDBRANCH  11  12
ENDBRANCH  10  11
ENDBRANCH   7  10
ENDBRANCH   1   5
BRANCH   2  19
HETATM   19  N   UNL     1      44.360 -12.747   8.163  1.00  0.00    -0.274 N 
HETATM   20  H   UNL     1      44.929 -12.438   7.374  1.00  0.00     0.189 HD
BRANCH  19  21
HETATM   21  C   UNL     1      44.517 -12.089   9.357  1.00  0.00     0.186 C 
HETATM   22  S   UNL     1      45.793 -11.068   9.726  1.00  0.00    -0.040 SA
BRANCH  21  23
HETATM   23  N   UNL     1      43.586 -12.333  10.315  1.00  0.00    -0.364 N 
HETATM   24  H   UNL     1      42.627 -12.367   9.979  1.00  0.00     0.162 HD
BRANCH  23  25
HETATM   25  C   UNL     1      43.721 -12.343  11.770  1.00  0.00     0.154 C 
BRANCH  25  26
HETATM   26  C   UNL     1      42.795 -11.319  12.446  1.00  0.00     0.139 C 
HETATM   27  O   UNL     1      41.721 -10.978  11.543  1.00  0.00    -0.384 OA
HETATM   28  C   UNL     1      41.636  -9.551  11.461  1.00  0.00     0.168 C 
HETATM   29  C   UNL     1      43.010  -9.029  11.806  1.00  0.00     0.029 C 
HETATM   30  C   UNL     1      43.475 -10.016  12.849  1.00  0.00     0.035 C 
ENDBRANCH  25  26
ENDBRANCH  23  25
ENDBRANCH  21  23
ENDBRANCH  19  21
ENDBRANCH   2  19
TORSDOF 9
ENDMDL
MODEL 5
REMARK VINA RESULT:      -7.6      6.396      8.509
REMARK  9 active torsions:
REMARK  status: ('A' for Active; 'I' for Inactive)
REMARK    1  A    between atoms: C_2  and  O_3 
REMARK    2  A    between atoms: O_3  and  C_4 
REMARK    3  A    between atoms: C_4  and  C_5 
REMARK    4  A    between atoms: C_7  and  C_8 
REMARK       I    between atoms: C_8  and  N_9 
REMARK    5  A    between atoms: N_9  and  N_10 
REMARK    6  A    between atoms: N_10  and  C_11 
REMARK    7  A    between atoms: C_11  and  N_12 
REMARK    8  A    between atoms: N_12  and  C_13 
REMARK    9  A    between atoms: C_13  and  C_14 
ROOT
HETATM    1  C   UNL     1      39.258 -14.099   0.459  1.00  0.00     0.293 C 
HETATM    2  N   UNL     1      39.810 -14.701  -0.664  1.00  0.00    -0.262 N 
HETATM    3  O   UNL     1      38.247 -13.401   0.360  1.00  0.00    -0.264 OA
HETATM    4  H   UNL     1      40.481 -15.460  -0.581  1.00  0.00     0.190 HD
ENDROOT
BRANCH   1   5
HETATM    5  C   UNL     1      39.953 -14.373   1.702  1.00  0.00     0.145 A 
HETATM    6  O   UNL     1      41.281 -14.707   1.637  1.00  0.00    -0.307 OA
HETATM    7  C   UNL     1      41.716 -14.934   2.909  1.00  0.00     0.078 A 
HETATM    8  C   UNL     1      40.684 -14.743   3.801  1.00  0.00     0.038 A 
HETATM    9  C   UNL     1      39.552 -14.381   3.029  1.00  0.00     0.045 A 
BRANCH   7  10
HETATM   10  C   UNL     1      43.142 -15.320   3.073  1.00  0.00     0.240 C 
BRANCH  10  11
HETATM   11  O   UNL     1      43.158 -16.417   3.985  1.00  0.00    -0.345 OA
BRANCH  11  12
HETATM   12  C   UNL     1      43.392 -17.657   3.460  1.00  0.00     0.069 A 
HETATM   13  C   UNL     1      43.010 -18.098   2.192  1.00  0.00     0.038 A 
HETATM   14  C   UNL     1      43.332 -19.394   1.774  1.00  0.00     0.022 A 
HETATM   15  C   UNL     1      44.033 -20.247   2.624  1.00  0.00     0.011 A 
HETATM   16  C   UNL     1      44.417 -19.816   3.890  1.00  0.00     0.022 A 
HETATM   17 BR   UNL     1      44.465 -21.997   2.054  1.00  0.00    -0.051 Br
HETATM   18  C   UNL     1      44.098 -18.521   4.303  1.00  0.00     0.038 A 
ENDBRANCH  11  12
ENDBRANCH  10  11
ENDBRANCH   7  10
ENDBRANCH   1   5
BRANCH   2  19
HETATM   19  N   UNL     1      39.075 -14.657  -1.869  1.00  0.00    -0.274 N 
HETATM   20  H   UNL     1      38.087 -14.872  -1.736  1.00  0.00     0.189 HD
BRANCH  19  21
HETATM   21  C   UNL     1      39.663 -15.065  -3.040  1.00  0.00     0.186 C 
HETATM   22  S   UNL     1      38.965 -16.108  -4.149  1.00  0.00    -0.040 SA
BRANCH  21  23
HETATM   23  N   UNL     1      40.925 -14.620  -3.276  1.00  0.00    -0.364 N 
HETATM   24  H   UNL     1      41.661 -15.280  -3.040  1.00  0.00     0.162 HD
BRANCH  23  25
HETATM   25  C   UNL     1      41.396 -13.278  -3.612  1.00  0.00     0.154 C 
BRANCH  25  26
HETATM   26  C   UNL     1      42.491 -12.789  -2.649  1.00  0.00     0.139 C 
HETATM   27  O   UNL     1      42.160 -13.198  -1.304  1.00  0.00    -0.384 OA
HETATM   28  C   UNL     1      42.253 -12.052  -0.449  1.00  0.00     0.168 C 
HETATM   29  C   UNL     1      42.034 -10.850  -1.335  1.00  0.00     0.029 C 
HETATM   30  C   UNL     1      42.689 -11.278  -2.625  1.00  0.00     0.035 C 
ENDBRANCH  25  26
ENDBRANCH  23  25
ENDBRANCH  21  23
ENDBRANCH  19  21
ENDBRANCH   2  19
TORSDOF 9
ENDMDL
MODEL 6
REMARK VINA RESULT:      -7.2      2.827      3.336
REMARK  9 active torsions:
REMARK  status: ('A' for Active; 'I' for Inactive)
REMARK    1  A    between atoms: C_2  and  O_3 
REMARK    2  A    between atoms: O_3  and  C_4 
REMARK    3  A    between atoms: C_4  and  C_5 
REMARK    4  A    between atoms: C_7  and  C_8 
REMARK       I    between atoms: C_8  and  N_9 
REMARK    5  A    between atoms: N_9  and  N_10 
REMARK    6  A    between atoms: N_10  and  C_11 
REMARK    7  A    between atoms: C_11  and  N_12 
REMARK    8  A    between atoms: N_12  and  C_13 
REMARK    9  A    between atoms: C_13  and  C_14 
ROOT
HETATM    1  C   UNL     1      43.828 -13.882   6.692  1.00  0.00     0.293 C 
HETATM    2  N   UNL     1      43.994 -12.844   7.599  1.00  0.00    -0.262 N 
HETATM    3  O   UNL     1      44.338 -14.984   6.904  1.00  0.00    -0.264 OA
HETATM    4  H   UNL     1      43.400 -12.020   7.575  1.00  0.00     0.190 HD
ENDROOT
BRANCH   1   5
HETATM    5  C   UNL     1      43.021 -13.555   5.532  1.00  0.00     0.145 A 
HETATM    6  O   UNL     1      43.264 -14.234   4.366  1.00  0.00    -0.307 OA
HETATM    7  C   UNL     1      42.408 -13.754   3.419  1.00  0.00     0.078 A 
HETATM    8  C   UNL     1      41.605 -12.776   3.962  1.00  0.00     0.038 A 
HETATM    9  C   UNL     1      41.995 -12.648   5.318  1.00  0.00     0.045 A 
BRANCH   7  10
HETATM   10  C   UNL     1      42.505 -14.353   2.062  1.00  0.00     0.240 C 
BRANCH  10  11
HETATM   11  O   UNL     1      41.718 -15.543   2.091  1.00  0.00    -0.345 OA
BRANCH  11  12
HETATM   12  C   UNL     1      42.392 -16.731   2.128  1.00  0.00     0.069 A 
HETATM   13  C   UNL     1      43.240 -17.226   1.135  1.00  0.00     0.038 A 
HETATM   14  C   UNL     1      43.884 -18.456   1.311  1.00  0.00     0.022 A 
HETATM   15  C   UNL     1      43.678 -19.190   2.479  1.00  0.00     0.011 A 
HETATM   16  C   UNL     1      42.834 -18.704   3.473  1.00  0.00     0.022 A 
HETATM   17 BR   UNL     1      44.550 -20.850   2.712  1.00  0.00    -0.051 Br
HETATM   18  C   UNL     1      42.197 -17.474   3.296  1.00  0.00     0.038 A 
ENDBRANCH  11  12
ENDBRANCH  10  11
ENDBRANCH   7  10
ENDBRANCH   1   5
BRANCH   2  19
HETATM   19  N   UNL     1      44.584 -13.142   8.847  1.00  0.00    -0.274 N 
HETATM   20  H   UNL     1      44.524 -14.132   9.085  1.00  0.00     0.189 HD
BRANCH  19  21
HETATM   21  C   UNL     1      44.500 -12.235   9.873  1.00  0.00     0.186 C 
HETATM   22  S   UNL     1      45.539 -10.940  10.094  1.00  0.00    -0.040 SA
BRANCH  21  23
HETATM   23  N   UNL     1      43.526 -12.448  10.797  1.00  0.00    -0.364 N 
HETATM   24  H   UNL     1      42.624 -12.714  10.412  1.00  0.00     0.162 HD
BRANCH  23  25
HETATM   25  C   UNL     1      43.514 -12.151  12.227  1.00  0.00     0.154 C 
BRANCH  25  26
HETATM   26  C   UNL     1      42.410 -11.148  12.602  1.00  0.00     0.139 C 
HETATM   27  O   UNL     1      41.941 -10.487  11.407  1.00  0.00    -0.384 OA
HETATM   28  C   UNL     1      41.958  -9.073  11.637  1.00  0.00     0.168 C 
HETATM   29  C   UNL     1      42.996  -8.836  12.707  1.00  0.00     0.029 C 
HETATM   30  C   UNL     1      42.845 -10.060  13.577  1.00  0.00     0.035 C 
ENDBRANCH  25  26
ENDBRANCH  23  25
ENDBRANCH  21  23
ENDBRANCH  19  21
ENDBRANCH   2  19
TORSDOF 9
ENDMDL
MODEL 7
REMARK VINA RESULT:      -7.0      5.916      7.947
REMARK  9 active torsions:
REMARK  status: ('A' for Active; 'I' for Inactive)
REMARK    1  A    between atoms: C_2  and  O_3 
REMARK    2  A    between atoms: O_3  and  C_4 
REMARK    3  A    between atoms: C_4  and  C_5 
REMARK    4  A    between atoms: C_7  and  C_8 
REMARK       I    between atoms: C_8  and  N_9 
REMARK    5  A    between atoms: N_9  and  N_10 
REMARK    6  A    between atoms: N_10  and  C_11 
REMARK    7  A    between atoms: C_11  and  N_12 
REMARK    8  A    between atoms: N_12  and  C_13 
REMARK    9  A    between atoms: C_13  and  C_14 
ROOT
HETATM    1  C   UNL     1      44.046 -19.237   3.324  1.00  0.00     0.293 C 
HETATM    2  N   UNL     1      44.479 -18.616   4.489  1.00  0.00    -0.262 N 
HETATM    3  O   UNL     1      44.216 -20.446   3.161  1.00  0.00    -0.264 OA
HETATM    4  H   UNL     1      44.144 -17.694   4.752  1.00  0.00     0.190 HD
ENDROOT
BRANCH   1   5
HETATM    5  C   UNL     1      43.394 -18.359   2.372  1.00  0.00     0.145 A 
HETATM    6  O   UNL     1      42.098 -17.985   2.622  1.00  0.00    -0.307 OA
HETATM    7  C   UNL     1      41.691 -17.183   1.597  1.00  0.00     0.078 A 
HETATM    8  C   UNL     1      42.714 -17.026   0.688  1.00  0.00     0.038 A 
HETATM    9  C   UNL     1      43.807 -17.777   1.183  1.00  0.00     0.045 A 
BRANCH   7  10
HETATM   10  C   UNL     1      40.300 -16.664   1.663  1.00  0.00     0.240 C 
BRANCH  10  11
HETATM   11  O   UNL     1      40.305 -15.415   0.973  1.00  0.00    -0.345 OA
BRANCH  11  12
HETATM   12  C   UNL     1      40.540 -14.295   1.720  1.00  0.00     0.069 A 
HETATM   13  C   UNL     1      41.689 -13.503   1.674  1.00  0.00     0.038 A 
HETATM   14  C   UNL     1      41.790 -12.367   2.485  1.00  0.00     0.022 A 
HETATM   15  C   UNL     1      40.744 -12.026   3.341  1.00  0.00     0.011 A 
HETATM   16  C   UNL     1      39.596 -12.810   3.393  1.00  0.00     0.022 A 
HETATM   17 BR   UNL     1      40.885 -10.490   4.433  1.00  0.00    -0.051 Br
HETATM   18  C   UNL     1      39.496 -13.940   2.579  1.00  0.00     0.038 A 
ENDBRANCH  11  12
ENDBRANCH  10  11
ENDBRANCH   7  10
ENDBRANCH   1   5
BRANCH   2  19
HETATM   19  N   UNL     1      44.930 -19.434   5.548  1.00  0.00    -0.274 N 
HETATM   20  H   UNL     1      45.376 -20.291   5.221  1.00  0.00     0.189 HD
BRANCH  19  21
HETATM   21  C   UNL     1      44.207 -19.497   6.713  1.00  0.00     0.186 C 
HETATM   22  S   UNL     1      43.579 -20.902   7.375  1.00  0.00    -0.040 SA
BRANCH  21  23
HETATM   23  N   UNL     1      43.950 -18.318   7.336  1.00  0.00    -0.364 N 
HETATM   24  H   UNL     1      44.719 -17.952   7.892  1.00  0.00     0.162 HD
BRANCH  23  25
HETATM   25  C   UNL     1      42.685 -17.606   7.505  1.00  0.00     0.154 C 
BRANCH  25  26
HETATM   26  C   UNL     1      42.022 -17.273   6.157  1.00  0.00     0.139 C 
HETATM   27  O   UNL     1      42.865 -16.358   5.425  1.00  0.00    -0.384 OA
HETATM   28  C   UNL     1      42.062 -15.255   4.989  1.00  0.00     0.168 C 
HETATM   29  C   UNL     1      40.904 -15.174   5.954  1.00  0.00     0.029 C 
HETATM   30  C   UNL     1      40.646 -16.628   6.268  1.00  0.00     0.035 C 
ENDBRANCH  25  26
ENDBRANCH  23  25
ENDBRANCH  21  23
ENDBRANCH  19  21
ENDBRANCH   2  19
TORSDOF 9
ENDMDL
MODEL 8
REMARK VINA RESULT:      -6.9      3.705      6.339
REMARK  9 active torsions:
REMARK  status: ('A' for Active; 'I' for Inactive)
REMARK    1  A    between atoms: C_2  and  O_3 
REMARK    2  A    between atoms: O_3  and  C_4 
REMARK    3  A    between atoms: C_4  and  C_5 
REMARK    4  A    between atoms: C_7  and  C_8 
REMARK       I    between atoms: C_8  and  N_9 
REMARK    5  A    between atoms: N_9  and  N_10 
REMARK    6  A    between atoms: N_10  and  C_11 
REMARK    7  A    between atoms: C_11  and  N_12 
REMARK    8  A    between atoms: N_12  and  C_13 
REMARK    9  A    between atoms: C_13  and  C_14 
ROOT
HETATM    1  C   UNL     1      41.902 -12.630   5.635  1.00  0.00     0.293 C 
HETATM    2  N   UNL     1      42.136 -12.118   4.365  1.00  0.00    -0.262 N 
HETATM    3  O   UNL     1      40.867 -12.349   6.241  1.00  0.00    -0.264 OA
HETATM    4  H   UNL     1      42.847 -12.515   3.758  1.00  0.00     0.190 HD
ENDROOT
BRANCH   1   5
HETATM    5  C   UNL     1      42.948 -13.495   6.146  1.00  0.00     0.145 A 
HETATM    6  O   UNL     1      42.914 -14.821   5.798  1.00  0.00    -0.307 OA
HETATM    7  C   UNL     1      43.972 -15.437   6.399  1.00  0.00     0.078 A 
HETATM    8  C   UNL     1      44.698 -14.521   7.126  1.00  0.00     0.038 A 
HETATM    9  C   UNL     1      44.045 -13.274   6.964  1.00  0.00     0.045 A 
BRANCH   7  10
HETATM   10  C   UNL     1      44.124 -16.896   6.160  1.00  0.00     0.240 C 
BRANCH  10  11
HETATM   11  O   UNL     1      43.352 -17.194   4.997  1.00  0.00    -0.345 OA
BRANCH  11  12
HETATM   12  C   UNL     1      43.667 -18.338   4.320  1.00  0.00     0.069 A 
HETATM   13  C   UNL     1      44.507 -19.357   4.773  1.00  0.00     0.038 A 
HETATM   14  C   UNL     1      44.729 -20.488   3.980  1.00  0.00     0.022 A 
HETATM   15  C   UNL     1      44.113 -20.598   2.734  1.00  0.00     0.011 A 
HETATM   16  C   UNL     1      43.275 -19.587   2.274  1.00  0.00     0.022 A 
HETATM   17 BR   UNL     1      44.416 -22.128   1.667  1.00  0.00    -0.051 Br
HETATM   18  C   UNL     1      43.052 -18.462   3.070  1.00  0.00     0.038 A 
ENDBRANCH  11  12
ENDBRANCH  10  11
ENDBRANCH   7  10
ENDBRANCH   1   5
BRANCH   2  19
HETATM   19  N   UNL     1      41.078 -11.443   3.718  1.00  0.00    -0.274 N 
HETATM   20  H   UNL     1      40.266 -11.312   4.322  1.00  0.00     0.189 HD
BRANCH  19  21
HETATM   21  C   UNL     1      40.849 -11.661   2.383  1.00  0.00     0.186 C 
HETATM   22  S   UNL     1      40.810 -10.466   1.210  1.00  0.00    -0.040 SA
BRANCH  21  23
HETATM   23  N   UNL     1      40.585 -12.941   2.010  1.00  0.00    -0.364 N 
HETATM   24  H   UNL     1      40.643 -13.114   1.010  1.00  0.00     0.162 HD
BRANCH  23  25
HETATM   25  C   UNL     1      40.029 -14.046   2.788  1.00  0.00     0.154 C 
BRANCH  25  26
HETATM   26  C   UNL     1      40.896 -15.312   2.698  1.00  0.00     0.139 C 
HETATM   27  O   UNL     1      42.179 -14.973   2.129  1.00  0.00    -0.384 OA
HETATM   28  C   UNL     1      42.452 -15.883   1.057  1.00  0.00     0.168 C 
HETATM   29  C   UNL     1      41.109 -16.369   0.569  1.00  0.00     0.029 C 
HETATM   30  C   UNL     1      40.306 -16.429   1.845  1.00  0.00     0.035 C 
ENDBRANCH  25  26
ENDBRANCH  23  25
ENDBRANCH  21  23
ENDBRANCH  19  21
ENDBRANCH   2  19
TORSDOF 9
ENDMDL
MODEL 9
REMARK VINA RESULT:      -6.9      5.990      8.226
REMARK  9 active torsions:
REMARK  status: ('A' for Active; 'I' for Inactive)
REMARK    1  A    between atoms: C_2  and  O_3 
REMARK    2  A    between atoms: O_3  and  C_4 
REMARK    3  A    between atoms: C_4  and  C_5 
REMARK    4  A    between atoms: C_7  and  C_8 
REMARK       I    between atoms: C_8  and  N_9 
REMARK    5  A    between atoms: N_9  and  N_10 
REMARK    6  A    between atoms: N_10  and  C_11 
REMARK    7  A    between atoms: C_11  and  N_12 
REMARK    8  A    between atoms: N_12  and  C_13 
REMARK    9  A    between atoms: C_13  and  C_14 
ROOT
HETATM    1  C   UNL     1      44.001 -19.151   3.215  1.00  0.00     0.293 C 
HETATM    2  N   UNL     1      44.343 -18.568   4.429  1.00  0.00    -0.262 N 
HETATM    3  O   UNL     1      44.293 -20.325   2.982  1.00  0.00    -0.264 OA
HETATM    4  H   UNL     1      43.913 -17.701   4.738  1.00  0.00     0.190 HD
ENDROOT
BRANCH   1   5
HETATM    5  C   UNL     1      43.290 -18.280   2.299  1.00  0.00     0.145 A 
HETATM    6  O   UNL     1      42.046 -17.836   2.667  1.00  0.00    -0.307 OA
HETATM    7  C   UNL     1      41.567 -17.055   1.657  1.00  0.00     0.078 A 
HETATM    8  C   UNL     1      42.492 -16.982   0.640  1.00  0.00     0.038 A 
HETATM    9  C   UNL     1      43.599 -17.765   1.050  1.00  0.00     0.045 A 
BRANCH   7  10
HETATM   10  C   UNL     1      40.215 -16.468   1.846  1.00  0.00     0.240 C 
BRANCH  10  11
HETATM   11  O   UNL     1      40.393 -15.052   1.876  1.00  0.00    -0.345 OA
BRANCH  11  12
HETATM   12  C   UNL     1      39.522 -14.302   1.137  1.00  0.00     0.069 A 
HETATM   13  C   UNL     1      38.129 -14.359   1.201  1.00  0.00     0.038 A 
HETATM   14  C   UNL     1      37.355 -13.515   0.396  1.00  0.00     0.022 A 
HETATM   15  C   UNL     1      37.975 -12.618  -0.472  1.00  0.00     0.011 A 
HETATM   16  C   UNL     1      39.363 -12.555  -0.542  1.00  0.00     0.022 A 
HETATM   17 BR   UNL     1      36.925 -11.481  -1.556  1.00  0.00    -0.051 Br
HETATM   18  C   UNL     1      40.133 -13.395   0.265  1.00  0.00     0.038 A 
ENDBRANCH  11  12
ENDBRANCH  10  11
ENDBRANCH   7  10
ENDBRANCH   1   5
BRANCH   2  19
HETATM   19  N   UNL     1      44.845 -19.405   5.448  1.00  0.00    -0.274 N 
HETATM   20  H   UNL     1      45.265 -20.261   5.084  1.00  0.00     0.189 HD
BRANCH  19  21
HETATM   21  C   UNL     1      44.189 -19.481   6.651  1.00  0.00     0.186 C 
HETATM   22  S   UNL     1      43.581 -20.890   7.323  1.00  0.00    -0.040 SA
BRANCH  21  23
HETATM   23  N   UNL     1      43.983 -18.310   7.308  1.00  0.00    -0.364 N 
HETATM   24  H   UNL     1      44.773 -17.985   7.858  1.00  0.00     0.162 HD
BRANCH  23  25
HETATM   25  C   UNL     1      42.746 -17.561   7.517  1.00  0.00     0.154 C 
BRANCH  25  26
HETATM   26  C   UNL     1      42.021 -17.256   6.196  1.00  0.00     0.139 C 
HETATM   27  O   UNL     1      42.752 -16.241   5.474  1.00  0.00    -0.384 OA
HETATM   28  C   UNL     1      41.833 -15.211   5.091  1.00  0.00     0.168 C 
HETATM   29  C   UNL     1      40.696 -15.274   6.083  1.00  0.00     0.029 C 
HETATM   30  C   UNL     1      40.591 -16.755   6.356  1.00  0.00     0.035 C 
ENDBRANCH  25  26
ENDBRANCH  23  25
ENDBRANCH  21  23
ENDBRANCH  19  21
ENDBRANCH   2  19
TORSDOF 9
ENDMDL
MODEL 10
REMARK VINA RESULT:      -6.9      6.164      8.520
REMARK  9 active torsions:
REMARK  status: ('A' for Active; 'I' for Inactive)
REMARK    1  A    between atoms: C_2  and  O_3 
REMARK    2  A    between atoms: O_3  and  C_4 
REMARK    3  A    between atoms: C_4  and  C_5 
REMARK    4  A    between atoms: C_7  and  C_8 
REMARK       I    between atoms: C_8  and  N_9 
REMARK    5  A    between atoms: N_9  and  N_10 
REMARK    6  A    between atoms: N_10  and  C_11 
REMARK    7  A    between atoms: C_11  and  N_12 
REMARK    8  A    between atoms: N_12  and  C_13 
REMARK    9  A    between atoms: C_13  and  C_14 
ROOT
HETATM    1  C   UNL     1      43.364 -19.489   1.992  1.00  0.00     0.293 C 
HETATM    2  N   UNL     1      44.598 -19.483   2.629  1.00  0.00    -0.262 N 
HETATM    3  O   UNL     1      42.786 -20.552   1.760  1.00  0.00    -0.264 OA
HETATM    4  H   UNL     1      44.975 -18.635   3.042  1.00  0.00     0.190 HD
ENDROOT
BRANCH   1   5
HETATM    5  C   UNL     1      42.845 -18.177   1.655  1.00  0.00     0.145 A 
HETATM    6  O   UNL     1      41.586 -17.850   2.089  1.00  0.00    -0.307 OA
HETATM    7  C   UNL     1      41.307 -16.591   1.646  1.00  0.00     0.078 A 
HETATM    8  C   UNL     1      42.376 -16.095   0.935  1.00  0.00     0.038 A 
HETATM    9  C   UNL     1      43.365 -17.109   0.940  1.00  0.00     0.045 A 
BRANCH   7  10
HETATM   10  C   UNL     1      39.975 -16.035   2.001  1.00  0.00     0.240 C 
BRANCH  10  11
HETATM   11  O   UNL     1      40.098 -14.616   1.915  1.00  0.00    -0.345 OA
BRANCH  11  12
HETATM   12  C   UNL     1      40.348 -13.943   3.079  1.00  0.00     0.069 A 
HETATM   13  C   UNL     1      39.639 -14.077   4.274  1.00  0.00     0.038 A 
HETATM   14  C   UNL     1      40.016 -13.337   5.400  1.00  0.00     0.022 A 
HETATM   15  C   UNL     1      41.100 -12.463   5.328  1.00  0.00     0.011 A 
HETATM   16  C   UNL     1      41.811 -12.323   4.141  1.00  0.00     0.022 A 
HETATM   17 BR   UNL     1      41.605 -11.465   6.852  1.00  0.00    -0.051 Br
HETATM   18  C   UNL     1      41.435 -13.066   3.021  1.00  0.00     0.038 A 
ENDBRANCH  11  12
ENDBRANCH  10  11
ENDBRANCH   7  10
ENDBRANCH   1   5
BRANCH   2  19
HETATM   19  N   UNL     1      45.068 -20.697   3.176  1.00  0.00    -0.274 N 
HETATM   20  H   UNL     1      44.916 -21.493   2.555  1.00  0.00     0.189 HD
BRANCH  19  21
HETATM   21  C   UNL     1      44.972 -20.917   4.526  1.00  0.00     0.186 C 
HETATM   22  S   UNL     1      44.986 -22.425   5.254  1.00  0.00    -0.040 SA
BRANCH  21  23
HETATM   23  N   UNL     1      44.804 -19.822   5.312  1.00  0.00    -0.364 N 
HETATM   24  H   UNL     1      45.648 -19.277   5.470  1.00  0.00     0.162 HD
BRANCH  23  25
HETATM   25  C   UNL     1      43.662 -19.425   6.132  1.00  0.00     0.154 C 
BRANCH  25  26
HETATM   26  C   UNL     1      43.656 -17.916   6.428  1.00  0.00     0.139 C 
HETATM   27  O   UNL     1      42.519 -17.597   7.258  1.00  0.00    -0.384 OA
HETATM   28  C   UNL     1      41.819 -16.498   6.662  1.00  0.00     0.168 C 
HETATM   29  C   UNL     1      42.147 -16.543   5.189  1.00  0.00     0.029 C 
HETATM   30  C   UNL     1      43.577 -17.026   5.193  1.00  0.00     0.035 C 
ENDBRANCH  25  26
ENDBRANCH  23  25
ENDBRANCH  21  23
ENDBRANCH  19  21
ENDBRANCH   2  19
TORSDOF 9
ENDMDL
