MODEL 1
REMARK VINA RESULT:      -7.0      0.000      0.000
REMARK  6 active torsions:
REMARK  status: ('A' for Active; 'I' for Inactive)
REMARK    1  A    between atoms: C_2  and  N_3 
REMARK    2  A    between atoms: C_2  and  C_18 
REMARK    3  A    between atoms: N_3  and  C_6 
REMARK    4  A    between atoms: C_6  and  C_7 
REMARK    5  A    between atoms: C_10  and  N_11 
REMARK       I    between atoms: N_11  and  C_12 
REMARK    6  A    between atoms: C_12  and  O_13 
ROOT
HETATM    1  N   UNL     1      44.732 -18.300   5.225  1.00  0.00    -0.063 N 
HETATM    2  H   UNL     1      45.057 -17.536   4.620  1.00  0.00     0.278 HD
HETATM    3  H   UNL     1      45.585 -18.829   5.456  1.00  0.00     0.278 HD
ENDROOT
BRANCH   1   4
HETATM    4  C   UNL     1      44.153 -17.750   6.494  1.00  0.00     0.216 C 
HETATM    5  C   UNL     1      43.651 -18.901   7.366  1.00  0.00     0.045 C 
BRANCH   4   6
HETATM    6  C   UNL     1      43.058 -16.757   6.192  1.00  0.00    -0.009 A 
HETATM    7  C   UNL     1      41.750 -17.015   6.600  1.00  0.00     0.126 A 
HETATM    8  N   UNL     1      40.699 -16.200   6.417  1.00  0.00    -0.259 NA
HETATM    9  C   UNL     1      40.945 -15.037   5.758  1.00  0.00     0.074 A 
HETATM   10  C   UNL     1      42.215 -14.692   5.300  1.00  0.00     0.034 A 
HETATM   11  C   UNL     1      39.977 -14.039   5.453  1.00  0.00     0.040 A 
HETATM   12  S   UNL     1      42.198 -13.165   4.510  1.00  0.00    -0.100 SA
HETATM   13  C   UNL     1      43.302 -15.557   5.511  1.00  0.00     0.032 A 
HETATM   14  C   UNL     1      40.520 -12.969   4.777  1.00  0.00     0.053 A 
ENDBRANCH   4   6
ENDBRANCH   1   4
BRANCH   1  15
HETATM   15  C   UNL     1      43.854 -19.204   4.429  1.00  0.00     0.271 C 
BRANCH  15  16
HETATM   16  C   UNL     1      43.352 -18.494   3.205  1.00  0.00    -0.033 A 
HETATM   17  C   UNL     1      44.228 -18.158   2.166  1.00  0.00     0.011 A 
HETATM   18  C   UNL     1      43.775 -17.444   1.048  1.00  0.00     0.030 A 
HETATM   19  C   UNL     1      42.442 -17.050   0.945  1.00  0.00     0.036 A 
HETATM   20  C   UNL     1      41.565 -17.395   1.983  1.00  0.00     0.030 A 
HETATM   21  C   UNL     1      42.012 -18.103   3.104  1.00  0.00     0.011 A 
BRANCH  19  22
HETATM   22  N   UNL     1      41.892 -16.329  -0.127  1.00  0.00    -0.303 N 
HETATM   23  C   UNL     1      41.507 -15.022  -0.266  1.00  0.00     0.364 C 
HETATM   24  O   UNL     1      41.054 -14.629  -1.336  1.00  0.00    -0.238 OA
HETATM   25  H   UNL     1      41.723 -16.833  -0.990  1.00  0.00     0.171 HD
BRANCH  23  26
HETATM   26  O   UNL     1      41.649 -14.245   0.834  1.00  0.00    -0.309 OA
HETATM   27  C   UNL     1      41.887 -12.865   0.548  1.00  0.00     0.215 C 
ENDBRANCH  23  26
ENDBRANCH  19  22
ENDBRANCH  15  16
ENDBRANCH   1  15
TORSDOF 6
ENDMDL
MODEL 2
REMARK VINA RESULT:      -6.9      2.946      5.348
REMARK  6 active torsions:
REMARK  status: ('A' for Active; 'I' for Inactive)
REMARK    1  A    between atoms: C_2  and  N_3 
REMARK    2  A    between atoms: C_2  and  C_18 
REMARK    3  A    between atoms: N_3  and  C_6 
REMARK    4  A    between atoms: C_6  and  C_7 
REMARK    5  A    between atoms: C_10  and  N_11 
REMARK       I    between atoms: N_11  and  C_12 
REMARK    6  A    between atoms: C_12  and  O_13 
ROOT
HETATM    1  N   UNL     1      40.572 -14.785   1.689  1.00  0.00    -0.063 N 
HETATM    2  H   UNL     1      40.305 -15.517   2.359  1.00  0.00     0.278 HD
HETATM    3  H   UNL     1      39.681 -14.476   1.274  1.00  0.00     0.278 HD
ENDROOT
BRANCH   1   4
HETATM    4  C   UNL     1      41.192 -13.624   2.407  1.00  0.00     0.216 C 
HETATM    5  C   UNL     1      42.045 -12.816   1.429  1.00  0.00     0.045 C 
BRANCH   4   6
HETATM    6  C   UNL     1      41.998 -14.099   3.591  1.00  0.00    -0.009 A 
HETATM    7  C   UNL     1      43.214 -13.492   3.898  1.00  0.00     0.126 A 
HETATM    8  N   UNL     1      44.005 -13.804   4.936  1.00  0.00    -0.259 NA
HETATM    9  C   UNL     1      43.577 -14.816   5.737  1.00  0.00     0.074 A 
HETATM   10  C   UNL     1      42.381 -15.494   5.510  1.00  0.00     0.034 A 
HETATM   11  C   UNL     1      44.263 -15.310   6.882  1.00  0.00     0.040 A 
HETATM   12  S   UNL     1      42.123 -16.715   6.692  1.00  0.00    -0.100 SA
HETATM   13  C   UNL     1      41.566 -15.143   4.421  1.00  0.00     0.032 A 
HETATM   14  C   UNL     1      43.586 -16.340   7.496  1.00  0.00     0.053 A 
ENDBRANCH   4   6
ENDBRANCH   1   4
BRANCH   1  15
HETATM   15  C   UNL     1      41.378 -15.401   0.598  1.00  0.00     0.271 C 
BRANCH  15  16
HETATM   16  C   UNL     1      42.128 -16.594   1.117  1.00  0.00    -0.033 A 
HETATM   17  C   UNL     1      41.453 -17.780   1.431  1.00  0.00     0.011 A 
HETATM   18  C   UNL     1      42.140 -18.876   1.970  1.00  0.00     0.030 A 
HETATM   19  C   UNL     1      43.512 -18.810   2.210  1.00  0.00     0.036 A 
HETATM   20  C   UNL     1      44.187 -17.625   1.887  1.00  0.00     0.030 A 
HETATM   21  C   UNL     1      43.506 -16.525   1.353  1.00  0.00     0.011 A 
BRANCH  19  22
HETATM   22  N   UNL     1      44.288 -19.848   2.750  1.00  0.00    -0.303 N 
HETATM   23  C   UNL     1      44.592 -20.205   4.037  1.00  0.00     0.364 C 
HETATM   24  O   UNL     1      45.302 -21.183   4.248  1.00  0.00    -0.238 OA
HETATM   25  H   UNL     1      44.738 -20.481   2.100  1.00  0.00     0.171 HD
BRANCH  23  26
HETATM   26  O   UNL     1      44.078 -19.411   5.007  1.00  0.00    -0.309 OA
HETATM   27  C   UNL     1      43.963 -20.048   6.281  1.00  0.00     0.215 C 
ENDBRANCH  23  26
ENDBRANCH  19  22
ENDBRANCH  15  16
ENDBRANCH   1  15
TORSDOF 6
ENDMDL
MODEL 3
REMARK VINA RESULT:      -6.8      2.280      4.662
REMARK  6 active torsions:
REMARK  status: ('A' for Active; 'I' for Inactive)
REMARK    1  A    between atoms: C_2  and  N_3 
REMARK    2  A    between atoms: C_2  and  C_18 
REMARK    3  A    between atoms: N_3  and  C_6 
REMARK    4  A    between atoms: C_6  and  C_7 
REMARK    5  A    between atoms: C_10  and  N_11 
REMARK       I    between atoms: N_11  and  C_12 
REMARK    6  A    between atoms: C_12  and  O_13 
ROOT
HETATM    1  N   UNL     1      40.595 -16.133   4.963  1.00  0.00    -0.063 N 
HETATM    2  H   UNL     1      40.567 -16.876   4.254  1.00  0.00     0.278 HD
HETATM    3  H   UNL     1      39.764 -16.301   5.547  1.00  0.00     0.278 HD
ENDROOT
BRANCH   1   4
HETATM    4  C   UNL     1      41.817 -16.278   5.821  1.00  0.00     0.216 C 
HETATM    5  C   UNL     1      42.579 -14.953   5.851  1.00  0.00     0.045 C 
BRANCH   4   6
HETATM    6  C   UNL     1      42.683 -17.410   5.325  1.00  0.00    -0.009 A 
HETATM    7  C   UNL     1      43.625 -17.991   6.172  1.00  0.00     0.126 A 
HETATM    8  N   UNL     1      44.431 -19.019   5.860  1.00  0.00    -0.259 NA
HETATM    9  C   UNL     1      44.319 -19.509   4.597  1.00  0.00     0.074 A 
HETATM   10  C   UNL     1      43.417 -18.990   3.670  1.00  0.00     0.034 A 
HETATM   11  C   UNL     1      45.080 -20.585   4.058  1.00  0.00     0.040 A 
HETATM   12  S   UNL     1      43.518 -19.823   2.170  1.00  0.00    -0.100 SA
HETATM   13  C   UNL     1      42.577 -17.921   4.024  1.00  0.00     0.032 A 
HETATM   14  C   UNL     1      44.747 -20.860   2.751  1.00  0.00     0.053 A 
ENDBRANCH   4   6
ENDBRANCH   1   4
BRANCH   1  15
HETATM   15  C   UNL     1      40.406 -14.817   4.291  1.00  0.00     0.271 C 
BRANCH  15  16
HETATM   16  C   UNL     1      40.692 -14.938   2.822  1.00  0.00    -0.033 A 
HETATM   17  C   UNL     1      40.288 -16.073   2.107  1.00  0.00     0.011 A 
HETATM   18  C   UNL     1      40.605 -16.216   0.749  1.00  0.00     0.030 A 
HETATM   19  C   UNL     1      41.333 -15.234   0.079  1.00  0.00     0.036 A 
HETATM   20  C   UNL     1      41.730 -14.096   0.795  1.00  0.00     0.030 A 
HETATM   21  C   UNL     1      41.420 -13.949   2.152  1.00  0.00     0.011 A 
BRANCH  19  22
HETATM   22  N   UNL     1      41.704 -15.286  -1.274  1.00  0.00    -0.303 N 
HETATM   23  C   UNL     1      41.003 -15.099  -2.436  1.00  0.00     0.364 C 
HETATM   24  O   UNL     1      41.576 -15.193  -3.517  1.00  0.00    -0.238 OA
HETATM   25  H   UNL     1      42.670 -15.507  -1.485  1.00  0.00     0.171 HD
BRANCH  23  26
HETATM   26  O   UNL     1      39.683 -14.832  -2.293  1.00  0.00    -0.309 OA
HETATM   27  C   UNL     1      38.957 -14.799  -3.523  1.00  0.00     0.215 C 
ENDBRANCH  23  26
ENDBRANCH  19  22
ENDBRANCH  15  16
ENDBRANCH   1  15
TORSDOF 6
ENDMDL
MODEL 4
REMARK VINA RESULT:      -6.6      2.514      5.031
REMARK  6 active torsions:
REMARK  status: ('A' for Active; 'I' for Inactive)
REMARK    1  A    between atoms: C_2  and  N_3 
REMARK    2  A    between atoms: C_2  and  C_18 
REMARK    3  A    between atoms: N_3  and  C_6 
REMARK    4  A    between atoms: C_6  and  C_7 
REMARK    5  A    between atoms: C_10  and  N_11 
REMARK       I    between atoms: N_11  and  C_12 
REMARK    6  A    between atoms: C_12  and  O_13 
ROOT
HETATM    1  N   UNL     1      42.755 -18.661   2.906  1.00  0.00    -0.063 N 
HETATM    2  H   UNL     1      41.771 -18.729   3.193  1.00  0.00     0.278 HD
HETATM    3  H   UNL     1      43.069 -19.638   2.820  1.00  0.00     0.278 HD
ENDROOT
BRANCH   1   4
HETATM    4  C   UNL     1      42.860 -18.006   1.561  1.00  0.00     0.216 C 
HETATM    5  C   UNL     1      44.283 -17.485   1.357  1.00  0.00     0.045 C 
BRANCH   4   6
HETATM    6  C   UNL     1      41.837 -16.906   1.423  1.00  0.00    -0.009 A 
HETATM    7  C   UNL     1      40.545 -17.089   1.911  1.00  0.00     0.126 A 
HETATM    8  N   UNL     1      39.557 -16.180   1.874  1.00  0.00    -0.259 NA
HETATM    9  C   UNL     1      39.857 -14.989   1.290  1.00  0.00     0.074 A 
HETATM   10  C   UNL     1      41.116 -14.711   0.761  1.00  0.00     0.034 A 
HETATM   11  C   UNL     1      38.960 -13.894   1.139  1.00  0.00     0.040 A 
HETATM   12  S   UNL     1      41.175 -13.128   0.095  1.00  0.00    -0.100 SA
HETATM   13  C   UNL     1      42.135 -15.676   0.820  1.00  0.00     0.032 A 
HETATM   14  C   UNL     1      39.544 -12.820   0.507  1.00  0.00     0.053 A 
ENDBRANCH   4   6
ENDBRANCH   1   4
BRANCH   1  15
HETATM   15  C   UNL     1      43.537 -18.040   4.012  1.00  0.00     0.271 C 
BRANCH  15  16
HETATM   16  C   UNL     1      42.702 -17.019   4.730  1.00  0.00    -0.033 A 
HETATM   17  C   UNL     1      41.548 -17.402   5.424  1.00  0.00     0.011 A 
HETATM   18  C   UNL     1      40.734 -16.445   6.046  1.00  0.00     0.030 A 
HETATM   19  C   UNL     1      41.052 -15.089   5.985  1.00  0.00     0.036 A 
HETATM   20  C   UNL     1      42.212 -14.710   5.296  1.00  0.00     0.030 A 
HETATM   21  C   UNL     1      43.027 -15.659   4.669  1.00  0.00     0.011 A 
BRANCH  19  22
HETATM   22  N   UNL     1      40.301 -14.056   6.568  1.00  0.00    -0.303 N 
HETATM   23  C   UNL     1      39.508 -13.073   6.038  1.00  0.00     0.364 C 
HETATM   24  O   UNL     1      38.940 -12.279   6.781  1.00  0.00    -0.238 OA
HETATM   25  H   UNL     1      40.323 -13.976   7.578  1.00  0.00     0.171 HD
BRANCH  23  26
HETATM   26  O   UNL     1      39.425 -13.047   4.686  1.00  0.00    -0.309 OA
HETATM   27  C   UNL     1      39.162 -11.751   4.143  1.00  0.00     0.215 C 
ENDBRANCH  23  26
ENDBRANCH  19  22
ENDBRANCH  15  16
ENDBRANCH   1  15
TORSDOF 6
ENDMDL
MODEL 5
REMARK VINA RESULT:      -6.6      3.581      6.408
REMARK  6 active torsions:
REMARK  status: ('A' for Active; 'I' for Inactive)
REMARK    1  A    between atoms: C_2  and  N_3 
REMARK    2  A    between atoms: C_2  and  C_18 
REMARK    3  A    between atoms: N_3  and  C_6 
REMARK    4  A    between atoms: C_6  and  C_7 
REMARK    5  A    between atoms: C_10  and  N_11 
REMARK       I    between atoms: N_11  and  C_12 
REMARK    6  A    between atoms: C_12  and  O_13 
ROOT
HETATM    1  N   UNL     1      41.799 -14.441   3.659  1.00  0.00    -0.063 N 
HETATM    2  H   UNL     1      41.566 -14.270   4.645  1.00  0.00     0.278 HD
HETATM    3  H   UNL     1      41.235 -15.262   3.398  1.00  0.00     0.278 HD
ENDROOT
BRANCH   1   4
HETATM    4  C   UNL     1      41.369 -13.279   2.814  1.00  0.00     0.216 C 
HETATM    5  C   UNL     1      40.012 -12.769   3.299  1.00  0.00     0.045 C 
BRANCH   4   6
HETATM    6  C   UNL     1      41.333 -13.666   1.356  1.00  0.00    -0.009 A 
HETATM    7  C   UNL     1      40.720 -14.855   0.964  1.00  0.00     0.126 A 
HETATM    8  N   UNL     1      40.598 -15.294  -0.298  1.00  0.00    -0.259 NA
HETATM    9  C   UNL     1      41.142 -14.508  -1.265  1.00  0.00     0.074 A 
HETATM   10  C   UNL     1      41.787 -13.307  -0.976  1.00  0.00     0.034 A 
HETATM   11  C   UNL     1      41.133 -14.788  -2.660  1.00  0.00     0.040 A 
HETATM   12  S   UNL     1      42.365 -12.551  -2.408  1.00  0.00    -0.100 SA
HETATM   13  C   UNL     1      41.894 -12.864   0.353  1.00  0.00     0.032 A 
HETATM   14  C   UNL     1      41.762 -13.809  -3.397  1.00  0.00     0.053 A 
ENDBRANCH   4   6
ENDBRANCH   1   4
BRANCH   1  15
HETATM   15  C   UNL     1      43.232 -14.839   3.564  1.00  0.00     0.271 C 
BRANCH  15  16
HETATM   16  C   UNL     1      43.344 -16.289   3.192  1.00  0.00    -0.033 A 
HETATM   17  C   UNL     1      43.026 -17.290   4.119  1.00  0.00     0.011 A 
HETATM   18  C   UNL     1      43.186 -18.644   3.795  1.00  0.00     0.030 A 
HETATM   19  C   UNL     1      43.668 -19.027   2.545  1.00  0.00     0.036 A 
HETATM   20  C   UNL     1      43.978 -18.024   1.616  1.00  0.00     0.030 A 
HETATM   21  C   UNL     1      43.826 -16.670   1.935  1.00  0.00     0.011 A 
BRANCH  19  22
HETATM   22  N   UNL     1      43.868 -20.353   2.127  1.00  0.00    -0.303 N 
HETATM   23  C   UNL     1      44.415 -21.447   2.743  1.00  0.00     0.364 C 
HETATM   24  O   UNL     1      44.465 -22.520   2.150  1.00  0.00    -0.238 OA
HETATM   25  H   UNL     1      43.570 -20.596   1.189  1.00  0.00     0.171 HD
BRANCH  23  26
HETATM   26  O   UNL     1      44.888 -21.244   3.996  1.00  0.00    -0.309 OA
HETATM   27  C   UNL     1      44.915 -22.420   4.807  1.00  0.00     0.215 C 
ENDBRANCH  23  26
ENDBRANCH  19  22
ENDBRANCH  15  16
ENDBRANCH   1  15
TORSDOF 6
ENDMDL
MODEL 6
REMARK VINA RESULT:      -6.5      3.238      6.447
REMARK  6 active torsions:
REMARK  status: ('A' for Active; 'I' for Inactive)
REMARK    1  A    between atoms: C_2  and  N_3 
REMARK    2  A    between atoms: C_2  and  C_18 
REMARK    3  A    between atoms: N_3  and  C_6 
REMARK    4  A    between atoms: C_6  and  C_7 
REMARK    5  A    between atoms: C_10  and  N_11 
REMARK       I    between atoms: N_11  and  C_12 
REMARK    6  A    between atoms: C_12  and  O_13 
ROOT
HETATM    1  N   UNL     1      40.316 -16.550   2.075  1.00  0.00    -0.063 N 
HETATM    2  H   UNL     1      39.735 -16.952   1.329  1.00  0.00     0.278 HD
HETATM    3  H   UNL     1      40.223 -17.208   2.861  1.00  0.00     0.278 HD
ENDROOT
BRANCH   1   4
HETATM    4  C   UNL     1      41.754 -16.512   1.651  1.00  0.00     0.216 C 
HETATM    5  C   UNL     1      41.837 -16.532   0.125  1.00  0.00     0.045 C 
BRANCH   4   6
HETATM    6  C   UNL     1      42.520 -17.656   2.268  1.00  0.00    -0.009 A 
HETATM    7  C   UNL     1      43.099 -18.629   1.455  1.00  0.00     0.126 A 
HETATM    8  N   UNL     1      43.825 -19.674   1.880  1.00  0.00    -0.259 NA
HETATM    9  C   UNL     1      43.984 -19.790   3.226  1.00  0.00     0.074 A 
HETATM   10  C   UNL     1      43.436 -18.877   4.124  1.00  0.00     0.034 A 
HETATM   11  C   UNL     1      44.707 -20.823   3.887  1.00  0.00     0.040 A 
HETATM   12  S   UNL     1      43.813 -19.299   5.747  1.00  0.00    -0.100 SA
HETATM   13  C   UNL     1      42.687 -17.786   3.654  1.00  0.00     0.032 A 
HETATM   14  C   UNL     1      44.695 -20.679   5.256  1.00  0.00     0.053 A 
ENDBRANCH   4   6
ENDBRANCH   1   4
BRANCH   1  15
HETATM   15  C   UNL     1      39.716 -15.256   2.508  1.00  0.00     0.271 C 
BRANCH  15  16
HETATM   16  C   UNL     1      40.543 -14.640   3.600  1.00  0.00    -0.033 A 
HETATM   17  C   UNL     1      41.468 -13.629   3.311  1.00  0.00     0.011 A 
HETATM   18  C   UNL     1      42.282 -13.093   4.317  1.00  0.00     0.030 A 
HETATM   19  C   UNL     1      42.193 -13.555   5.629  1.00  0.00     0.036 A 
HETATM   20  C   UNL     1      41.261 -14.561   5.917  1.00  0.00     0.030 A 
HETATM   21  C   UNL     1      40.448 -15.104   4.916  1.00  0.00     0.011 A 
BRANCH  19  22
HETATM   22  N   UNL     1      42.966 -13.088   6.704  1.00  0.00    -0.303 N 
HETATM   23  C   UNL     1      44.165 -13.492   7.229  1.00  0.00     0.364 C 
HETATM   24  O   UNL     1      44.643 -12.897   8.190  1.00  0.00    -0.238 OA
HETATM   25  H   UNL     1      42.605 -12.301   7.231  1.00  0.00     0.171 HD
BRANCH  23  26
HETATM   26  O   UNL     1      44.738 -14.566   6.634  1.00  0.00    -0.309 OA
HETATM   27  C   UNL     1      44.350 -15.821   7.198  1.00  0.00     0.215 C 
ENDBRANCH  23  26
ENDBRANCH  19  22
ENDBRANCH  15  16
ENDBRANCH   1  15
TORSDOF 6
ENDMDL
MODEL 7
REMARK VINA RESULT:      -6.4      3.748      6.900
REMARK  6 active torsions:
REMARK  status: ('A' for Active; 'I' for Inactive)
REMARK    1  A    between atoms: C_2  and  N_3 
REMARK    2  A    between atoms: C_2  and  C_18 
REMARK    3  A    between atoms: N_3  and  C_6 
REMARK    4  A    between atoms: C_6  and  C_7 
REMARK    5  A    between atoms: C_10  and  N_11 
REMARK       I    between atoms: N_11  and  C_12 
REMARK    6  A    between atoms: C_12  and  O_13 
ROOT
HETATM    1  N   UNL     1      41.041 -16.257   2.608  1.00  0.00    -0.063 N 
HETATM    2  H   UNL     1      40.190 -16.461   2.071  1.00  0.00     0.278 HD
HETATM    3  H   UNL     1      41.001 -16.900   3.412  1.00  0.00     0.278 HD
ENDROOT
BRANCH   1   4
HETATM    4  C   UNL     1      42.260 -16.582   1.798  1.00  0.00     0.216 C 
HETATM    5  C   UNL     1      41.877 -16.690   0.322  1.00  0.00     0.045 C 
BRANCH   4   6
HETATM    6  C   UNL     1      42.912 -17.846   2.301  1.00  0.00    -0.009 A 
HETATM    7  C   UNL     1      43.271 -18.851   1.405  1.00  0.00     0.126 A 
HETATM    8  N   UNL     1      43.880 -20.004   1.725  1.00  0.00    -0.259 NA
HETATM    9  C   UNL     1      44.145 -20.199   3.044  1.00  0.00     0.074 A 
HETATM   10  C   UNL     1      43.816 -19.261   4.020  1.00  0.00     0.034 A 
HETATM   11  C   UNL     1      44.774 -21.350   3.598  1.00  0.00     0.040 A 
HETATM   12  S   UNL     1      44.280 -19.802   5.584  1.00  0.00    -0.100 SA
HETATM   13  C   UNL     1      43.187 -18.058   3.659  1.00  0.00     0.032 A 
HETATM   14  C   UNL     1      44.910 -21.266   4.966  1.00  0.00     0.053 A 
ENDBRANCH   4   6
ENDBRANCH   1   4
BRANCH   1  15
HETATM   15  C   UNL     1      40.949 -14.870   3.146  1.00  0.00     0.271 C 
BRANCH  15  16
HETATM   16  C   UNL     1      41.951 -14.673   4.248  1.00  0.00    -0.033 A 
HETATM   17  C   UNL     1      41.740 -15.236   5.513  1.00  0.00     0.011 A 
HETATM   18  C   UNL     1      42.642 -15.006   6.560  1.00  0.00     0.030 A 
HETATM   19  C   UNL     1      43.770 -14.209   6.369  1.00  0.00     0.036 A 
HETATM   20  C   UNL     1      43.983 -13.653   5.099  1.00  0.00     0.030 A 
HETATM   21  C   UNL     1      43.083 -13.875   4.051  1.00  0.00     0.011 A 
BRANCH  19  22
HETATM   22  N   UNL     1      44.728 -13.914   7.352  1.00  0.00    -0.303 N 
HETATM   23  C   UNL     1      44.818 -12.921   8.290  1.00  0.00     0.364 C 
HETATM   24  O   UNL     1      45.776 -12.890   9.057  1.00  0.00    -0.238 OA
HETATM   25  H   UNL     1      45.534 -14.525   7.416  1.00  0.00     0.171 HD
BRANCH  23  26
HETATM   26  O   UNL     1      43.815 -12.011   8.285  1.00  0.00    -0.309 OA
HETATM   27  C   UNL     1      43.813 -11.138   9.417  1.00  0.00     0.215 C 
ENDBRANCH  23  26
ENDBRANCH  19  22
ENDBRANCH  15  16
ENDBRANCH   1  15
TORSDOF 6
ENDMDL
MODEL 8
REMARK VINA RESULT:      -6.4      2.626      4.309
REMARK  6 active torsions:
REMARK  status: ('A' for Active; 'I' for Inactive)
REMARK    1  A    between atoms: C_2  and  N_3 
REMARK    2  A    between atoms: C_2  and  C_18 
REMARK    3  A    between atoms: N_3  and  C_6 
REMARK    4  A    between atoms: C_6  and  C_7 
REMARK    5  A    between atoms: C_10  and  N_11 
REMARK       I    between atoms: N_11  and  C_12 
REMARK    6  A    between atoms: C_12  and  O_13 
ROOT
HETATM    1  N   UNL     1      43.803 -18.056   1.617  1.00  0.00    -0.063 N 
HETATM    2  H   UNL     1      43.807 -17.207   2.196  1.00  0.00     0.278 HD
HETATM    3  H   UNL     1      44.467 -17.854   0.856  1.00  0.00     0.278 HD
ENDROOT
BRANCH   1   4
HETATM    4  C   UNL     1      44.319 -19.225   2.402  1.00  0.00     0.216 C 
HETATM    5  C   UNL     1      43.597 -20.497   1.958  1.00  0.00     0.045 C 
BRANCH   4   6
HETATM    6  C   UNL     1      44.162 -18.982   3.883  1.00  0.00    -0.009 A 
HETATM    7  C   UNL     1      44.468 -19.991   4.793  1.00  0.00     0.126 A 
HETATM    8  N   UNL     1      44.398 -19.889   6.130  1.00  0.00    -0.259 NA
HETATM    9  C   UNL     1      43.970 -18.695   6.620  1.00  0.00     0.074 A 
HETATM   10  C   UNL     1      43.629 -17.626   5.794  1.00  0.00     0.034 A 
HETATM   11  C   UNL     1      43.815 -18.376   7.999  1.00  0.00     0.040 A 
HETATM   12  S   UNL     1      43.129 -16.264   6.715  1.00  0.00    -0.100 SA
HETATM   13  C   UNL     1      43.720 -17.755   4.398  1.00  0.00     0.032 A 
HETATM   14  C   UNL     1      43.366 -17.090   8.193  1.00  0.00     0.053 A 
ENDBRANCH   4   6
ENDBRANCH   1   4
BRANCH   1  15
HETATM   15  C   UNL     1      42.456 -18.211   1.000  1.00  0.00     0.271 C 
BRANCH  15  16
HETATM   16  C   UNL     1      41.629 -16.981   1.241  1.00  0.00    -0.033 A 
HETATM   17  C   UNL     1      40.648 -16.964   2.240  1.00  0.00     0.011 A 
HETATM   18  C   UNL     1      39.836 -15.838   2.429  1.00  0.00     0.030 A 
HETATM   19  C   UNL     1      39.982 -14.709   1.625  1.00  0.00     0.036 A 
HETATM   20  C   UNL     1      40.970 -14.725   0.630  1.00  0.00     0.030 A 
HETATM   21  C   UNL     1      41.782 -15.848   0.433  1.00  0.00     0.011 A 
BRANCH  19  22
HETATM   22  N   UNL     1      39.216 -13.537   1.729  1.00  0.00    -0.303 N 
HETATM   23  C   UNL     1      38.070 -13.119   1.107  1.00  0.00     0.364 C 
HETATM   24  O   UNL     1      37.585 -12.028   1.389  1.00  0.00    -0.238 OA
HETATM   25  H   UNL     1      39.537 -12.827   2.378  1.00  0.00     0.171 HD
BRANCH  23  26
HETATM   26  O   UNL     1      37.557 -13.967   0.184  1.00  0.00    -0.309 OA
HETATM   27  C   UNL     1      37.916 -13.651  -1.163  1.00  0.00     0.215 C 
ENDBRANCH  23  26
ENDBRANCH  19  22
ENDBRANCH  15  16
ENDBRANCH   1  15
TORSDOF 6
ENDMDL
MODEL 9
REMARK VINA RESULT:      -6.4      1.706      2.472
REMARK  6 active torsions:
REMARK  status: ('A' for Active; 'I' for Inactive)
REMARK    1  A    between atoms: C_2  and  N_3 
REMARK    2  A    between atoms: C_2  and  C_18 
REMARK    3  A    between atoms: N_3  and  C_6 
REMARK    4  A    between atoms: C_6  and  C_7 
REMARK    5  A    between atoms: C_10  and  N_11 
REMARK       I    between atoms: N_11  and  C_12 
REMARK    6  A    between atoms: C_12  and  O_13 
ROOT
HETATM    1  N   UNL     1      45.406 -20.288   4.171  1.00  0.00    -0.063 N 
HETATM    2  H   UNL     1      45.849 -19.412   3.866  1.00  0.00     0.278 HD
HETATM    3  H   UNL     1      46.169 -20.979   4.167  1.00  0.00     0.278 HD
ENDROOT
BRANCH   1   4
HETATM    4  C   UNL     1      44.894 -20.151   5.574  1.00  0.00     0.216 C 
HETATM    5  C   UNL     1      43.872 -21.252   5.853  1.00  0.00     0.045 C 
BRANCH   4   6
HETATM    6  C   UNL     1      44.311 -18.777   5.796  1.00  0.00    -0.009 A 
HETATM    7  C   UNL     1      45.086 -17.775   6.377  1.00  0.00     0.126 A 
HETATM    8  N   UNL     1      44.693 -16.511   6.600  1.00  0.00    -0.259 NA
HETATM    9  C   UNL     1      43.418 -16.205   6.239  1.00  0.00     0.074 A 
HETATM   10  C   UNL     1      42.560 -17.138   5.661  1.00  0.00     0.034 A 
HETATM   11  C   UNL     1      42.799 -14.932   6.393  1.00  0.00     0.040 A 
HETATM   12  S   UNL     1      41.024 -16.444   5.322  1.00  0.00    -0.100 SA
HETATM   13  C   UNL     1      42.998 -18.452   5.430  1.00  0.00     0.032 A 
HETATM   14  C   UNL     1      41.501 -14.921   5.937  1.00  0.00     0.053 A 
ENDBRANCH   4   6
ENDBRANCH   1   4
BRANCH   1  15
HETATM   15  C   UNL     1      44.418 -20.713   3.140  1.00  0.00     0.271 C 
BRANCH  15  16
HETATM   16  C   UNL     1      43.848 -19.512   2.440  1.00  0.00    -0.033 A 
HETATM   17  C   UNL     1      42.498 -19.474   2.074  1.00  0.00     0.011 A 
HETATM   18  C   UNL     1      41.976 -18.381   1.369  1.00  0.00     0.030 A 
HETATM   19  C   UNL     1      42.791 -17.307   1.012  1.00  0.00     0.036 A 
HETATM   20  C   UNL     1      44.141 -17.345   1.386  1.00  0.00     0.030 A 
HETATM   21  C   UNL     1      44.669 -18.435   2.087  1.00  0.00     0.011 A 
BRANCH  19  22
HETATM   22  N   UNL     1      42.368 -16.172   0.303  1.00  0.00    -0.303 N 
HETATM   23  C   UNL     1      41.890 -14.953   0.704  1.00  0.00     0.364 C 
HETATM   24  O   UNL     1      41.591 -14.107  -0.133  1.00  0.00    -0.238 OA
HETATM   25  H   UNL     1      42.398 -16.215  -0.709  1.00  0.00     0.171 HD
BRANCH  23  26
HETATM   26  O   UNL     1      41.765 -14.779   2.042  1.00  0.00    -0.309 OA
HETATM   27  C   UNL     1      42.684 -13.835   2.596  1.00  0.00     0.215 C 
ENDBRANCH  23  26
ENDBRANCH  19  22
ENDBRANCH  15  16
ENDBRANCH   1  15
TORSDOF 6
ENDMDL
MODEL 10
REMARK VINA RESULT:      -6.3      2.738      5.392
REMARK  6 active torsions:
REMARK  status: ('A' for Active; 'I' for Inactive)
REMARK    1  A    between atoms: C_2  and  N_3 
REMARK    2  A    between atoms: C_2  and  C_18 
REMARK    3  A    between atoms: N_3  and  C_6 
REMARK    4  A    between atoms: C_6  and  C_7 
REMARK    5  A    between atoms: C_10  and  N_11 
REMARK       I    between atoms: N_11  and  C_12 
REMARK    6  A    between atoms: C_12  and  O_13 
ROOT
HETATM    1  N   UNL     1      40.302 -15.501   0.398  1.00  0.00    -0.063 N 
HETATM    2  H   UNL     1      39.980 -15.832   1.316  1.00  0.00     0.278 HD
HETATM    3  H   UNL     1      39.514 -15.692  -0.237  1.00  0.00     0.278 HD
ENDROOT
BRANCH   1   4
HETATM    4  C   UNL     1      40.538 -14.020   0.432  1.00  0.00     0.216 C 
HETATM    5  C   UNL     1      41.661 -13.661  -0.542  1.00  0.00     0.045 C 
BRANCH   4   6
HETATM    6  C   UNL     1      40.848 -13.563   1.836  1.00  0.00    -0.009 A 
HETATM    7  C   UNL     1      42.171 -13.421   2.248  1.00  0.00     0.126 A 
HETATM    8  N   UNL     1      42.574 -12.997   3.457  1.00  0.00    -0.259 NA
HETATM    9  C   UNL     1      41.592 -12.703   4.350  1.00  0.00     0.074 A 
HETATM   10  C   UNL     1      40.239 -12.822   4.039  1.00  0.00     0.034 A 
HETATM   11  C   UNL     1      41.796 -12.246   5.682  1.00  0.00     0.040 A 
HETATM   12  S   UNL     1      39.252 -12.378   5.375  1.00  0.00    -0.100 SA
HETATM   13  C   UNL     1      39.843 -13.260   2.764  1.00  0.00     0.032 A 
HETATM   14  C   UNL     1      40.613 -12.031   6.351  1.00  0.00     0.053 A 
ENDBRANCH   4   6
ENDBRANCH   1   4
BRANCH   1  15
HETATM   15  C   UNL     1      41.445 -16.347  -0.046  1.00  0.00     0.271 C 
BRANCH  15  16
HETATM   16  C   UNL     1      42.093 -17.007   1.138  1.00  0.00    -0.033 A 
HETATM   17  C   UNL     1      43.393 -17.517   1.047  1.00  0.00     0.011 A 
HETATM   18  C   UNL     1      43.980 -18.185   2.130  1.00  0.00     0.030 A 
HETATM   19  C   UNL     1      43.280 -18.361   3.323  1.00  0.00     0.036 A 
HETATM   20  C   UNL     1      41.981 -17.843   3.414  1.00  0.00     0.030 A 
HETATM   21  C   UNL     1      41.388 -17.178   2.335  1.00  0.00     0.011 A 
BRANCH  19  22
HETATM   22  N   UNL     1      43.775 -19.018   4.461  1.00  0.00    -0.303 N 
HETATM   23  C   UNL     1      44.220 -18.565   5.674  1.00  0.00     0.364 C 
HETATM   24  O   UNL     1      44.601 -19.364   6.523  1.00  0.00    -0.238 OA
HETATM   25  H   UNL     1      43.840 -20.029   4.424  1.00  0.00     0.171 HD
BRANCH  23  26
HETATM   26  O   UNL     1      44.219 -17.220   5.838  1.00  0.00    -0.309 OA
HETATM   27  C   UNL     1      43.284 -16.752   6.813  1.00  0.00     0.215 C 
ENDBRANCH  23  26
ENDBRANCH  19  22
ENDBRANCH  15  16
ENDBRANCH   1  15
TORSDOF 6
ENDMDL
