MODEL 1
REMARK VINA RESULT:      -8.3      0.000      0.000
REMARK  9 active torsions:
REMARK  status: ('A' for Active; 'I' for Inactive)
REMARK    1  A    between atoms: C_2  and  N_3 
REMARK    2  A    between atoms: C_4  and  S_5 
REMARK    3  A    between atoms: S_5  and  C_6 
REMARK    4  A    between atoms: C_6  and  C_7 
REMARK       I    between atoms: C_7  and  N_8 
REMARK    5  A    between atoms: N_8  and  C_9 
REMARK    6  A    between atoms: C_9  and  C_10 
REMARK    7  A    between atoms: C_10  and  O_11 
REMARK    8  A    between atoms: O_11  and  C_12 
REMARK    9  A    between atoms: C_21  and  C_22 
ROOT
HETATM    1  S   UNL     1      41.085 -14.481   3.770  1.00  0.00    -0.081 SA
ENDROOT
BRANCH   1   2
HETATM    2  C   UNL     1      42.268 -15.640   3.270  1.00  0.00     0.192 A 
HETATM    3  N   UNL     1      42.230 -16.974   3.580  1.00  0.00    -0.308 N 
HETATM    4  C   UNL     1      43.338 -17.528   2.967  1.00  0.00     0.165 A 
HETATM    5  N   UNL     1      43.987 -16.566   2.335  1.00  0.00    -0.128 NA
HETATM    6  N   UNL     1      43.321 -15.384   2.533  1.00  0.00    -0.122 NA
BRANCH   3   7
HETATM    7  C   UNL     1      41.199 -17.678   4.315  1.00  0.00     0.128 C 
HETATM    8  C   UNL     1      41.477 -17.755   5.808  1.00  0.00     0.027 C 
ENDBRANCH   3   7
BRANCH   4   9
HETATM    9  C   UNL     1      43.712 -18.944   2.967  1.00  0.00     0.018 A 
HETATM   10  C   UNL     1      44.434 -19.513   4.039  1.00  0.00    -0.048 A 
HETATM   11  C   UNL     1      44.825 -18.706   5.248  1.00  0.00     0.049 C 
HETATM   12  C   UNL     1      44.765 -20.879   3.997  1.00  0.00     0.007 A 
HETATM   13  C   UNL     1      44.393 -21.672   2.912  1.00  0.00     0.001 A 
HETATM   14  C   UNL     1      43.670 -21.116   1.862  1.00  0.00     0.001 A 
HETATM   15  C   UNL     1      43.325 -19.764   1.893  1.00  0.00     0.016 A 
ENDBRANCH   4   9
ENDBRANCH   1   2
BRANCH   1  16
HETATM   16  C   UNL     1      41.494 -14.355   5.537  1.00  0.00     0.185 C 
BRANCH  16  17
HETATM   17  C   UNL     1      42.936 -13.900   5.693  1.00  0.00     0.227 C 
HETATM   18  N   UNL     1      43.608 -14.460   6.761  1.00  0.00    -0.358 N 
HETATM   19  H   UNL     1      43.134 -15.128   7.356  1.00  0.00     0.162 HD
HETATM   20  O   UNL     1      43.463 -13.102   4.921  1.00  0.00    -0.273 OA
BRANCH  18  21
HETATM   21  C   UNL     1      45.013 -14.190   7.010  1.00  0.00     0.149 C 
BRANCH  21  22
HETATM   22  C   UNL     1      45.254 -12.965   7.897  1.00  0.00     0.195 C 
BRANCH  22  23
HETATM   23  O   UNL     1      44.719 -13.257   9.191  1.00  0.00    -0.350 OA
BRANCH  23  24
HETATM   24  C   UNL     1      44.207 -12.220   9.918  1.00  0.00     0.068 A 
HETATM   25  C   UNL     1      44.365 -12.017  11.289  1.00  0.00     0.037 A 
HETATM   26  C   UNL     1      43.793 -10.895  11.903  1.00  0.00     0.003 A 
HETATM   27  C   UNL     1      43.060  -9.978  11.150  1.00  0.00     0.000 A 
HETATM   28  C   UNL     1      42.898 -10.178   9.782  1.00  0.00     0.003 A 
HETATM   29  C   UNL     1      43.470 -11.294   9.172  1.00  0.00     0.037 A 
ENDBRANCH  23  24
ENDBRANCH  22  23
ENDBRANCH  21  22
ENDBRANCH  18  21
ENDBRANCH  16  17
ENDBRANCH   1  16
TORSDOF 9
ENDMDL
MODEL 2
REMARK VINA RESULT:      -8.1      1.612      2.113
REMARK  9 active torsions:
REMARK  status: ('A' for Active; 'I' for Inactive)
REMARK    1  A    between atoms: C_2  and  N_3 
REMARK    2  A    between atoms: C_4  and  S_5 
REMARK    3  A    between atoms: S_5  and  C_6 
REMARK    4  A    between atoms: C_6  and  C_7 
REMARK       I    between atoms: C_7  and  N_8 
REMARK    5  A    between atoms: N_8  and  C_9 
REMARK    6  A    between atoms: C_9  and  C_10 
REMARK    7  A    between atoms: C_10  and  O_11 
REMARK    8  A    between atoms: O_11  and  C_12 
REMARK    9  A    between atoms: C_21  and  C_22 
ROOT
HETATM    1  S   UNL     1      41.416 -14.562   3.968  1.00  0.00    -0.081 SA
ENDROOT
BRANCH   1   2
HETATM    2  C   UNL     1      42.492 -15.772   3.361  1.00  0.00     0.192 A 
HETATM    3  N   UNL     1      42.445 -17.098   3.702  1.00  0.00    -0.308 N 
HETATM    4  C   UNL     1      43.455 -17.703   2.978  1.00  0.00     0.165 A 
HETATM    5  N   UNL     1      44.060 -16.777   2.256  1.00  0.00    -0.128 NA
HETATM    6  N   UNL     1      43.462 -15.567   2.502  1.00  0.00    -0.122 NA
BRANCH   3   7
HETATM    7  C   UNL     1      41.482 -17.751   4.565  1.00  0.00     0.128 C 
HETATM    8  C   UNL     1      41.795 -17.583   6.044  1.00  0.00     0.027 C 
ENDBRANCH   3   7
BRANCH   4   9
HETATM    9  C   UNL     1      43.778 -19.132   2.966  1.00  0.00     0.018 A 
HETATM   10  C   UNL     1      44.508 -19.729   4.017  1.00  0.00    -0.048 A 
HETATM   11  C   UNL     1      44.959 -18.939   5.217  1.00  0.00     0.049 C 
HETATM   12  C   UNL     1      44.788 -21.106   3.965  1.00  0.00     0.007 A 
HETATM   13  C   UNL     1      44.358 -21.882   2.889  1.00  0.00     0.001 A 
HETATM   14  C   UNL     1      43.627 -21.297   1.860  1.00  0.00     0.001 A 
HETATM   15  C   UNL     1      43.333 -19.934   1.902  1.00  0.00     0.016 A 
ENDBRANCH   4   9
ENDBRANCH   1   2
BRANCH   1  16
HETATM   16  C   UNL     1      42.346 -14.016   5.432  1.00  0.00     0.185 C 
BRANCH  16  17
HETATM   17  C   UNL     1      41.990 -12.573   5.749  1.00  0.00     0.227 C 
HETATM   18  N   UNL     1      42.135 -12.220   7.076  1.00  0.00    -0.358 N 
HETATM   19  H   UNL     1      42.468 -12.904   7.743  1.00  0.00     0.162 HD
HETATM   20  O   UNL     1      41.613 -11.782   4.888  1.00  0.00    -0.273 OA
BRANCH  18  21
HETATM   21  C   UNL     1      41.908 -10.861   7.537  1.00  0.00     0.149 C 
BRANCH  21  22
HETATM   22  C   UNL     1      42.513 -10.573   8.914  1.00  0.00     0.195 C 
BRANCH  22  23
HETATM   23  O   UNL     1      41.470 -10.714   9.882  1.00  0.00    -0.350 OA
BRANCH  23  24
HETATM   24  C   UNL     1      41.800 -10.572  11.200  1.00  0.00     0.068 A 
HETATM   25  C   UNL     1      41.009 -10.932  12.292  1.00  0.00     0.037 A 
HETATM   26  C   UNL     1      41.485 -10.741  13.595  1.00  0.00     0.003 A 
HETATM   27  C   UNL     1      42.746 -10.186  13.811  1.00  0.00     0.000 A 
HETATM   28  C   UNL     1      43.537  -9.822  12.724  1.00  0.00     0.003 A 
HETATM   29  C   UNL     1      43.063 -10.016  11.427  1.00  0.00     0.037 A 
ENDBRANCH  23  24
ENDBRANCH  22  23
ENDBRANCH  21  22
ENDBRANCH  18  21
ENDBRANCH  16  17
ENDBRANCH   1  16
TORSDOF 9
ENDMDL
MODEL 3
REMARK VINA RESULT:      -8.0      3.503      6.103
REMARK  9 active torsions:
REMARK  status: ('A' for Active; 'I' for Inactive)
REMARK    1  A    between atoms: C_2  and  N_3 
REMARK    2  A    between atoms: C_4  and  S_5 
REMARK    3  A    between atoms: S_5  and  C_6 
REMARK    4  A    between atoms: C_6  and  C_7 
REMARK       I    between atoms: C_7  and  N_8 
REMARK    5  A    between atoms: N_8  and  C_9 
REMARK    6  A    between atoms: C_9  and  C_10 
REMARK    7  A    between atoms: C_10  and  O_11 
REMARK    8  A    between atoms: O_11  and  C_12 
REMARK    9  A    between atoms: C_21  and  C_22 
ROOT
HETATM    1  S   UNL     1      41.236 -14.327   5.258  1.00  0.00    -0.081 SA
ENDROOT
BRANCH   1   2
HETATM    2  C   UNL     1      42.310 -15.374   4.397  1.00  0.00     0.192 A 
HETATM    3  N   UNL     1      42.398 -16.728   4.588  1.00  0.00    -0.308 N 
HETATM    4  C   UNL     1      43.349 -17.169   3.689  1.00  0.00     0.165 A 
HETATM    5  N   UNL     1      43.794 -16.125   3.011  1.00  0.00    -0.128 NA
HETATM    6  N   UNL     1      43.149 -15.002   3.461  1.00  0.00    -0.122 NA
BRANCH   3   7
HETATM    7  C   UNL     1      41.597 -17.545   5.478  1.00  0.00     0.128 C 
HETATM    8  C   UNL     1      41.997 -17.406   6.938  1.00  0.00     0.027 C 
ENDBRANCH   3   7
BRANCH   4   9
HETATM    9  C   UNL     1      43.766 -18.557   3.477  1.00  0.00     0.018 A 
HETATM   10  C   UNL     1      44.610 -19.219   4.396  1.00  0.00    -0.048 A 
HETATM   11  C   UNL     1      45.094 -18.547   5.653  1.00  0.00     0.049 C 
HETATM   12  C   UNL     1      44.978 -20.554   4.154  1.00  0.00     0.007 A 
HETATM   13  C   UNL     1      44.524 -21.226   3.019  1.00  0.00     0.001 A 
HETATM   14  C   UNL     1      43.682 -20.579   2.121  1.00  0.00     0.001 A 
HETATM   15  C   UNL     1      43.299 -19.257   2.352  1.00  0.00     0.016 A 
ENDBRANCH   4   9
ENDBRANCH   1   2
BRANCH   1  16
HETATM   16  C   UNL     1      42.102 -12.743   5.047  1.00  0.00     0.185 C 
BRANCH  16  17
HETATM   17  C   UNL     1      41.425 -11.937   3.950  1.00  0.00     0.227 C 
HETATM   18  N   UNL     1      41.960 -12.112   2.690  1.00  0.00    -0.358 N 
HETATM   19  H   UNL     1      42.735 -12.750   2.558  1.00  0.00     0.162 HD
HETATM   20  O   UNL     1      40.470 -11.196   4.170  1.00  0.00    -0.273 OA
BRANCH  18  21
HETATM   21  C   UNL     1      41.386 -11.474   1.518  1.00  0.00     0.149 C 
BRANCH  21  22
HETATM   22  C   UNL     1      40.846 -12.465   0.483  1.00  0.00     0.195 C 
BRANCH  22  23
HETATM   23  O   UNL     1      39.944 -13.345   1.158  1.00  0.00    -0.350 OA
BRANCH  23  24
HETATM   24  C   UNL     1      40.240 -14.679   1.165  1.00  0.00     0.068 A 
HETATM   25  C   UNL     1      39.674 -15.645   1.998  1.00  0.00     0.037 A 
HETATM   26  C   UNL     1      40.065 -16.985   1.884  1.00  0.00     0.003 A 
HETATM   27  C   UNL     1      41.023 -17.362   0.943  1.00  0.00     0.000 A 
HETATM   28  C   UNL     1      41.593 -16.401   0.112  1.00  0.00     0.003 A 
HETATM   29  C   UNL     1      41.200 -15.067   0.224  1.00  0.00     0.037 A 
ENDBRANCH  23  24
ENDBRANCH  22  23
ENDBRANCH  21  22
ENDBRANCH  18  21
ENDBRANCH  16  17
ENDBRANCH   1  16
TORSDOF 9
ENDMDL
MODEL 4
REMARK VINA RESULT:      -7.9      2.489      3.670
REMARK  9 active torsions:
REMARK  status: ('A' for Active; 'I' for Inactive)
REMARK    1  A    between atoms: C_2  and  N_3 
REMARK    2  A    between atoms: C_4  and  S_5 
REMARK    3  A    between atoms: S_5  and  C_6 
REMARK    4  A    between atoms: C_6  and  C_7 
REMARK       I    between atoms: C_7  and  N_8 
REMARK    5  A    between atoms: N_8  and  C_9 
REMARK    6  A    between atoms: C_9  and  C_10 
REMARK    7  A    between atoms: C_10  and  O_11 
REMARK    8  A    between atoms: O_11  and  C_12 
REMARK    9  A    between atoms: C_21  and  C_22 
ROOT
HETATM    1  S   UNL     1      41.250 -13.386   5.340  1.00  0.00    -0.081 SA
ENDROOT
BRANCH   1   2
HETATM    2  C   UNL     1      41.399 -15.098   5.143  1.00  0.00     0.192 A 
HETATM    3  N   UNL     1      42.320 -15.711   4.335  1.00  0.00    -0.308 N 
HETATM    4  C   UNL     1      42.108 -17.067   4.493  1.00  0.00     0.165 A 
HETATM    5  N   UNL     1      41.114 -17.235   5.348  1.00  0.00    -0.128 NA
HETATM    6  N   UNL     1      40.666 -16.002   5.747  1.00  0.00    -0.122 NA
BRANCH   3   7
HETATM    7  C   UNL     1      43.362 -15.079   3.551  1.00  0.00     0.128 C 
HETATM    8  C   UNL     1      42.834 -14.388   2.304  1.00  0.00     0.027 C 
ENDBRANCH   3   7
BRANCH   4   9
HETATM    9  C   UNL     1      42.878 -18.145   3.868  1.00  0.00     0.018 A 
HETATM   10  C   UNL     1      42.661 -18.518   2.524  1.00  0.00    -0.048 A 
HETATM   11  C   UNL     1      41.656 -17.808   1.656  1.00  0.00     0.049 C 
HETATM   12  C   UNL     1      43.429 -19.554   1.964  1.00  0.00     0.007 A 
HETATM   13  C   UNL     1      44.395 -20.216   2.722  1.00  0.00     0.001 A 
HETATM   14  C   UNL     1      44.620 -19.840   4.042  1.00  0.00     0.001 A 
HETATM   15  C   UNL     1      43.872 -18.807   4.608  1.00  0.00     0.016 A 
ENDBRANCH   4   9
ENDBRANCH   1   2
BRANCH   1  16
HETATM   16  C   UNL     1      39.524 -13.282   5.903  1.00  0.00     0.185 C 
BRANCH  16  17
HETATM   17  C   UNL     1      39.328 -12.004   6.703  1.00  0.00     0.227 C 
HETATM   18  N   UNL     1      39.467 -12.149   8.069  1.00  0.00    -0.358 N 
HETATM   19  H   UNL     1      39.697 -13.055   8.456  1.00  0.00     0.162 HD
HETATM   20  O   UNL     1      39.073 -10.926   6.171  1.00  0.00    -0.273 OA
BRANCH  18  21
HETATM   21  C   UNL     1      39.384 -11.015   8.973  1.00  0.00     0.149 C 
BRANCH  21  22
HETATM   22  C   UNL     1      40.705 -10.696   9.680  1.00  0.00     0.195 C 
BRANCH  22  23
HETATM   23  O   UNL     1      40.684 -11.354  10.949  1.00  0.00    -0.350 OA
BRANCH  23  24
HETATM   24  C   UNL     1      41.445 -10.826  11.952  1.00  0.00     0.068 A 
HETATM   25  C   UNL     1      41.088 -10.736  13.299  1.00  0.00     0.037 A 
HETATM   26  C   UNL     1      41.980 -10.181  14.225  1.00  0.00     0.003 A 
HETATM   27  C   UNL     1      43.226  -9.711  13.810  1.00  0.00     0.000 A 
HETATM   28  C   UNL     1      43.585  -9.796  12.467  1.00  0.00     0.003 A 
HETATM   29  C   UNL     1      42.697 -10.353  11.546  1.00  0.00     0.037 A 
ENDBRANCH  23  24
ENDBRANCH  22  23
ENDBRANCH  21  22
ENDBRANCH  18  21
ENDBRANCH  16  17
ENDBRANCH   1  16
TORSDOF 9
ENDMDL
MODEL 5
REMARK VINA RESULT:      -7.8      2.416      3.506
REMARK  9 active torsions:
REMARK  status: ('A' for Active; 'I' for Inactive)
REMARK    1  A    between atoms: C_2  and  N_3 
REMARK    2  A    between atoms: C_4  and  S_5 
REMARK    3  A    between atoms: S_5  and  C_6 
REMARK    4  A    between atoms: C_6  and  C_7 
REMARK       I    between atoms: C_7  and  N_8 
REMARK    5  A    between atoms: N_8  and  C_9 
REMARK    6  A    between atoms: C_9  and  C_10 
REMARK    7  A    between atoms: C_10  and  O_11 
REMARK    8  A    between atoms: O_11  and  C_12 
REMARK    9  A    between atoms: C_21  and  C_22 
ROOT
HETATM    1  S   UNL     1      40.663 -12.111   4.616  1.00  0.00    -0.081 SA
ENDROOT
BRANCH   1   2
HETATM    2  C   UNL     1      40.745 -13.646   3.823  1.00  0.00     0.192 A 
HETATM    3  N   UNL     1      41.881 -14.403   3.709  1.00  0.00    -0.308 N 
HETATM    4  C   UNL     1      41.498 -15.547   3.034  1.00  0.00     0.165 A 
HETATM    5  N   UNL     1      40.207 -15.458   2.768  1.00  0.00    -0.128 NA
HETATM    6  N   UNL     1      39.739 -14.264   3.254  1.00  0.00    -0.122 NA
BRANCH   3   7
HETATM    7  C   UNL     1      43.190 -14.115   4.260  1.00  0.00     0.128 C 
HETATM    8  C   UNL     1      43.351 -14.589   5.696  1.00  0.00     0.027 C 
ENDBRANCH   3   7
BRANCH   4   9
HETATM    9  C   UNL     1      42.354 -16.690   2.709  1.00  0.00     0.018 A 
HETATM   10  C   UNL     1      42.460 -17.798   3.579  1.00  0.00    -0.048 A 
HETATM   11  C   UNL     1      41.678 -17.877   4.862  1.00  0.00     0.049 C 
HETATM   12  C   UNL     1      43.289 -18.876   3.221  1.00  0.00     0.007 A 
HETATM   13  C   UNL     1      44.005 -18.860   2.024  1.00  0.00     0.001 A 
HETATM   14  C   UNL     1      43.890 -17.776   1.161  1.00  0.00     0.001 A 
HETATM   15  C   UNL     1      43.064 -16.702   1.497  1.00  0.00     0.016 A 
ENDBRANCH   4   9
ENDBRANCH   1   2
BRANCH   1  16
HETATM   16  C   UNL     1      39.863 -12.602   6.173  1.00  0.00     0.185 C 
BRANCH  16  17
HETATM   17  C   UNL     1      39.934 -11.451   7.164  1.00  0.00     0.227 C 
HETATM   18  N   UNL     1      41.060 -11.443   7.961  1.00  0.00    -0.358 N 
HETATM   19  H   UNL     1      41.762 -12.163   7.845  1.00  0.00     0.162 HD
HETATM   20  O   UNL     1      39.058 -10.592   7.241  1.00  0.00    -0.273 OA
BRANCH  18  21
HETATM   21  C   UNL     1      41.320 -10.375   8.911  1.00  0.00     0.149 C 
BRANCH  21  22
HETATM   22  C   UNL     1      42.739 -10.398   9.486  1.00  0.00     0.195 C 
BRANCH  22  23
HETATM   23  O   UNL     1      42.750 -11.330  10.571  1.00  0.00    -0.350 OA
BRANCH  23  24
HETATM   24  C   UNL     1      42.567 -10.840  11.833  1.00  0.00     0.068 A 
HETATM   25  C   UNL     1      41.494 -11.121  12.680  1.00  0.00     0.037 A 
HETATM   26  C   UNL     1      41.446 -10.557  13.961  1.00  0.00     0.003 A 
HETATM   27  C   UNL     1      42.464  -9.709  14.397  1.00  0.00     0.000 A 
HETATM   28  C   UNL     1      43.535  -9.424  13.554  1.00  0.00     0.003 A 
HETATM   29  C   UNL     1      43.583  -9.989  12.280  1.00  0.00     0.037 A 
ENDBRANCH  23  24
ENDBRANCH  22  23
ENDBRANCH  21  22
ENDBRANCH  18  21
ENDBRANCH  16  17
ENDBRANCH   1  16
TORSDOF 9
ENDMDL
MODEL 6
REMARK VINA RESULT:      -7.8      2.173      3.057
REMARK  9 active torsions:
REMARK  status: ('A' for Active; 'I' for Inactive)
REMARK    1  A    between atoms: C_2  and  N_3 
REMARK    2  A    between atoms: C_4  and  S_5 
REMARK    3  A    between atoms: S_5  and  C_6 
REMARK    4  A    between atoms: C_6  and  C_7 
REMARK       I    between atoms: C_7  and  N_8 
REMARK    5  A    between atoms: N_8  and  C_9 
REMARK    6  A    between atoms: C_9  and  C_10 
REMARK    7  A    between atoms: C_10  and  O_11 
REMARK    8  A    between atoms: O_11  and  C_12 
REMARK    9  A    between atoms: C_21  and  C_22 
ROOT
HETATM    1  S   UNL     1      41.132 -14.086   4.592  1.00  0.00    -0.081 SA
ENDROOT
BRANCH   1   2
HETATM    2  C   UNL     1      41.478 -15.780   4.642  1.00  0.00     0.192 A 
HETATM    3  N   UNL     1      42.370 -16.417   3.820  1.00  0.00    -0.308 N 
HETATM    4  C   UNL     1      42.354 -17.742   4.212  1.00  0.00     0.165 A 
HETATM    5  N   UNL     1      41.496 -17.870   5.209  1.00  0.00    -0.128 NA
HETATM    6  N   UNL     1      40.942 -16.643   5.471  1.00  0.00    -0.122 NA
BRANCH   3   7
HETATM    7  C   UNL     1      43.223 -15.817   2.814  1.00  0.00     0.128 C 
HETATM    8  C   UNL     1      42.595 -15.806   1.429  1.00  0.00     0.027 C 
ENDBRANCH   3   7
BRANCH   4   9
HETATM    9  C   UNL     1      43.179 -18.820   3.661  1.00  0.00     0.018 A 
HETATM   10  C   UNL     1      44.296 -19.322   4.364  1.00  0.00    -0.048 A 
HETATM   11  C   UNL     1      44.676 -18.803   5.725  1.00  0.00     0.049 C 
HETATM   12  C   UNL     1      45.053 -20.363   3.798  1.00  0.00     0.007 A 
HETATM   13  C   UNL     1      44.717 -20.898   2.555  1.00  0.00     0.001 A 
HETATM   14  C   UNL     1      43.608 -20.414   1.869  1.00  0.00     0.001 A 
HETATM   15  C   UNL     1      42.840 -19.388   2.422  1.00  0.00     0.016 A 
ENDBRANCH   4   9
ENDBRANCH   1   2
BRANCH   1  16
HETATM   16  C   UNL     1      39.595 -14.048   5.561  1.00  0.00     0.185 C 
BRANCH  16  17
HETATM   17  C   UNL     1      39.324 -12.626   6.027  1.00  0.00     0.227 C 
HETATM   18  N   UNL     1      39.767 -12.341   7.302  1.00  0.00    -0.358 N 
HETATM   19  H   UNL     1      40.243 -13.055   7.839  1.00  0.00     0.162 HD
HETATM   20  O   UNL     1      38.762 -11.796   5.317  1.00  0.00    -0.273 OA
BRANCH  18  21
HETATM   21  C   UNL     1      39.654 -11.010   7.874  1.00  0.00     0.149 C 
BRANCH  21  22
HETATM   22  C   UNL     1      40.006 -10.951   9.364  1.00  0.00     0.195 C 
BRANCH  22  23
HETATM   23  O   UNL     1      40.919  -9.867   9.549  1.00  0.00    -0.350 OA
BRANCH  23  24
HETATM   24  C   UNL     1      42.141 -10.149  10.089  1.00  0.00     0.068 A 
HETATM   25  C   UNL     1      42.582  -9.793  11.365  1.00  0.00     0.037 A 
HETATM   26  C   UNL     1      43.862 -10.164  11.793  1.00  0.00     0.003 A 
HETATM   27  C   UNL     1      44.706 -10.885  10.949  1.00  0.00     0.000 A 
HETATM   28  C   UNL     1      44.272 -11.240   9.674  1.00  0.00     0.003 A 
HETATM   29  C   UNL     1      42.995 -10.873   9.250  1.00  0.00     0.037 A 
ENDBRANCH  23  24
ENDBRANCH  22  23
ENDBRANCH  21  22
ENDBRANCH  18  21
ENDBRANCH  16  17
ENDBRANCH   1  16
TORSDOF 9
ENDMDL
MODEL 7
REMARK VINA RESULT:      -7.8      3.980      7.789
REMARK  9 active torsions:
REMARK  status: ('A' for Active; 'I' for Inactive)
REMARK    1  A    between atoms: C_2  and  N_3 
REMARK    2  A    between atoms: C_4  and  S_5 
REMARK    3  A    between atoms: S_5  and  C_6 
REMARK    4  A    between atoms: C_6  and  C_7 
REMARK       I    between atoms: C_7  and  N_8 
REMARK    5  A    between atoms: N_8  and  C_9 
REMARK    6  A    between atoms: C_9  and  C_10 
REMARK    7  A    between atoms: C_10  and  O_11 
REMARK    8  A    between atoms: O_11  and  C_12 
REMARK    9  A    between atoms: C_21  and  C_22 
ROOT
HETATM    1  S   UNL     1      41.485 -14.602   4.481  1.00  0.00    -0.081 SA
ENDROOT
BRANCH   1   2
HETATM    2  C   UNL     1      42.510 -15.770   3.722  1.00  0.00     0.192 A 
HETATM    3  N   UNL     1      42.482 -17.115   3.982  1.00  0.00    -0.308 N 
HETATM    4  C   UNL     1      43.435 -17.674   3.151  1.00  0.00     0.165 A 
HETATM    5  N   UNL     1      43.990 -16.703   2.445  1.00  0.00    -0.128 NA
HETATM    6  N   UNL     1      43.416 -15.512   2.810  1.00  0.00    -0.122 NA
BRANCH   3   7
HETATM    7  C   UNL     1      41.581 -17.822   4.870  1.00  0.00     0.128 C 
HETATM    8  C   UNL     1      41.919 -17.628   6.340  1.00  0.00     0.027 C 
ENDBRANCH   3   7
BRANCH   4   9
HETATM    9  C   UNL     1      43.750 -19.098   3.025  1.00  0.00     0.018 A 
HETATM   10  C   UNL     1      44.520 -19.768   4.001  1.00  0.00    -0.048 A 
HETATM   11  C   UNL     1      45.026 -19.065   5.232  1.00  0.00     0.049 C 
HETATM   12  C   UNL     1      44.791 -21.139   3.841  1.00  0.00     0.007 A 
HETATM   13  C   UNL     1      44.313 -21.838   2.733  1.00  0.00     0.001 A 
HETATM   14  C   UNL     1      43.542 -21.181   1.779  1.00  0.00     0.001 A 
HETATM   15  C   UNL     1      43.256 -19.824   1.928  1.00  0.00     0.016 A 
ENDBRANCH   4   9
ENDBRANCH   1   2
BRANCH   1  16
HETATM   16  C   UNL     1      42.370 -13.074   4.044  1.00  0.00     0.185 C 
BRANCH  16  17
HETATM   17  C   UNL     1      41.677 -12.406   2.868  1.00  0.00     0.227 C 
HETATM   18  N   UNL     1      42.023 -12.909   1.630  1.00  0.00    -0.358 N 
HETATM   19  H   UNL     1      42.683 -13.674   1.566  1.00  0.00     0.162 HD
HETATM   20  O   UNL     1      40.865 -11.494   3.011  1.00  0.00    -0.273 OA
BRANCH  18  21
HETATM   21  C   UNL     1      41.400 -12.433   0.407  1.00  0.00     0.149 C 
BRANCH  21  22
HETATM   22  C   UNL     1      40.366 -13.404  -0.172  1.00  0.00     0.195 C 
BRANCH  22  23
HETATM   23  O   UNL     1      40.915 -13.956  -1.370  1.00  0.00    -0.350 OA
BRANCH  23  24
HETATM   24  C   UNL     1      40.057 -14.556  -2.247  1.00  0.00     0.068 A 
HETATM   25  C   UNL     1      40.352 -15.633  -3.085  1.00  0.00     0.037 A 
HETATM   26  C   UNL     1      39.363 -16.159  -3.926  1.00  0.00     0.003 A 
HETATM   27  C   UNL     1      38.081 -15.609  -3.936  1.00  0.00     0.000 A 
HETATM   28  C   UNL     1      37.783 -14.533  -3.103  1.00  0.00     0.003 A 
HETATM   29  C   UNL     1      38.768 -14.013  -2.264  1.00  0.00     0.037 A 
ENDBRANCH  23  24
ENDBRANCH  22  23
ENDBRANCH  21  22
ENDBRANCH  18  21
ENDBRANCH  16  17
ENDBRANCH   1  16
TORSDOF 9
ENDMDL
MODEL 8
REMARK VINA RESULT:      -7.7      2.382      3.713
REMARK  9 active torsions:
REMARK  status: ('A' for Active; 'I' for Inactive)
REMARK    1  A    between atoms: C_2  and  N_3 
REMARK    2  A    between atoms: C_4  and  S_5 
REMARK    3  A    between atoms: S_5  and  C_6 
REMARK    4  A    between atoms: C_6  and  C_7 
REMARK       I    between atoms: C_7  and  N_8 
REMARK    5  A    between atoms: N_8  and  C_9 
REMARK    6  A    between atoms: C_9  and  C_10 
REMARK    7  A    between atoms: C_10  and  O_11 
REMARK    8  A    between atoms: O_11  and  C_12 
REMARK    9  A    between atoms: C_21  and  C_22 
ROOT
HETATM    1  S   UNL     1      41.200 -13.093   5.614  1.00  0.00    -0.081 SA
ENDROOT
BRANCH   1   2
HETATM    2  C   UNL     1      41.313 -14.797   5.336  1.00  0.00     0.192 A 
HETATM    3  N   UNL     1      42.224 -15.390   4.502  1.00  0.00    -0.308 N 
HETATM    4  C   UNL     1      41.982 -16.748   4.595  1.00  0.00     0.165 A 
HETATM    5  N   UNL     1      40.981 -16.934   5.438  1.00  0.00    -0.128 NA
HETATM    6  N   UNL     1      40.558 -15.711   5.894  1.00  0.00    -0.122 NA
BRANCH   3   7
HETATM    7  C   UNL     1      43.282 -14.744   3.752  1.00  0.00     0.128 C 
HETATM    8  C   UNL     1      42.790 -14.086   2.472  1.00  0.00     0.027 C 
ENDBRANCH   3   7
BRANCH   4   9
HETATM    9  C   UNL     1      42.731 -17.811   3.921  1.00  0.00     0.018 A 
HETATM   10  C   UNL     1      42.451 -18.173   2.585  1.00  0.00    -0.048 A 
HETATM   11  C   UNL     1      41.397 -17.465   1.776  1.00  0.00     0.049 C 
HETATM   12  C   UNL     1      43.201 -19.195   1.978  1.00  0.00     0.007 A 
HETATM   13  C   UNL     1      44.210 -19.854   2.680  1.00  0.00     0.001 A 
HETATM   14  C   UNL     1      44.496 -19.489   3.991  1.00  0.00     0.001 A 
HETATM   15  C   UNL     1      43.767 -18.469   4.605  1.00  0.00     0.016 A 
ENDBRANCH   4   9
ENDBRANCH   1   2
BRANCH   1  16
HETATM   16  C   UNL     1      39.530 -12.999   6.326  1.00  0.00     0.185 C 
BRANCH  16  17
HETATM   17  C   UNL     1      39.398 -11.725   7.144  1.00  0.00     0.227 C 
HETATM   18  N   UNL     1      39.513 -11.899   8.509  1.00  0.00    -0.358 N 
HETATM   19  H   UNL     1      39.686 -12.823   8.884  1.00  0.00     0.162 HD
HETATM   20  O   UNL     1      39.212 -10.626   6.628  1.00  0.00    -0.273 OA
BRANCH  18  21
HETATM   21  C   UNL     1      39.485 -10.776   9.430  1.00  0.00     0.149 C 
BRANCH  21  22
HETATM   22  C   UNL     1      40.694 -10.724  10.369  1.00  0.00     0.195 C 
BRANCH  22  23
HETATM   23  O   UNL     1      41.760 -10.083   9.665  1.00  0.00    -0.350 OA
BRANCH  23  24
HETATM   24  C   UNL     1      42.981 -10.694   9.664  1.00  0.00     0.068 A 
HETATM   25  C   UNL     1      43.468 -11.565   8.689  1.00  0.00     0.037 A 
HETATM   26  C   UNL     1      44.753 -12.108   8.811  1.00  0.00     0.003 A 
HETATM   27  C   UNL     1      45.552 -11.787   9.909  1.00  0.00     0.000 A 
HETATM   28  C   UNL     1      45.070 -10.920  10.886  1.00  0.00     0.003 A 
HETATM   29  C   UNL     1      43.791 -10.377  10.760  1.00  0.00     0.037 A 
ENDBRANCH  23  24
ENDBRANCH  22  23
ENDBRANCH  21  22
ENDBRANCH  18  21
ENDBRANCH  16  17
ENDBRANCH   1  16
TORSDOF 9
ENDMDL
MODEL 9
REMARK VINA RESULT:      -7.7      2.492      3.571
REMARK  9 active torsions:
REMARK  status: ('A' for Active; 'I' for Inactive)
REMARK    1  A    between atoms: C_2  and  N_3 
REMARK    2  A    between atoms: C_4  and  S_5 
REMARK    3  A    between atoms: S_5  and  C_6 
REMARK    4  A    between atoms: C_6  and  C_7 
REMARK       I    between atoms: C_7  and  N_8 
REMARK    5  A    between atoms: N_8  and  C_9 
REMARK    6  A    between atoms: C_9  and  C_10 
REMARK    7  A    between atoms: C_10  and  O_11 
REMARK    8  A    between atoms: O_11  and  C_12 
REMARK    9  A    between atoms: C_21  and  C_22 
ROOT
HETATM    1  S   UNL     1      40.854 -12.275   3.986  1.00  0.00    -0.081 SA
ENDROOT
BRANCH   1   2
HETATM    2  C   UNL     1      42.070 -13.467   3.683  1.00  0.00     0.192 A 
HETATM    3  N   UNL     1      41.915 -14.810   3.903  1.00  0.00    -0.308 N 
HETATM    4  C   UNL     1      43.105 -15.391   3.508  1.00  0.00     0.165 A 
HETATM    5  N   UNL     1      43.911 -14.434   3.081  1.00  0.00    -0.128 NA
HETATM    6  N   UNL     1      43.265 -13.230   3.199  1.00  0.00    -0.122 NA
BRANCH   3   7
HETATM    7  C   UNL     1      40.724 -15.495   4.364  1.00  0.00     0.128 C 
HETATM    8  C   UNL     1      40.653 -15.614   5.879  1.00  0.00     0.027 C 
ENDBRANCH   3   7
BRANCH   4   9
HETATM    9  C   UNL     1      43.415 -16.822   3.508  1.00  0.00     0.018 A 
HETATM   10  C   UNL     1      43.325 -17.593   2.328  1.00  0.00    -0.048 A 
HETATM   11  C   UNL     1      42.941 -16.980   1.008  1.00  0.00     0.049 C 
HETATM   12  C   UNL     1      43.639 -18.963   2.376  1.00  0.00     0.007 A 
HETATM   13  C   UNL     1      44.033 -19.565   3.571  1.00  0.00     0.001 A 
HETATM   14  C   UNL     1      44.136 -18.803   4.730  1.00  0.00     0.001 A 
HETATM   15  C   UNL     1      43.837 -17.440   4.697  1.00  0.00     0.016 A 
ENDBRANCH   4   9
ENDBRANCH   1   2
BRANCH   1  16
HETATM   16  C   UNL     1      41.333 -11.753   5.660  1.00  0.00     0.185 C 
BRANCH  16  17
HETATM   17  C   UNL     1      40.124 -11.824   6.579  1.00  0.00     0.227 C 
HETATM   18  N   UNL     1      40.373 -11.472   7.891  1.00  0.00    -0.358 N 
HETATM   19  H   UNL     1      41.303 -11.183   8.165  1.00  0.00     0.162 HD
HETATM   20  O   UNL     1      39.012 -12.160   6.180  1.00  0.00    -0.273 OA
BRANCH  18  21
HETATM   21  C   UNL     1      39.313 -11.414   8.883  1.00  0.00     0.149 C 
BRANCH  21  22
HETATM   22  C   UNL     1      39.659 -10.549  10.099  1.00  0.00     0.195 C 
BRANCH  22  23
HETATM   23  O   UNL     1      40.336 -11.382  11.043  1.00  0.00    -0.350 OA
BRANCH  23  24
HETATM   24  C   UNL     1      41.381 -10.842  11.736  1.00  0.00     0.068 A 
HETATM   25  C   UNL     1      42.518 -10.248  11.184  1.00  0.00     0.037 A 
HETATM   26  C   UNL     1      43.509  -9.720  12.020  1.00  0.00     0.003 A 
HETATM   27  C   UNL     1      43.370  -9.786  13.407  1.00  0.00     0.000 A 
HETATM   28  C   UNL     1      42.239 -10.379  13.961  1.00  0.00     0.003 A 
HETATM   29  C   UNL     1      41.252 -10.902  13.127  1.00  0.00     0.037 A 
ENDBRANCH  23  24
ENDBRANCH  22  23
ENDBRANCH  21  22
ENDBRANCH  18  21
ENDBRANCH  16  17
ENDBRANCH   1  16
TORSDOF 9
ENDMDL
MODEL 10
REMARK VINA RESULT:      -7.6      4.068      7.697
REMARK  9 active torsions:
REMARK  status: ('A' for Active; 'I' for Inactive)
REMARK    1  A    between atoms: C_2  and  N_3 
REMARK    2  A    between atoms: C_4  and  S_5 
REMARK    3  A    between atoms: S_5  and  C_6 
REMARK    4  A    between atoms: C_6  and  C_7 
REMARK       I    between atoms: C_7  and  N_8 
REMARK    5  A    between atoms: N_8  and  C_9 
REMARK    6  A    between atoms: C_9  and  C_10 
REMARK    7  A    between atoms: C_10  and  O_11 
REMARK    8  A    between atoms: O_11  and  C_12 
REMARK    9  A    between atoms: C_21  and  C_22 
ROOT
HETATM    1  S   UNL     1      42.627 -13.613   3.151  1.00  0.00    -0.081 SA
ENDROOT
BRANCH   1   2
HETATM    2  C   UNL     1      42.090 -13.403   1.520  1.00  0.00     0.192 A 
HETATM    3  N   UNL     1      41.299 -14.291   0.841  1.00  0.00    -0.308 N 
HETATM    4  C   UNL     1      41.092 -13.728  -0.404  1.00  0.00     0.165 A 
HETATM    5  N   UNL     1      41.733 -12.572  -0.448  1.00  0.00    -0.128 NA
HETATM    6  N   UNL     1      42.364 -12.374   0.754  1.00  0.00    -0.122 NA
BRANCH   3   7
HETATM    7  C   UNL     1      40.718 -15.519   1.347  1.00  0.00     0.128 C 
HETATM    8  C   UNL     1      39.304 -15.337   1.874  1.00  0.00     0.027 C 
ENDBRANCH   3   7
BRANCH   4   9
HETATM    9  C   UNL     1      40.268 -14.280  -1.481  1.00  0.00     0.018 A 
HETATM   10  C   UNL     1      38.921 -13.890  -1.648  1.00  0.00    -0.048 A 
HETATM   11  C   UNL     1      38.275 -12.866  -0.753  1.00  0.00     0.049 C 
HETATM   12  C   UNL     1      38.170 -14.442  -2.701  1.00  0.00     0.007 A 
HETATM   13  C   UNL     1      38.738 -15.368  -3.575  1.00  0.00     0.001 A 
HETATM   14  C   UNL     1      40.070 -15.742  -3.420  1.00  0.00     0.001 A 
HETATM   15  C   UNL     1      40.830 -15.195  -2.386  1.00  0.00     0.016 A 
ENDBRANCH   4   9
ENDBRANCH   1   2
BRANCH   1  16
HETATM   16  C   UNL     1      41.197 -12.932   4.044  1.00  0.00     0.185 C 
BRANCH  16  17
HETATM   17  C   UNL     1      40.665 -13.973   5.016  1.00  0.00     0.227 C 
HETATM   18  N   UNL     1      41.292 -15.201   4.950  1.00  0.00    -0.358 N 
HETATM   19  H   UNL     1      42.052 -15.341   4.297  1.00  0.00     0.162 HD
HETATM   20  O   UNL     1      39.753 -13.734   5.804  1.00  0.00    -0.273 OA
BRANCH  18  21
HETATM   21  C   UNL     1      40.955 -16.284   5.858  1.00  0.00     0.149 C 
BRANCH  21  22
HETATM   22  C   UNL     1      41.420 -17.659   5.370  1.00  0.00     0.195 C 
BRANCH  22  23
HETATM   23  O   UNL     1      42.795 -17.544   4.999  1.00  0.00    -0.350 OA
BRANCH  23  24
HETATM   24  C   UNL     1      43.331 -18.531   4.221  1.00  0.00     0.068 A 
HETATM   25  C   UNL     1      44.290 -19.464   4.616  1.00  0.00     0.037 A 
HETATM   26  C   UNL     1      44.739 -20.435   3.711  1.00  0.00     0.003 A 
HETATM   27  C   UNL     1      44.235 -20.472   2.411  1.00  0.00     0.000 A 
HETATM   28  C   UNL     1      43.280 -19.541   2.012  1.00  0.00     0.003 A 
HETATM   29  C   UNL     1      42.832 -18.577   2.915  1.00  0.00     0.037 A 
ENDBRANCH  23  24
ENDBRANCH  22  23
ENDBRANCH  21  22
ENDBRANCH  18  21
ENDBRANCH  16  17
ENDBRANCH   1  16
TORSDOF 9
ENDMDL
