MODEL 1
REMARK VINA RESULT:      -7.2      0.000      0.000
REMARK  5 active torsions:
REMARK  status: ('A' for Active; 'I' for Inactive)
REMARK    1  A    between atoms: C_8  and  C_9 
REMARK    2  A    between atoms: C_11  and  O_12 
REMARK    3  A    between atoms: C_14  and  O_15 
REMARK    4  A    between atoms: C_18  and  C_19 
REMARK    5  A    between atoms: C_22  and  O_23 
ROOT
HETATM    1  C   UNL     1      43.973 -17.543   1.018  1.00  0.00     0.070 C 
HETATM    2  C   UNL     1      44.050 -18.481   2.162  1.00  0.00     0.033 A 
HETATM    3  N   UNL     1      44.332 -19.809   1.982  1.00  0.00    -0.282 N 
HETATM    4  H   UNL     1      44.509 -20.301   1.112  1.00  0.00     0.189 HD
HETATM    5  N   UNL     1      44.394 -20.507   3.127  1.00  0.00    -0.179 NA
HETATM    6  C   UNL     1      44.121 -19.600   4.063  1.00  0.00     0.066 A 
HETATM    7  C   UNL     1      43.866 -18.317   3.525  1.00  0.00     0.001 A 
HETATM    8  C   UNL     1      43.566 -17.118   4.379  1.00  0.00     0.070 C 
HETATM    9  C   UNL     1      43.339 -17.496   5.873  1.00  0.00     0.102 C 
HETATM   10  C   UNL     1      44.261 -18.655   6.387  1.00  0.00     0.071 C 
HETATM   11  C   UNL     1      45.739 -18.250   6.470  1.00  0.00     0.047 C 
HETATM   12  C   UNL     1      44.092 -19.924   5.510  1.00  0.00     0.100 C 
ENDROOT
BRANCH   8  13
HETATM   13  C   UNL     1      42.346 -16.450   3.749  1.00  0.00    -0.046 A 
HETATM   14  C   UNL     1      42.331 -15.075   3.426  1.00  0.00     0.047 A 
HETATM   15  C   UNL     1      41.203 -14.488   2.848  1.00  0.00     0.101 A 
HETATM   16  C   UNL     1      40.084 -15.286   2.593  1.00  0.00     0.099 A 
HETATM   17  C   UNL     1      40.069 -16.637   2.906  1.00  0.00     0.040 A 
HETATM   18  C   UNL     1      41.196 -17.217   3.486  1.00  0.00     0.011 A 
BRANCH  15  19
HETATM   19  O   UNL     1      41.065 -13.170   2.496  1.00  0.00    -0.353 OA
HETATM   20  C   UNL     1      42.066 -12.630   1.639  1.00  0.00     0.210 C 
ENDBRANCH  15  19
BRANCH  16  21
HETATM   21  O   UNL     1      38.964 -14.742   2.028  1.00  0.00    -0.358 OA
HETATM   22  H   UNL     1      38.308 -14.711   2.752  1.00  0.00     0.218 HD
ENDBRANCH  16  21
ENDBRANCH   8  13
BRANCH   9  23
HETATM   23  C   UNL     1      43.438 -16.315   6.842  1.00  0.00     0.131 C 
HETATM   24  C   UNL     1      44.082 -15.019   6.429  1.00  0.00     0.091 C 
HETATM   25  O   UNL     1      43.061 -16.463   8.011  1.00  0.00    -0.298 OA
ENDBRANCH   9  23
BRANCH  10  26
HETATM   26  O   UNL     1      43.862 -19.057   7.713  1.00  0.00    -0.389 OA
HETATM   27  H   UNL     1      44.638 -19.021   8.311  1.00  0.00     0.210 HD
ENDBRANCH  10  26
TORSDOF 5
ENDMDL
MODEL 2
REMARK VINA RESULT:      -7.0      2.786      6.412
REMARK  5 active torsions:
REMARK  status: ('A' for Active; 'I' for Inactive)
REMARK    1  A    between atoms: C_8  and  C_9 
REMARK    2  A    between atoms: C_11  and  O_12 
REMARK    3  A    between atoms: C_14  and  O_15 
REMARK    4  A    between atoms: C_18  and  C_19 
REMARK    5  A    between atoms: C_22  and  O_23 
ROOT
HETATM    1  C   UNL     1      44.316 -14.810   6.302  1.00  0.00     0.070 C 
HETATM    2  C   UNL     1      43.000 -14.469   5.713  1.00  0.00     0.033 A 
HETATM    3  N   UNL     1      42.242 -13.438   6.200  1.00  0.00    -0.282 N 
HETATM    4  H   UNL     1      42.453 -12.814   6.972  1.00  0.00     0.189 HD
HETATM    5  N   UNL     1      41.094 -13.249   5.529  1.00  0.00    -0.179 NA
HETATM    6  C   UNL     1      41.113 -14.203   4.601  1.00  0.00     0.066 A 
HETATM    7  C   UNL     1      42.263 -15.021   4.679  1.00  0.00     0.001 A 
HETATM    8  C   UNL     1      42.531 -16.148   3.720  1.00  0.00     0.070 C 
HETATM    9  C   UNL     1      41.308 -16.450   2.805  1.00  0.00     0.102 C 
HETATM   10  C   UNL     1      40.508 -15.177   2.364  1.00  0.00     0.071 C 
HETATM   11  C   UNL     1      41.299 -14.274   1.407  1.00  0.00     0.047 C 
HETATM   12  C   UNL     1      40.029 -14.371   3.602  1.00  0.00     0.100 C 
ENDROOT
BRANCH   8  13
HETATM   13  C   UNL     1      42.931 -17.343   4.581  1.00  0.00    -0.046 A 
HETATM   14  C   UNL     1      43.930 -18.256   4.173  1.00  0.00     0.047 A 
HETATM   15  C   UNL     1      44.280 -19.342   4.979  1.00  0.00     0.101 A 
HETATM   16  C   UNL     1      43.625 -19.511   6.202  1.00  0.00     0.099 A 
HETATM   17  C   UNL     1      42.637 -18.634   6.625  1.00  0.00     0.040 A 
HETATM   18  C   UNL     1      42.289 -17.555   5.814  1.00  0.00     0.011 A 
BRANCH  15  19
HETATM   19  O   UNL     1      45.223 -20.294   4.692  1.00  0.00    -0.353 OA
HETATM   20  C   UNL     1      44.876 -21.260   3.705  1.00  0.00     0.210 C 
ENDBRANCH  15  19
BRANCH  16  21
HETATM   21  O   UNL     1      43.944 -20.563   7.016  1.00  0.00    -0.358 OA
HETATM   22  H   UNL     1      44.702 -20.997   6.578  1.00  0.00     0.218 HD
ENDBRANCH  16  21
ENDBRANCH   8  13
BRANCH   9  23
HETATM   23  C   UNL     1      41.644 -17.280   1.563  1.00  0.00     0.131 C 
HETATM   24  C   UNL     1      43.014 -17.238   0.943  1.00  0.00     0.091 C 
HETATM   25  O   UNL     1      40.745 -17.926   1.010  1.00  0.00    -0.298 OA
ENDBRANCH   9  23
BRANCH  10  26
HETATM   26  O   UNL     1      39.301 -15.561   1.675  1.00  0.00    -0.389 OA
HETATM   27  H   UNL     1      38.543 -15.060   2.044  1.00  0.00     0.210 HD
ENDBRANCH  10  26
TORSDOF 5
ENDMDL
MODEL 3
REMARK VINA RESULT:      -6.7      2.628      4.053
REMARK  5 active torsions:
REMARK  status: ('A' for Active; 'I' for Inactive)
REMARK    1  A    between atoms: C_8  and  C_9 
REMARK    2  A    between atoms: C_11  and  O_12 
REMARK    3  A    between atoms: C_14  and  O_15 
REMARK    4  A    between atoms: C_18  and  C_19 
REMARK    5  A    between atoms: C_22  and  O_23 
ROOT
HETATM    1  C   UNL     1      40.592 -16.336   6.143  1.00  0.00     0.070 C 
HETATM    2  C   UNL     1      41.888 -16.963   6.492  1.00  0.00     0.033 A 
HETATM    3  N   UNL     1      42.418 -16.861   7.751  1.00  0.00    -0.282 N 
HETATM    4  H   UNL     1      42.034 -16.377   8.556  1.00  0.00     0.189 HD
HETATM    5  N   UNL     1      43.581 -17.515   7.901  1.00  0.00    -0.179 NA
HETATM    6  C   UNL     1      43.808 -18.031   6.695  1.00  0.00     0.066 A 
HETATM    7  C   UNL     1      42.803 -17.699   5.758  1.00  0.00     0.001 A 
HETATM    8  C   UNL     1      42.816 -18.188   4.337  1.00  0.00     0.070 C 
HETATM    9  C   UNL     1      44.156 -18.888   3.964  1.00  0.00     0.102 C 
HETATM   10  C   UNL     1      44.781 -19.735   5.125  1.00  0.00     0.071 C 
HETATM   11  C   UNL     1      43.953 -20.982   5.468  1.00  0.00     0.047 C 
HETATM   12  C   UNL     1      44.998 -18.862   6.390  1.00  0.00     0.100 C 
ENDROOT
BRANCH   8  13
HETATM   13  C   UNL     1      42.531 -16.965   3.470  1.00  0.00    -0.046 A 
HETATM   14  C   UNL     1      41.348 -16.850   2.706  1.00  0.00     0.047 A 
HETATM   15  C   UNL     1      41.108 -15.719   1.922  1.00  0.00     0.101 A 
HETATM   16  C   UNL     1      42.061 -14.697   1.905  1.00  0.00     0.099 A 
HETATM   17  C   UNL     1      43.234 -14.785   2.640  1.00  0.00     0.040 A 
HETATM   18  C   UNL     1      43.470 -15.918   3.418  1.00  0.00     0.011 A 
BRANCH  15  19
HETATM   19  O   UNL     1      40.007 -15.495   1.137  1.00  0.00    -0.353 OA
HETATM   20  C   UNL     1      38.830 -15.046   1.802  1.00  0.00     0.210 C 
ENDBRANCH  15  19
BRANCH  16  21
HETATM   21  O   UNL     1      41.858 -13.576   1.149  1.00  0.00    -0.358 OA
HETATM   22  H   UNL     1      42.651 -13.026   1.297  1.00  0.00     0.218 HD
ENDBRANCH  16  21
ENDBRANCH   8  13
BRANCH   9  23
HETATM   23  C   UNL     1      44.084 -19.752   2.702  1.00  0.00     0.131 C 
HETATM   24  C   UNL     1      42.774 -20.013   2.009  1.00  0.00     0.091 C 
HETATM   25  O   UNL     1      45.109 -20.316   2.299  1.00  0.00    -0.298 OA
ENDBRANCH   9  23
BRANCH  10  26
HETATM   26  O   UNL     1      46.096 -20.195   4.754  1.00  0.00    -0.389 OA
HETATM   27  H   UNL     1      46.771 -19.691   5.257  1.00  0.00     0.210 HD
ENDBRANCH  10  26
TORSDOF 5
ENDMDL
MODEL 4
REMARK VINA RESULT:      -6.7      2.575      4.627
REMARK  5 active torsions:
REMARK  status: ('A' for Active; 'I' for Inactive)
REMARK    1  A    between atoms: C_8  and  C_9 
REMARK    2  A    between atoms: C_11  and  O_12 
REMARK    3  A    between atoms: C_14  and  O_15 
REMARK    4  A    between atoms: C_18  and  C_19 
REMARK    5  A    between atoms: C_22  and  O_23 
ROOT
HETATM    1  C   UNL     1      42.374 -17.675   7.234  1.00  0.00     0.070 C 
HETATM    2  C   UNL     1      43.162 -18.055   6.038  1.00  0.00     0.033 A 
HETATM    3  N   UNL     1      44.217 -18.925   6.122  1.00  0.00    -0.282 N 
HETATM    4  H   UNL     1      44.583 -19.390   6.946  1.00  0.00     0.189 HD
HETATM    5  N   UNL     1      44.797 -19.184   4.939  1.00  0.00    -0.179 NA
HETATM    6  C   UNL     1      44.103 -18.439   4.080  1.00  0.00     0.066 A 
HETATM    7  C   UNL     1      43.084 -17.685   4.707  1.00  0.00     0.001 A 
HETATM    8  C   UNL     1      42.144 -16.792   3.947  1.00  0.00     0.070 C 
HETATM    9  C   UNL     1      42.568 -16.615   2.458  1.00  0.00     0.102 C 
HETATM   10  C   UNL     1      43.172 -17.906   1.807  1.00  0.00     0.071 C 
HETATM   11  C   UNL     1      42.137 -19.025   1.625  1.00  0.00     0.047 C 
HETATM   12  C   UNL     1      44.389 -18.418   2.625  1.00  0.00     0.100 C 
ENDROOT
BRANCH   8  13
HETATM   13  C   UNL     1      42.114 -15.470   4.710  1.00  0.00    -0.046 A 
HETATM   14  C   UNL     1      40.906 -14.903   5.173  1.00  0.00     0.047 A 
HETATM   15  C   UNL     1      40.904 -13.693   5.871  1.00  0.00     0.101 A 
HETATM   16  C   UNL     1      42.122 -13.050   6.107  1.00  0.00     0.099 A 
HETATM   17  C   UNL     1      43.323 -13.581   5.659  1.00  0.00     0.040 A 
HETATM   18  C   UNL     1      43.318 -14.786   4.959  1.00  0.00     0.011 A 
BRANCH  15  19
HETATM   19  O   UNL     1      39.802 -13.042   6.364  1.00  0.00    -0.353 OA
HETATM   20  C   UNL     1      39.022 -12.308   5.426  1.00  0.00     0.210 C 
ENDBRANCH  15  19
BRANCH  16  21
HETATM   21  O   UNL     1      42.156 -11.864   6.788  1.00  0.00    -0.358 OA
HETATM   22  H   UNL     1      41.609 -11.254   6.256  1.00  0.00     0.218 HD
ENDBRANCH  16  21
ENDBRANCH   8  13
BRANCH   9  23
HETATM   23  C   UNL     1      41.461 -16.072   1.551  1.00  0.00     0.131 C 
HETATM   24  C   UNL     1      40.008 -16.239   1.907  1.00  0.00     0.091 C 
HETATM   25  O   UNL     1      41.767 -15.568   0.463  1.00  0.00    -0.298 OA
ENDBRANCH   9  23
BRANCH  10  26
HETATM   26  O   UNL     1      43.697 -17.604   0.499  1.00  0.00    -0.389 OA
HETATM   27  H   UNL     1      44.370 -18.276   0.256  1.00  0.00     0.210 HD
ENDBRANCH  10  26
TORSDOF 5
ENDMDL
MODEL 5
REMARK VINA RESULT:      -6.5      4.308      6.260
REMARK  5 active torsions:
REMARK  status: ('A' for Active; 'I' for Inactive)
REMARK    1  A    between atoms: C_8  and  C_9 
REMARK    2  A    between atoms: C_11  and  O_12 
REMARK    3  A    between atoms: C_14  and  O_15 
REMARK    4  A    between atoms: C_18  and  C_19 
REMARK    5  A    between atoms: C_22  and  O_23 
ROOT
HETATM    1  C   UNL     1      37.991 -13.680   0.374  1.00  0.00     0.070 C 
HETATM    2  C   UNL     1      38.858 -13.476   1.557  1.00  0.00     0.033 A 
HETATM    3  N   UNL     1      38.553 -12.549   2.518  1.00  0.00    -0.282 N 
HETATM    4  H   UNL     1      37.759 -11.918   2.552  1.00  0.00     0.189 HD
HETATM    5  N   UNL     1      39.429 -12.519   3.535  1.00  0.00    -0.179 NA
HETATM    6  C   UNL     1      40.330 -13.440   3.200  1.00  0.00     0.066 A 
HETATM    7  C   UNL     1      40.049 -14.056   1.959  1.00  0.00     0.001 A 
HETATM    8  C   UNL     1      40.901 -15.150   1.379  1.00  0.00     0.070 C 
HETATM    9  C   UNL     1      42.226 -15.353   2.171  1.00  0.00     0.102 C 
HETATM   10  C   UNL     1      42.082 -15.166   3.720  1.00  0.00     0.071 C 
HETATM   11  C   UNL     1      41.244 -16.270   4.380  1.00  0.00     0.047 C 
HETATM   12  C   UNL     1      41.498 -13.767   4.055  1.00  0.00     0.100 C 
ENDROOT
BRANCH   8  13
HETATM   13  C   UNL     1      41.139 -14.766  -0.079  1.00  0.00    -0.046 A 
HETATM   14  C   UNL     1      40.737 -15.600  -1.146  1.00  0.00     0.047 A 
HETATM   15  C   UNL     1      40.965 -15.225  -2.473  1.00  0.00     0.101 A 
HETATM   16  C   UNL     1      41.599 -14.007  -2.729  1.00  0.00     0.099 A 
HETATM   17  C   UNL     1      42.010 -13.171  -1.701  1.00  0.00     0.040 A 
HETATM   18  C   UNL     1      41.784 -13.552  -0.379  1.00  0.00     0.011 A 
BRANCH  15  19
HETATM   19  O   UNL     1      40.628 -15.947  -3.589  1.00  0.00    -0.353 OA
HETATM   20  C   UNL     1      39.250 -15.964  -3.946  1.00  0.00     0.210 C 
ENDBRANCH  15  19
BRANCH  16  21
HETATM   21  O   UNL     1      41.837 -13.610  -4.016  1.00  0.00    -0.358 OA
HETATM   22  H   UNL     1      42.722 -13.965  -4.228  1.00  0.00     0.218 HD
ENDBRANCH  16  21
ENDBRANCH   8  13
BRANCH   9  23
HETATM   23  C   UNL     1      42.926 -16.686   1.894  1.00  0.00     0.131 C 
HETATM   24  C   UNL     1      42.140 -17.923   1.554  1.00  0.00     0.091 C 
HETATM   25  O   UNL     1      44.152 -16.764   2.042  1.00  0.00    -0.298 OA
ENDBRANCH   9  23
BRANCH  10  26
HETATM   26  O   UNL     1      43.379 -15.193   4.348  1.00  0.00    -0.389 OA
HETATM   27  H   UNL     1      43.751 -16.099   4.287  1.00  0.00     0.210 HD
ENDBRANCH  10  26
TORSDOF 5
ENDMDL
MODEL 6
REMARK VINA RESULT:      -6.5      2.395      5.048
REMARK  5 active torsions:
REMARK  status: ('A' for Active; 'I' for Inactive)
REMARK    1  A    between atoms: C_8  and  C_9 
REMARK    2  A    between atoms: C_11  and  O_12 
REMARK    3  A    between atoms: C_14  and  O_15 
REMARK    4  A    between atoms: C_18  and  C_19 
REMARK    5  A    between atoms: C_22  and  O_23 
ROOT
HETATM    1  C   UNL     1      41.720 -17.603   6.658  1.00  0.00     0.070 C 
HETATM    2  C   UNL     1      42.339 -17.894   5.343  1.00  0.00     0.033 A 
HETATM    3  N   UNL     1      43.254 -18.901   5.188  1.00  0.00    -0.282 N 
HETATM    4  H   UNL     1      43.614 -19.535   5.894  1.00  0.00     0.189 HD
HETATM    5  N   UNL     1      43.688 -19.046   3.926  1.00  0.00    -0.179 NA
HETATM    6  C   UNL     1      43.045 -18.088   3.262  1.00  0.00     0.066 A 
HETATM    7  C   UNL     1      42.207 -17.311   4.094  1.00  0.00     0.001 A 
HETATM    8  C   UNL     1      41.352 -16.189   3.575  1.00  0.00     0.070 C 
HETATM    9  C   UNL     1      41.671 -15.839   2.091  1.00  0.00     0.102 C 
HETATM   10  C   UNL     1      42.018 -17.081   1.201  1.00  0.00     0.071 C 
HETATM   11  C   UNL     1      40.814 -18.006   0.969  1.00  0.00     0.047 C 
HETATM   12  C   UNL     1      43.207 -17.877   1.803  1.00  0.00     0.100 C 
ENDROOT
BRANCH   8  13
HETATM   13  C   UNL     1      41.584 -15.013   4.520  1.00  0.00    -0.046 A 
HETATM   14  C   UNL     1      42.881 -14.634   4.934  1.00  0.00     0.047 A 
HETATM   15  C   UNL     1      43.068 -13.552   5.798  1.00  0.00     0.101 A 
HETATM   16  C   UNL     1      41.948 -12.847   6.247  1.00  0.00     0.099 A 
HETATM   17  C   UNL     1      40.664 -13.201   5.861  1.00  0.00     0.040 A 
HETATM   18  C   UNL     1      40.482 -14.284   5.002  1.00  0.00     0.011 A 
BRANCH  15  19
HETATM   19  O   UNL     1      44.269 -13.092   6.274  1.00  0.00    -0.353 OA
HETATM   20  C   UNL     1      45.071 -14.026   6.989  1.00  0.00     0.210 C 
ENDBRANCH  15  19
BRANCH  16  21
HETATM   21  O   UNL     1      42.096 -11.782   7.093  1.00  0.00    -0.358 OA
HETATM   22  H   UNL     1      42.726 -11.189   6.640  1.00  0.00     0.218 HD
ENDBRANCH  16  21
ENDBRANCH   8  13
BRANCH   9  23
HETATM   23  C   UNL     1      40.586 -15.015   1.393  1.00  0.00     0.131 C 
HETATM   24  C   UNL     1      39.138 -15.145   1.780  1.00  0.00     0.091 C 
HETATM   25  O   UNL     1      40.899 -14.297   0.435  1.00  0.00    -0.298 OA
ENDBRANCH   9  23
BRANCH  10  26
HETATM   26  O   UNL     1      42.471 -16.651  -0.099  1.00  0.00    -0.389 OA
HETATM   27  H   UNL     1      43.354 -16.232  -0.013  1.00  0.00     0.210 HD
ENDBRANCH  10  26
TORSDOF 5
ENDMDL
MODEL 7
REMARK VINA RESULT:      -6.4      3.152      4.197
REMARK  5 active torsions:
REMARK  status: ('A' for Active; 'I' for Inactive)
REMARK    1  A    between atoms: C_8  and  C_9 
REMARK    2  A    between atoms: C_11  and  O_12 
REMARK    3  A    between atoms: C_14  and  O_15 
REMARK    4  A    between atoms: C_18  and  C_19 
REMARK    5  A    between atoms: C_22  and  O_23 
ROOT
HETATM    1  C   UNL     1      41.885 -12.754   2.218  1.00  0.00     0.070 C 
HETATM    2  C   UNL     1      41.706 -14.222   2.315  1.00  0.00     0.033 A 
HETATM    3  N   UNL     1      41.287 -14.966   1.244  1.00  0.00    -0.282 N 
HETATM    4  H   UNL     1      41.053 -14.644   0.311  1.00  0.00     0.189 HD
HETATM    5  N   UNL     1      41.211 -16.282   1.498  1.00  0.00    -0.179 NA
HETATM    6  C   UNL     1      41.571 -16.375   2.777  1.00  0.00     0.066 A 
HETATM    7  C   UNL     1      41.866 -15.120   3.357  1.00  0.00     0.001 A 
HETATM    8  C   UNL     1      42.327 -14.965   4.779  1.00  0.00     0.070 C 
HETATM    9  C   UNL     1      42.214 -16.292   5.586  1.00  0.00     0.102 C 
HETATM   10  C   UNL     1      42.549 -17.578   4.755  1.00  0.00     0.071 C 
HETATM   11  C   UNL     1      44.031 -17.667   4.363  1.00  0.00     0.047 C 
HETATM   12  C   UNL     1      41.647 -17.671   3.495  1.00  0.00     0.100 C 
ENDROOT
BRANCH   8  13
HETATM   13  C   UNL     1      41.481 -13.842   5.373  1.00  0.00    -0.046 A 
HETATM   14  C   UNL     1      42.065 -12.682   5.930  1.00  0.00     0.047 A 
HETATM   15  C   UNL     1      41.270 -11.667   6.466  1.00  0.00     0.101 A 
HETATM   16  C   UNL     1      39.881 -11.816   6.442  1.00  0.00     0.099 A 
HETATM   17  C   UNL     1      39.280 -12.946   5.907  1.00  0.00     0.040 A 
HETATM   18  C   UNL     1      40.079 -13.958   5.378  1.00  0.00     0.011 A 
BRANCH  15  19
HETATM   19  O   UNL     1      41.716 -10.503   7.037  1.00  0.00    -0.353 OA
HETATM   20  C   UNL     1      42.223 -10.596   8.364  1.00  0.00     0.210 C 
ENDBRANCH  15  19
BRANCH  16  21
HETATM   21  O   UNL     1      39.073 -10.840   6.958  1.00  0.00    -0.358 OA
HETATM   22  H   UNL     1      38.281 -11.314   7.279  1.00  0.00     0.218 HD
ENDBRANCH  16  21
ENDBRANCH   8  13
BRANCH   9  23
HETATM   23  C   UNL     1      43.031 -16.311   6.881  1.00  0.00     0.131 C 
HETATM   24  C   UNL     1      44.225 -15.414   7.063  1.00  0.00     0.091 C 
HETATM   25  O   UNL     1      42.755 -17.143   7.754  1.00  0.00    -0.298 OA
ENDBRANCH   9  23
BRANCH  10  26
HETATM   26  O   UNL     1      42.247 -18.760   5.523  1.00  0.00    -0.389 OA
HETATM   27  H   UNL     1      41.737 -18.507   6.322  1.00  0.00     0.210 HD
ENDBRANCH  10  26
TORSDOF 5
ENDMDL
MODEL 8
REMARK VINA RESULT:      -6.4      2.289      3.005
REMARK  5 active torsions:
REMARK  status: ('A' for Active; 'I' for Inactive)
REMARK    1  A    between atoms: C_8  and  C_9 
REMARK    2  A    between atoms: C_11  and  O_12 
REMARK    3  A    between atoms: C_14  and  O_15 
REMARK    4  A    between atoms: C_18  and  C_19 
REMARK    5  A    between atoms: C_22  and  O_23 
ROOT
HETATM    1  C   UNL     1      44.542 -17.118   1.382  1.00  0.00     0.070 C 
HETATM    2  C   UNL     1      43.712 -17.689   2.469  1.00  0.00     0.033 A 
HETATM    3  N   UNL     1      43.794 -19.012   2.813  1.00  0.00    -0.282 N 
HETATM    4  H   UNL     1      44.380 -19.732   2.403  1.00  0.00     0.189 HD
HETATM    5  N   UNL     1      42.997 -19.353   3.838  1.00  0.00    -0.179 NA
HETATM    6  C   UNL     1      42.374 -18.216   4.142  1.00  0.00     0.066 A 
HETATM    7  C   UNL     1      42.753 -17.142   3.304  1.00  0.00     0.001 A 
HETATM    8  C   UNL     1      42.214 -15.748   3.466  1.00  0.00     0.070 C 
HETATM    9  C   UNL     1      41.040 -15.683   4.487  1.00  0.00     0.102 C 
HETATM   10  C   UNL     1      41.204 -16.643   5.715  1.00  0.00     0.071 C 
HETATM   11  C   UNL     1      42.350 -16.228   6.649  1.00  0.00     0.047 C 
HETATM   12  C   UNL     1      41.389 -18.111   5.246  1.00  0.00     0.100 C 
ENDROOT
BRANCH   8  13
HETATM   13  C   UNL     1      41.804 -15.292   2.068  1.00  0.00    -0.046 A 
HETATM   14  C   UNL     1      42.262 -14.075   1.516  1.00  0.00     0.047 A 
HETATM   15  C   UNL     1      41.874 -13.681   0.233  1.00  0.00     0.101 A 
HETATM   16  C   UNL     1      41.023 -14.513  -0.499  1.00  0.00     0.099 A 
HETATM   17  C   UNL     1      40.554 -15.710   0.020  1.00  0.00     0.040 A 
HETATM   18  C   UNL     1      40.941 -16.097   1.303  1.00  0.00     0.011 A 
BRANCH  15  19
HETATM   19  O   UNL     1      42.245 -12.526  -0.407  1.00  0.00    -0.353 OA
HETATM   20  C   UNL     1      41.865 -11.302   0.213  1.00  0.00     0.210 C 
ENDBRANCH  15  19
BRANCH  16  21
HETATM   21  O   UNL     1      40.625 -14.156  -1.758  1.00  0.00    -0.358 OA
HETATM   22  H   UNL     1      39.676 -14.385  -1.795  1.00  0.00     0.218 HD
ENDBRANCH  16  21
ENDBRANCH   8  13
BRANCH   9  23
HETATM   23  C   UNL     1      40.728 -14.274   4.997  1.00  0.00     0.131 C 
HETATM   24  C   UNL     1      41.795 -13.214   5.062  1.00  0.00     0.091 C 
HETATM   25  O   UNL     1      39.601 -14.031   5.445  1.00  0.00    -0.298 OA
ENDBRANCH   9  23
BRANCH  10  26
HETATM   26  O   UNL     1      39.999 -16.649   6.507  1.00  0.00    -0.389 OA
HETATM   27  H   UNL     1      39.260 -16.281   5.977  1.00  0.00     0.210 HD
ENDBRANCH  10  26
TORSDOF 5
ENDMDL
MODEL 9
REMARK VINA RESULT:      -6.3      2.632      5.016
REMARK  5 active torsions:
REMARK  status: ('A' for Active; 'I' for Inactive)
REMARK    1  A    between atoms: C_8  and  C_9 
REMARK    2  A    between atoms: C_11  and  O_12 
REMARK    3  A    between atoms: C_14  and  O_15 
REMARK    4  A    between atoms: C_18  and  C_19 
REMARK    5  A    between atoms: C_22  and  O_23 
ROOT
HETATM    1  C   UNL     1      41.788 -17.482   6.665  1.00  0.00     0.070 C 
HETATM    2  C   UNL     1      42.413 -17.770   5.353  1.00  0.00     0.033 A 
HETATM    3  N   UNL     1      43.370 -18.741   5.213  1.00  0.00    -0.282 N 
HETATM    4  H   UNL     1      43.759 -19.346   5.928  1.00  0.00     0.189 HD
HETATM    5  N   UNL     1      43.804 -18.891   3.951  1.00  0.00    -0.179 NA
HETATM    6  C   UNL     1      43.119 -17.973   3.272  1.00  0.00     0.066 A 
HETATM    7  C   UNL     1      42.252 -17.217   4.094  1.00  0.00     0.001 A 
HETATM    8  C   UNL     1      41.348 -16.142   3.558  1.00  0.00     0.070 C 
HETATM    9  C   UNL     1      41.646 -15.807   2.067  1.00  0.00     0.102 C 
HETATM   10  C   UNL     1      42.042 -17.050   1.198  1.00  0.00     0.071 C 
HETATM   11  C   UNL     1      40.877 -18.029   0.989  1.00  0.00     0.047 C 
HETATM   12  C   UNL     1      43.266 -17.782   1.809  1.00  0.00     0.100 C 
ENDROOT
BRANCH   8  13
HETATM   13  C   UNL     1      41.534 -14.940   4.480  1.00  0.00    -0.046 A 
HETATM   14  C   UNL     1      40.435 -14.236   5.021  1.00  0.00     0.047 A 
HETATM   15  C   UNL     1      40.632 -13.140   5.864  1.00  0.00     0.101 A 
HETATM   16  C   UNL     1      41.939 -12.749   6.166  1.00  0.00     0.099 A 
HETATM   17  C   UNL     1      43.036 -13.417   5.645  1.00  0.00     0.040 A 
HETATM   18  C   UNL     1      42.834 -14.508   4.800  1.00  0.00     0.011 A 
BRANCH  15  19
HETATM   19  O   UNL     1      39.651 -12.376   6.443  1.00  0.00    -0.353 OA
HETATM   20  C   UNL     1      39.096 -11.337   5.645  1.00  0.00     0.210 C 
ENDBRANCH  15  19
BRANCH  16  21
HETATM   21  O   UNL     1      42.166 -11.680   6.989  1.00  0.00    -0.358 OA
HETATM   22  H   UNL     1      42.387 -10.943   6.387  1.00  0.00     0.218 HD
ENDBRANCH  16  21
ENDBRANCH   8  13
BRANCH   9  23
HETATM   23  C   UNL     1      40.525 -15.042   1.359  1.00  0.00     0.131 C 
HETATM   24  C   UNL     1      39.096 -15.151   1.818  1.00  0.00     0.091 C 
HETATM   25  O   UNL     1      40.789 -14.395   0.338  1.00  0.00    -0.298 OA
ENDBRANCH   9  23
BRANCH  10  26
HETATM   26  O   UNL     1      42.471 -16.625  -0.111  1.00  0.00    -0.389 OA
HETATM   27  H   UNL     1      41.783 -16.858  -0.771  1.00  0.00     0.210 HD
ENDBRANCH  10  26
TORSDOF 5
ENDMDL
MODEL 10
REMARK VINA RESULT:      -6.2      4.050      5.838
REMARK  5 active torsions:
REMARK  status: ('A' for Active; 'I' for Inactive)
REMARK    1  A    between atoms: C_8  and  C_9 
REMARK    2  A    between atoms: C_11  and  O_12 
REMARK    3  A    between atoms: C_14  and  O_15 
REMARK    4  A    between atoms: C_18  and  C_19 
REMARK    5  A    between atoms: C_22  and  O_23 
ROOT
HETATM    1  C   UNL     1      38.063 -13.696   0.657  1.00  0.00     0.070 C 
HETATM    2  C   UNL     1      38.980 -13.493   1.804  1.00  0.00     0.033 A 
HETATM    3  N   UNL     1      38.737 -12.539   2.756  1.00  0.00    -0.282 N 
HETATM    4  H   UNL     1      37.963 -11.885   2.806  1.00  0.00     0.189 HD
HETATM    5  N   UNL     1      39.651 -12.514   3.739  1.00  0.00    -0.179 NA
HETATM    6  C   UNL     1      40.513 -13.467   3.390  1.00  0.00     0.066 A 
HETATM    7  C   UNL     1      40.168 -14.099   2.173  1.00  0.00     0.001 A 
HETATM    8  C   UNL     1      40.966 -15.229   1.584  1.00  0.00     0.070 C 
HETATM    9  C   UNL     1      42.315 -15.453   2.331  1.00  0.00     0.102 C 
HETATM   10  C   UNL     1      42.234 -15.232   3.880  1.00  0.00     0.071 C 
HETATM   11  C   UNL     1      41.391 -16.299   4.593  1.00  0.00     0.047 C 
HETATM   12  C   UNL     1      41.702 -13.811   4.207  1.00  0.00     0.100 C 
ENDROOT
BRANCH   8  13
HETATM   13  C   UNL     1      41.161 -14.880   0.111  1.00  0.00    -0.046 A 
HETATM   14  C   UNL     1      41.681 -13.632  -0.299  1.00  0.00     0.047 A 
HETATM   15  C   UNL     1      41.852 -13.338  -1.654  1.00  0.00     0.101 A 
HETATM   16  C   UNL     1      41.499 -14.302  -2.602  1.00  0.00     0.099 A 
HETATM   17  C   UNL     1      40.980 -15.533  -2.229  1.00  0.00     0.040 A 
HETATM   18  C   UNL     1      40.808 -15.820  -0.875  1.00  0.00     0.011 A 
BRANCH  15  19
HETATM   19  O   UNL     1      42.340 -12.167  -2.174  1.00  0.00    -0.353 OA
HETATM   20  C   UNL     1      43.022 -11.303  -1.271  1.00  0.00     0.210 C 
ENDBRANCH  15  19
BRANCH  16  21
HETATM   21  O   UNL     1      41.654 -14.046  -3.937  1.00  0.00    -0.358 OA
HETATM   22  H   UNL     1      42.571 -13.721  -4.024  1.00  0.00     0.218 HD
ENDBRANCH  16  21
ENDBRANCH   8  13
BRANCH   9  23
HETATM   23  C   UNL     1      42.966 -16.811   2.056  1.00  0.00     0.131 C 
HETATM   24  C   UNL     1      42.135 -18.025   1.739  1.00  0.00     0.091 C 
HETATM   25  O   UNL     1      44.191 -16.929   2.186  1.00  0.00    -0.298 OA
ENDBRANCH   9  23
BRANCH  10  26
HETATM   26  O   UNL     1      43.553 -15.284   4.460  1.00  0.00    -0.389 OA
HETATM   27  H   UNL     1      43.896 -16.201   4.404  1.00  0.00     0.210 HD
ENDBRANCH  10  26
TORSDOF 5
ENDMDL
