MODEL 1
REMARK VINA RESULT:      -7.9      0.000      0.000
REMARK  4 active torsions:
REMARK  status: ('A' for Active; 'I' for Inactive)
REMARK    1  A    between atoms: C_2  and  C_3 
REMARK    2  A    between atoms: C_7  and  N_8 
REMARK       I    between atoms: N_8  and  C_9 
REMARK    3  A    between atoms: C_9  and  C_10 
REMARK    4  A    between atoms: C_12  and  C_13 
ROOT
HETATM    1  N   UNL     1      44.075 -14.502   7.462  1.00  0.00    -0.308 N 
HETATM    2  C   UNL     1      43.852 -14.594   6.097  1.00  0.00     0.257 C 
HETATM    3  O   UNL     1      44.243 -13.776   5.268  1.00  0.00    -0.267 OA
HETATM    4  H   UNL     1      43.798 -15.249   8.084  1.00  0.00     0.170 HD
ENDROOT
BRANCH   2   5
HETATM    5  C   UNL     1      43.116 -15.807   5.643  1.00  0.00     0.033 A 
HETATM    6  C   UNL     1      43.766 -16.883   5.022  1.00  0.00     0.029 A 
HETATM    7  C   UNL     1      43.031 -17.992   4.576  1.00  0.00    -0.023 A 
HETATM    8  C   UNL     1      41.645 -18.016   4.772  1.00  0.00     0.012 A 
HETATM    9  C   UNL     1      40.999 -16.960   5.418  1.00  0.00     0.002 A 
HETATM   10  C   UNL     1      41.734 -15.859   5.856  1.00  0.00     0.017 A 
BRANCH   7  11
HETATM   11  C   UNL     1      43.687 -19.097   3.900  1.00  0.00    -0.002 A 
HETATM   12  C   UNL     1      44.631 -19.920   4.479  1.00  0.00     0.153 A 
HETATM   13  O   UNL     1      45.060 -20.857   3.595  1.00  0.00    -0.334 OA
HETATM   14  C   UNL     1      44.382 -20.649   2.439  1.00  0.00     0.142 A 
HETATM   15  C   UNL     1      43.520 -19.585   2.574  1.00  0.00     0.038 A 
ENDBRANCH   7  11
ENDBRANCH   2   5
BRANCH   1  16
HETATM   16  C   UNL     1      44.773 -13.445   8.013  1.00  0.00     0.126 A 
HETATM   17  N   UNL     1      45.983 -12.991   7.557  1.00  0.00    -0.262 N 
HETATM   18  N   UNL     1      46.475 -11.963   8.273  1.00  0.00    -0.178 NA
HETATM   19  H   UNL     1      46.512 -13.362   6.771  1.00  0.00     0.191 HD
HETATM   20  C   UNL     1      45.544 -11.750   9.211  1.00  0.00     0.058 A 
HETATM   21  C   UNL     1      44.456 -12.649   9.085  1.00  0.00     0.079 A 
BRANCH  20  22
HETATM   22  C   UNL     1      45.725 -10.671  10.225  1.00  0.00     0.056 C 
HETATM   23  C   UNL     1      44.531 -10.550  11.160  1.00  0.00     0.011 C 
ENDBRANCH  20  22
ENDBRANCH   1  16
TORSDOF 4
ENDMDL
MODEL 2
REMARK VINA RESULT:      -7.7      4.465      6.368
REMARK  4 active torsions:
REMARK  status: ('A' for Active; 'I' for Inactive)
REMARK    1  A    between atoms: C_2  and  C_3 
REMARK    2  A    between atoms: C_7  and  N_8 
REMARK       I    between atoms: N_8  and  C_9 
REMARK    3  A    between atoms: C_9  and  C_10 
REMARK    4  A    between atoms: C_12  and  C_13 
ROOT
HETATM    1  N   UNL     1      41.537 -16.193   3.048  1.00  0.00    -0.308 N 
HETATM    2  C   UNL     1      41.819 -16.389   4.390  1.00  0.00     0.257 C 
HETATM    3  O   UNL     1      41.230 -15.836   5.316  1.00  0.00    -0.267 OA
HETATM    4  H   UNL     1      42.002 -16.739   2.335  1.00  0.00     0.170 HD
ENDROOT
BRANCH   2   5
HETATM    5  C   UNL     1      42.892 -17.379   4.688  1.00  0.00     0.033 A 
HETATM    6  C   UNL     1      43.086 -18.524   3.902  1.00  0.00     0.029 A 
HETATM    7  C   UNL     1      44.085 -19.451   4.237  1.00  0.00    -0.023 A 
HETATM    8  C   UNL     1      44.894 -19.210   5.355  1.00  0.00     0.012 A 
HETATM    9  C   UNL     1      44.722 -18.055   6.121  1.00  0.00     0.002 A 
HETATM   10  C   UNL     1      43.725 -17.139   5.785  1.00  0.00     0.017 A 
BRANCH   7  11
HETATM   11  C   UNL     1      44.274 -20.659   3.454  1.00  0.00    -0.002 A 
HETATM   12  C   UNL     1      44.679 -21.872   3.972  1.00  0.00     0.153 A 
HETATM   13  O   UNL     1      44.767 -22.809   2.992  1.00  0.00    -0.334 OA
HETATM   14  C   UNL     1      44.407 -22.202   1.833  1.00  0.00     0.142 A 
HETATM   15  C   UNL     1      44.087 -20.884   2.062  1.00  0.00     0.038 A 
ENDBRANCH   7  11
ENDBRANCH   2   5
BRANCH   1  16
HETATM   16  C   UNL     1      40.543 -15.328   2.634  1.00  0.00     0.126 A 
HETATM   17  N   UNL     1      40.393 -14.043   3.086  1.00  0.00    -0.262 N 
HETATM   18  N   UNL     1      39.336 -13.405   2.551  1.00  0.00    -0.178 NA
HETATM   19  H   UNL     1      40.982 -13.568   3.767  1.00  0.00     0.191 HD
HETATM   20  C   UNL     1      38.798 -14.311   1.725  1.00  0.00     0.058 A 
HETATM   21  C   UNL     1      39.523 -15.529   1.738  1.00  0.00     0.079 A 
BRANCH  20  22
HETATM   22  C   UNL     1      37.580 -13.982   0.931  1.00  0.00     0.056 C 
HETATM   23  C   UNL     1      37.891 -13.751  -0.540  1.00  0.00     0.011 C 
ENDBRANCH  20  22
ENDBRANCH   1  16
TORSDOF 4
ENDMDL
MODEL 3
REMARK VINA RESULT:      -7.7      5.390      8.423
REMARK  4 active torsions:
REMARK  status: ('A' for Active; 'I' for Inactive)
REMARK    1  A    between atoms: C_2  and  C_3 
REMARK    2  A    between atoms: C_7  and  N_8 
REMARK       I    between atoms: N_8  and  C_9 
REMARK    3  A    between atoms: C_9  and  C_10 
REMARK    4  A    between atoms: C_12  and  C_13 
ROOT
HETATM    1  N   UNL     1      42.060 -16.448   0.359  1.00  0.00    -0.308 N 
HETATM    2  C   UNL     1      41.483 -17.092   1.442  1.00  0.00     0.257 C 
HETATM    3  O   UNL     1      40.282 -17.080   1.704  1.00  0.00    -0.267 OA
HETATM    4  H   UNL     1      43.043 -16.562   0.151  1.00  0.00     0.170 HD
ENDROOT
BRANCH   2   5
HETATM    5  C   UNL     1      42.415 -17.874   2.302  1.00  0.00     0.033 A 
HETATM    6  C   UNL     1      42.450 -17.718   3.695  1.00  0.00     0.029 A 
HETATM    7  C   UNL     1      43.369 -18.446   4.465  1.00  0.00    -0.023 A 
HETATM    8  C   UNL     1      44.238 -19.340   3.828  1.00  0.00     0.012 A 
HETATM    9  C   UNL     1      44.185 -19.520   2.444  1.00  0.00     0.002 A 
HETATM   10  C   UNL     1      43.272 -18.790   1.682  1.00  0.00     0.017 A 
BRANCH   7  11
HETATM   11  C   UNL     1      43.440 -18.269   5.905  1.00  0.00    -0.002 A 
HETATM   12  C   UNL     1      44.040 -19.157   6.774  1.00  0.00     0.153 A 
HETATM   13  O   UNL     1      43.942 -18.717   8.055  1.00  0.00    -0.334 OA
HETATM   14  C   UNL     1      43.284 -17.531   8.016  1.00  0.00     0.142 A 
HETATM   15  C   UNL     1      42.960 -17.207   6.720  1.00  0.00     0.038 A 
ENDBRANCH   7  11
ENDBRANCH   2   5
BRANCH   1  16
HETATM   16  C   UNL     1      41.305 -15.717  -0.537  1.00  0.00     0.126 A 
HETATM   17  N   UNL     1      40.634 -14.562  -0.227  1.00  0.00    -0.262 N 
HETATM   18  N   UNL     1      39.950 -14.044  -1.264  1.00  0.00    -0.178 NA
HETATM   19  H   UNL     1      40.608 -14.102   0.680  1.00  0.00     0.191 HD
HETATM   20  C   UNL     1      40.197 -14.893  -2.269  1.00  0.00     0.058 A 
HETATM   21  C   UNL     1      41.047 -15.953  -1.864  1.00  0.00     0.079 A 
BRANCH  20  22
HETATM   22  C   UNL     1      39.602 -14.663  -3.617  1.00  0.00     0.056 C 
HETATM   23  C   UNL     1      39.011 -15.932  -4.213  1.00  0.00     0.011 C 
ENDBRANCH  20  22
ENDBRANCH   1  16
TORSDOF 4
ENDMDL
MODEL 4
REMARK VINA RESULT:      -7.6      4.757      6.921
REMARK  4 active torsions:
REMARK  status: ('A' for Active; 'I' for Inactive)
REMARK    1  A    between atoms: C_2  and  C_3 
REMARK    2  A    between atoms: C_7  and  N_8 
REMARK       I    between atoms: N_8  and  C_9 
REMARK    3  A    between atoms: C_9  and  C_10 
REMARK    4  A    between atoms: C_12  and  C_13 
ROOT
HETATM    1  N   UNL     1      41.159 -16.408   2.242  1.00  0.00    -0.308 N 
HETATM    2  C   UNL     1      41.687 -16.153   3.498  1.00  0.00     0.257 C 
HETATM    3  O   UNL     1      41.371 -15.203   4.210  1.00  0.00    -0.267 OA
HETATM    4  H   UNL     1      41.401 -17.251   1.739  1.00  0.00     0.170 HD
ENDROOT
BRANCH   2   5
HETATM    5  C   UNL     1      42.678 -17.148   3.996  1.00  0.00     0.033 A 
HETATM    6  C   UNL     1      42.933 -18.349   3.317  1.00  0.00     0.029 A 
HETATM    7  C   UNL     1      43.846 -19.276   3.840  1.00  0.00    -0.023 A 
HETATM    8  C   UNL     1      44.511 -18.981   5.037  1.00  0.00     0.012 A 
HETATM    9  C   UNL     1      44.281 -17.773   5.699  1.00  0.00     0.002 A 
HETATM   10  C   UNL     1      43.369 -16.856   5.177  1.00  0.00     0.017 A 
BRANCH   7  11
HETATM   11  C   UNL     1      44.093 -20.539   3.166  1.00  0.00    -0.002 A 
HETATM   12  C   UNL     1      44.617 -21.661   3.775  1.00  0.00     0.153 A 
HETATM   13  O   UNL     1      44.733 -22.681   2.885  1.00  0.00    -0.334 OA
HETATM   14  C   UNL     1      44.272 -22.221   1.695  1.00  0.00     0.142 A 
HETATM   15  C   UNL     1      43.860 -20.914   1.814  1.00  0.00     0.038 A 
ENDBRANCH   7  11
ENDBRANCH   2   5
BRANCH   1  16
HETATM   16  C   UNL     1      40.207 -15.583   1.675  1.00  0.00     0.126 A 
HETATM   17  N   UNL     1      38.947 -15.389   2.177  1.00  0.00    -0.262 N 
HETATM   18  N   UNL     1      38.195 -14.556   1.435  1.00  0.00    -0.178 NA
HETATM   19  H   UNL     1      38.557 -15.816   3.016  1.00  0.00     0.191 HD
HETATM   20  C   UNL     1      39.005 -14.202   0.430  1.00  0.00     0.058 A 
HETATM   21  C   UNL     1      40.278 -14.813   0.540  1.00  0.00     0.079 A 
BRANCH  20  22
HETATM   22  C   UNL     1      38.529 -13.269  -0.632  1.00  0.00     0.056 C 
HETATM   23  C   UNL     1      38.763 -13.816  -2.032  1.00  0.00     0.011 C 
ENDBRANCH  20  22
ENDBRANCH   1  16
TORSDOF 4
ENDMDL
MODEL 5
REMARK VINA RESULT:      -7.5      4.978      7.017
REMARK  4 active torsions:
REMARK  status: ('A' for Active; 'I' for Inactive)
REMARK    1  A    between atoms: C_2  and  C_3 
REMARK    2  A    between atoms: C_7  and  N_8 
REMARK       I    between atoms: N_8  and  C_9 
REMARK    3  A    between atoms: C_9  and  C_10 
REMARK    4  A    between atoms: C_12  and  C_13 
ROOT
HETATM    1  N   UNL     1      40.838 -16.211   2.861  1.00  0.00    -0.308 N 
HETATM    2  C   UNL     1      41.371 -17.193   2.041  1.00  0.00     0.257 C 
HETATM    3  O   UNL     1      41.088 -17.341   0.854  1.00  0.00    -0.267 OA
HETATM    4  H   UNL     1      41.171 -16.090   3.808  1.00  0.00     0.170 HD
ENDROOT
BRANCH   2   5
HETATM    5  C   UNL     1      42.383 -18.085   2.673  1.00  0.00     0.033 A 
HETATM    6  C   UNL     1      42.560 -18.141   4.063  1.00  0.00     0.029 A 
HETATM    7  C   UNL     1      43.549 -18.968   4.617  1.00  0.00    -0.023 A 
HETATM    8  C   UNL     1      44.345 -19.745   3.766  1.00  0.00     0.012 A 
HETATM    9  C   UNL     1      44.150 -19.714   2.384  1.00  0.00     0.002 A 
HETATM   10  C   UNL     1      43.168 -18.888   1.838  1.00  0.00     0.017 A 
BRANCH   7  11
HETATM   11  C   UNL     1      43.768 -19.010   6.052  1.00  0.00    -0.002 A 
HETATM   12  C   UNL     1      43.666 -20.147   6.826  1.00  0.00     0.153 A 
HETATM   13  O   UNL     1      43.924 -19.867   8.130  1.00  0.00    -0.334 OA
HETATM   14  C   UNL     1      44.206 -18.542   8.200  1.00  0.00     0.142 A 
HETATM   15  C   UNL     1      44.131 -17.970   6.951  1.00  0.00     0.038 A 
ENDBRANCH   7  11
ENDBRANCH   2   5
BRANCH   1  16
HETATM   16  C   UNL     1      39.915 -15.297   2.393  1.00  0.00     0.126 A 
HETATM   17  N   UNL     1      38.748 -15.628   1.756  1.00  0.00    -0.262 N 
HETATM   18  N   UNL     1      38.023 -14.560   1.374  1.00  0.00    -0.178 NA
HETATM   19  H   UNL     1      38.415 -16.568   1.550  1.00  0.00     0.191 HD
HETATM   20  C   UNL     1      38.749 -13.514   1.788  1.00  0.00     0.058 A 
HETATM   21  C   UNL     1      39.939 -13.925   2.438  1.00  0.00     0.079 A 
BRANCH  20  22
HETATM   22  C   UNL     1      38.276 -12.121   1.544  1.00  0.00     0.056 C 
HETATM   23  C   UNL     1      37.001 -12.079   0.716  1.00  0.00     0.011 C 
ENDBRANCH  20  22
ENDBRANCH   1  16
TORSDOF 4
ENDMDL
MODEL 6
REMARK VINA RESULT:      -7.5      5.214      7.983
REMARK  4 active torsions:
REMARK  status: ('A' for Active; 'I' for Inactive)
REMARK    1  A    between atoms: C_2  and  C_3 
REMARK    2  A    between atoms: C_7  and  N_8 
REMARK       I    between atoms: N_8  and  C_9 
REMARK    3  A    between atoms: C_9  and  C_10 
REMARK    4  A    between atoms: C_12  and  C_13 
ROOT
HETATM    1  N   UNL     1      42.263 -16.331   0.281  1.00  0.00    -0.308 N 
HETATM    2  C   UNL     1      42.218 -15.904   1.599  1.00  0.00     0.257 C 
HETATM    3  O   UNL     1      41.688 -14.862   1.978  1.00  0.00    -0.267 OA
HETATM    4  H   UNL     1      42.643 -17.237   0.042  1.00  0.00     0.170 HD
ENDROOT
BRANCH   2   5
HETATM    5  C   UNL     1      42.835 -16.821   2.597  1.00  0.00     0.033 A 
HETATM    6  C   UNL     1      43.158 -18.150   2.287  1.00  0.00     0.029 A 
HETATM    7  C   UNL     1      43.704 -18.993   3.267  1.00  0.00    -0.023 A 
HETATM    8  C   UNL     1      43.937 -18.486   4.552  1.00  0.00     0.012 A 
HETATM    9  C   UNL     1      43.645 -17.155   4.854  1.00  0.00     0.002 A 
HETATM   10  C   UNL     1      43.098 -16.322   3.878  1.00  0.00     0.017 A 
BRANCH   7  11
HETATM   11  C   UNL     1      44.010 -20.381   2.969  1.00  0.00    -0.002 A 
HETATM   12  C   UNL     1      43.719 -21.008   1.776  1.00  0.00     0.153 A 
HETATM   13  O   UNL     1      44.124 -22.304   1.801  1.00  0.00    -0.334 OA
HETATM   14  C   UNL     1      44.692 -22.516   3.015  1.00  0.00     0.142 A 
HETATM   15  C   UNL     1      44.655 -21.365   3.767  1.00  0.00     0.038 A 
ENDBRANCH   7  11
ENDBRANCH   2   5
BRANCH   1  16
HETATM   16  C   UNL     1      41.699 -15.592  -0.740  1.00  0.00     0.126 A 
HETATM   17  N   UNL     1      41.877 -14.245  -0.915  1.00  0.00    -0.262 N 
HETATM   18  N   UNL     1      41.207 -13.747  -1.971  1.00  0.00    -0.178 NA
HETATM   19  H   UNL     1      42.436 -13.627  -0.330  1.00  0.00     0.191 HD
HETATM   20  C   UNL     1      40.587 -14.814  -2.490  1.00  0.00     0.058 A 
HETATM   21  C   UNL     1      40.871 -15.994  -1.759  1.00  0.00     0.079 A 
BRANCH  20  22
HETATM   22  C   UNL     1      39.722 -14.673  -3.697  1.00  0.00     0.056 C 
HETATM   23  C   UNL     1      39.055 -15.983  -4.088  1.00  0.00     0.011 C 
ENDBRANCH  20  22
ENDBRANCH   1  16
TORSDOF 4
ENDMDL
MODEL 7
REMARK VINA RESULT:      -7.3      3.682      4.288
REMARK  4 active torsions:
REMARK  status: ('A' for Active; 'I' for Inactive)
REMARK    1  A    between atoms: C_2  and  C_3 
REMARK    2  A    between atoms: C_7  and  N_8 
REMARK       I    between atoms: N_8  and  C_9 
REMARK    3  A    between atoms: C_9  and  C_10 
REMARK    4  A    between atoms: C_12  and  C_13 
ROOT
HETATM    1  N   UNL     1      41.617 -15.254   4.163  1.00  0.00    -0.308 N 
HETATM    2  C   UNL     1      42.702 -16.009   4.579  1.00  0.00     0.257 C 
HETATM    3  O   UNL     1      43.231 -15.922   5.685  1.00  0.00    -0.267 OA
HETATM    4  H   UNL     1      41.176 -15.429   3.270  1.00  0.00     0.170 HD
ENDROOT
BRANCH   2   5
HETATM    5  C   UNL     1      43.206 -17.012   3.600  1.00  0.00     0.033 A 
HETATM    6  C   UNL     1      43.481 -18.337   3.967  1.00  0.00     0.029 A 
HETATM    7  C   UNL     1      43.990 -19.242   3.023  1.00  0.00    -0.023 A 
HETATM    8  C   UNL     1      44.203 -18.810   1.708  1.00  0.00     0.012 A 
HETATM    9  C   UNL     1      43.901 -17.499   1.333  1.00  0.00     0.002 A 
HETATM   10  C   UNL     1      43.399 -16.603   2.276  1.00  0.00     0.017 A 
BRANCH   7  11
HETATM   11  C   UNL     1      44.313 -20.607   3.398  1.00  0.00    -0.002 A 
HETATM   12  C   UNL     1      44.287 -21.683   2.534  1.00  0.00     0.153 A 
HETATM   13  O   UNL     1      44.634 -22.827   3.179  1.00  0.00    -0.334 OA
HETATM   14  C   UNL     1      44.898 -22.490   4.466  1.00  0.00     0.142 A 
HETATM   15  C   UNL     1      44.723 -21.138   4.652  1.00  0.00     0.038 A 
ENDBRANCH   7  11
ENDBRANCH   2   5
BRANCH   1  16
HETATM   16  C   UNL     1      41.031 -14.312   4.984  1.00  0.00     0.126 A 
HETATM   17  N   UNL     1      39.801 -14.450   5.573  1.00  0.00    -0.262 N 
HETATM   18  N   UNL     1      39.436 -13.386   6.312  1.00  0.00    -0.178 NA
HETATM   19  H   UNL     1      39.174 -15.247   5.485  1.00  0.00     0.191 HD
HETATM   20  C   UNL     1      40.471 -12.544   6.196  1.00  0.00     0.058 A 
HETATM   21  C   UNL     1      41.497 -13.082   5.380  1.00  0.00     0.079 A 
BRANCH  20  22
HETATM   22  C   UNL     1      40.449 -11.221   6.882  1.00  0.00     0.056 C 
HETATM   23  C   UNL     1      39.586 -11.231   8.134  1.00  0.00     0.011 C 
ENDBRANCH  20  22
ENDBRANCH   1  16
TORSDOF 4
ENDMDL
MODEL 8
REMARK VINA RESULT:      -7.2      4.940      7.538
REMARK  4 active torsions:
REMARK  status: ('A' for Active; 'I' for Inactive)
REMARK    1  A    between atoms: C_2  and  C_3 
REMARK    2  A    between atoms: C_7  and  N_8 
REMARK       I    between atoms: N_8  and  C_9 
REMARK    3  A    between atoms: C_9  and  C_10 
REMARK    4  A    between atoms: C_12  and  C_13 
ROOT
HETATM    1  N   UNL     1      42.203 -16.488   1.579  1.00  0.00    -0.308 N 
HETATM    2  C   UNL     1      43.193 -17.449   1.447  1.00  0.00     0.257 C 
HETATM    3  O   UNL     1      43.781 -17.707   0.400  1.00  0.00    -0.267 OA
HETATM    4  H   UNL     1      41.813 -16.267   2.486  1.00  0.00     0.170 HD
ENDROOT
BRANCH   2   5
HETATM    5  C   UNL     1      43.566 -18.169   2.697  1.00  0.00     0.033 A 
HETATM    6  C   UNL     1      43.448 -17.575   3.962  1.00  0.00     0.029 A 
HETATM    7  C   UNL     1      43.845 -18.274   5.112  1.00  0.00    -0.023 A 
HETATM    8  C   UNL     1      44.344 -19.576   4.981  1.00  0.00     0.012 A 
HETATM    9  C   UNL     1      44.433 -20.182   3.726  1.00  0.00     0.002 A 
HETATM   10  C   UNL     1      44.041 -19.481   2.586  1.00  0.00     0.017 A 
BRANCH   7  11
HETATM   11  C   UNL     1      43.762 -17.658   6.424  1.00  0.00    -0.002 A 
HETATM   12  C   UNL     1      44.011 -16.325   6.680  1.00  0.00     0.153 A 
HETATM   13  O   UNL     1      43.855 -16.052   8.001  1.00  0.00    -0.334 OA
HETATM   14  C   UNL     1      43.491 -17.211   8.604  1.00  0.00     0.142 A 
HETATM   15  C   UNL     1      43.412 -18.227   7.679  1.00  0.00     0.038 A 
ENDBRANCH   7  11
ENDBRANCH   2   5
BRANCH   1  16
HETATM   16  C   UNL     1      41.785 -15.725   0.507  1.00  0.00     0.126 A 
HETATM   17  N   UNL     1      41.249 -16.233  -0.647  1.00  0.00    -0.262 N 
HETATM   18  N   UNL     1      40.938 -15.290  -1.556  1.00  0.00    -0.178 NA
HETATM   19  H   UNL     1      41.090 -17.216  -0.859  1.00  0.00     0.191 HD
HETATM   20  C   UNL     1      41.282 -14.142  -0.958  1.00  0.00     0.058 A 
HETATM   21  C   UNL     1      41.810 -14.363   0.338  1.00  0.00     0.079 A 
BRANCH  20  22
HETATM   22  C   UNL     1      41.093 -12.840  -1.658  1.00  0.00     0.056 C 
HETATM   23  C   UNL     1      42.134 -11.807  -1.252  1.00  0.00     0.011 C 
ENDBRANCH  20  22
ENDBRANCH   1  16
TORSDOF 4
ENDMDL
MODEL 9
REMARK VINA RESULT:      -7.1      5.248      7.183
REMARK  4 active torsions:
REMARK  status: ('A' for Active; 'I' for Inactive)
REMARK    1  A    between atoms: C_2  and  C_3 
REMARK    2  A    between atoms: C_7  and  N_8 
REMARK       I    between atoms: N_8  and  C_9 
REMARK    3  A    between atoms: C_9  and  C_10 
REMARK    4  A    between atoms: C_12  and  C_13 
ROOT
HETATM    1  N   UNL     1      40.739 -15.560   1.918  1.00  0.00    -0.308 N 
HETATM    2  C   UNL     1      41.496 -16.600   1.403  1.00  0.00     0.257 C 
HETATM    3  O   UNL     1      41.487 -16.956   0.227  1.00  0.00    -0.267 OA
HETATM    4  H   UNL     1      40.850 -15.263   2.878  1.00  0.00     0.170 HD
ENDROOT
BRANCH   2   5
HETATM    5  C   UNL     1      42.399 -17.283   2.371  1.00  0.00     0.033 A 
HETATM    6  C   UNL     1      42.823 -18.607   2.186  1.00  0.00     0.029 A 
HETATM    7  C   UNL     1      43.644 -19.227   3.140  1.00  0.00    -0.023 A 
HETATM    8  C   UNL     1      44.047 -18.502   4.269  1.00  0.00     0.012 A 
HETATM    9  C   UNL     1      43.651 -17.174   4.440  1.00  0.00     0.002 A 
HETATM   10  C   UNL     1      42.832 -16.564   3.491  1.00  0.00     0.017 A 
BRANCH   7  11
HETATM   11  C   UNL     1      44.062 -20.608   2.979  1.00  0.00    -0.002 A 
HETATM   12  C   UNL     1      43.977 -21.319   1.800  1.00  0.00     0.153 A 
HETATM   13  O   UNL     1      44.442 -22.585   1.966  1.00  0.00    -0.334 OA
HETATM   14  C   UNL     1      44.842 -22.691   3.258  1.00  0.00     0.142 A 
HETATM   15  C   UNL     1      44.637 -21.504   3.922  1.00  0.00     0.038 A 
ENDBRANCH   7  11
ENDBRANCH   2   5
BRANCH   1  16
HETATM   16  C   UNL     1      39.885 -14.821   1.122  1.00  0.00     0.126 A 
HETATM   17  N   UNL     1      40.086 -14.570  -0.210  1.00  0.00    -0.262 N 
HETATM   18  N   UNL     1      39.125 -13.807  -0.764  1.00  0.00    -0.178 NA
HETATM   19  H   UNL     1      40.870 -14.889  -0.775  1.00  0.00     0.191 HD
HETATM   20  C   UNL     1      38.280 -13.570   0.248  1.00  0.00     0.058 A 
HETATM   21  C   UNL     1      38.710 -14.190   1.448  1.00  0.00     0.079 A 
BRANCH  20  22
HETATM   22  C   UNL     1      37.061 -12.739   0.036  1.00  0.00     0.056 C 
HETATM   23  C   UNL     1      36.963 -11.589   1.027  1.00  0.00     0.011 C 
ENDBRANCH  20  22
ENDBRANCH   1  16
TORSDOF 4
ENDMDL
MODEL 10
REMARK VINA RESULT:      -6.9      2.001      2.343
REMARK  4 active torsions:
REMARK  status: ('A' for Active; 'I' for Inactive)
REMARK    1  A    between atoms: C_2  and  C_3 
REMARK    2  A    between atoms: C_7  and  N_8 
REMARK       I    between atoms: N_8  and  C_9 
REMARK    3  A    between atoms: C_9  and  C_10 
REMARK    4  A    between atoms: C_12  and  C_13 
ROOT
HETATM    1  N   UNL     1      44.217 -14.147   7.826  1.00  0.00    -0.308 N 
HETATM    2  C   UNL     1      44.293 -14.306   6.452  1.00  0.00     0.257 C 
HETATM    3  O   UNL     1      44.824 -13.506   5.684  1.00  0.00    -0.267 OA
HETATM    4  H   UNL     1      43.839 -14.879   8.412  1.00  0.00     0.170 HD
ENDROOT
BRANCH   2   5
HETATM    5  C   UNL     1      43.712 -15.568   5.913  1.00  0.00     0.033 A 
HETATM    6  C   UNL     1      43.311 -15.690   4.575  1.00  0.00     0.029 A 
HETATM    7  C   UNL     1      42.735 -16.884   4.116  1.00  0.00    -0.023 A 
HETATM    8  C   UNL     1      42.580 -17.955   5.006  1.00  0.00     0.012 A 
HETATM    9  C   UNL     1      43.007 -17.846   6.330  1.00  0.00     0.002 A 
HETATM   10  C   UNL     1      43.576 -16.655   6.783  1.00  0.00     0.017 A 
BRANCH   7  11
HETATM   11  C   UNL     1      42.283 -17.013   2.742  1.00  0.00    -0.002 A 
HETATM   12  C   UNL     1      43.102 -16.914   1.636  1.00  0.00     0.153 A 
HETATM   13  O   UNL     1      42.388 -17.077   0.492  1.00  0.00    -0.334 OA
HETATM   14  C   UNL     1      41.100 -17.293   0.858  1.00  0.00     0.142 A 
HETATM   15  C   UNL     1      40.982 -17.272   2.229  1.00  0.00     0.038 A 
ENDBRANCH   7  11
ENDBRANCH   2   5
BRANCH   1  16
HETATM   16  C   UNL     1      44.745 -13.039   8.459  1.00  0.00     0.126 A 
HETATM   17  N   UNL     1      45.853 -12.354   8.032  1.00  0.00    -0.262 N 
HETATM   18  N   UNL     1      46.186 -11.322   8.828  1.00  0.00    -0.178 NA
HETATM   19  H   UNL     1      46.416 -12.566   7.211  1.00  0.00     0.191 HD
HETATM   20  C   UNL     1      45.256 -11.345   9.791  1.00  0.00     0.058 A 
HETATM   21  C   UNL     1      44.327 -12.399   9.599  1.00  0.00     0.079 A 
BRANCH  20  22
HETATM   22  C   UNL     1      45.281 -10.340  10.892  1.00  0.00     0.056 C 
HETATM   23  C   UNL     1      43.968 -10.286  11.658  1.00  0.00     0.011 C 
ENDBRANCH  20  22
ENDBRANCH   1  16
TORSDOF 4
ENDMDL
