MODEL 1
REMARK VINA RESULT:      -9.0      0.000      0.000
REMARK  6 active torsions:
REMARK  status: ('A' for Active; 'I' for Inactive)
REMARK    1  A    between atoms: O_2  and  C_3 
REMARK    2  A    between atoms: C_5  and  N_6 
REMARK    3  A    between atoms: C_7  and  C_9 
REMARK    4  A    between atoms: C_7  and  O_8 
REMARK       I    between atoms: C_9  and  N_10 
REMARK    5  A    between atoms: N_10  and  C_11 
REMARK    6  A    between atoms: C_11  and  C_12 
ROOT
HETATM    1  N   UNL     1      40.878 -14.812   4.107  1.00  0.00    -0.254 N 
HETATM    2  C   UNL     1      40.742 -15.397   2.758  1.00  0.00     0.256 C 
HETATM    3  C   UNL     1      40.234 -14.434   1.697  1.00  0.00     0.034 A 
HETATM    4  C   UNL     1      39.663 -13.237   2.095  1.00  0.00     0.048 A 
HETATM    5  N   UNL     1      39.607 -12.941   3.443  1.00  0.00    -0.308 N 
HETATM    6  C   UNL     1      40.156 -13.674   4.449  1.00  0.00     0.330 C 
HETATM    7  O   UNL     1      39.987 -13.238   5.589  1.00  0.00    -0.246 OA
HETATM    8  C   UNL     1      40.255 -14.734   0.321  1.00  0.00     0.015 A 
HETATM    9  C   UNL     1      39.737 -13.835  -0.615  1.00  0.00     0.001 A 
HETATM   10  C   UNL     1      39.173 -12.636  -0.190  1.00  0.00     0.002 A 
HETATM   11  C   UNL     1      39.128 -12.338   1.170  1.00  0.00     0.030 A 
HETATM   12  H   UNL     1      39.130 -12.107   3.760  1.00  0.00     0.170 HD
ENDROOT
BRANCH   2  13
HETATM   13  C   UNL     1      42.138 -15.971   2.258  1.00  0.00     0.279 C 
HETATM   14  N   UNL     1      42.220 -17.338   2.095  1.00  0.00    -0.352 N 
HETATM   15  H   UNL     1      41.358 -17.872   2.089  1.00  0.00     0.162 HD
HETATM   16  O   UNL     1      43.113 -15.222   2.132  1.00  0.00    -0.268 OA
BRANCH  14  17
HETATM   17  C   UNL     1      43.412 -17.968   1.582  1.00  0.00     0.161 C 
BRANCH  17  18
HETATM   18  C   UNL     1      43.862 -19.083   2.489  1.00  0.00    -0.040 A 
HETATM   19  C   UNL     1      43.993 -20.394   2.009  1.00  0.00     0.010 A 
HETATM   20  C   UNL     1      44.425 -21.416   2.858  1.00  0.00     0.024 A 
HETATM   21  C   UNL     1      44.721 -21.134   4.190  1.00  0.00     0.034 A 
HETATM   22 CL   UNL     1      45.259 -22.393   5.232  1.00  0.00    -0.084 Cl
HETATM   23  C   UNL     1      44.587 -19.839   4.683  1.00  0.00     0.024 A 
HETATM   24  C   UNL     1      44.156 -18.817   3.835  1.00  0.00     0.010 A 
ENDBRANCH  17  18
ENDBRANCH  14  17
ENDBRANCH   2  13
BRANCH   2  25
HETATM   25  O   UNL     1      39.760 -16.433   2.820  1.00  0.00    -0.359 OA
HETATM   26  H   UNL     1      40.088 -17.049   3.501  1.00  0.00     0.213 HD
ENDBRANCH   2  25
BRANCH   1  27
HETATM   27  C   UNL     1      41.576 -15.547   5.148  1.00  0.00     0.045 A 
HETATM   28  C   UNL     1      42.860 -15.152   5.563  1.00  0.00     0.066 A 
HETATM   29  C   UNL     1      43.553 -15.841   6.564  1.00  0.00     0.070 A 
HETATM   30  C   UNL     1      43.006 -16.985   7.133  1.00  0.00     0.037 A 
HETATM   31  C   UNL     1      41.747 -17.409   6.727  1.00  0.00     0.005 A 
HETATM   32  C   UNL     1      41.038 -16.695   5.752  1.00  0.00     0.030 A 
BRANCH  29  33
HETATM   33  O   UNL     1      44.795 -15.363   6.888  1.00  0.00    -0.356 OA
HETATM   34  C   UNL     1      44.777 -13.989   7.271  1.00  0.00     0.210 C 
ENDBRANCH  29  33
ENDBRANCH   1  27
TORSDOF 6
ENDMDL
MODEL 2
REMARK VINA RESULT:      -8.7      3.872      7.297
REMARK  6 active torsions:
REMARK  status: ('A' for Active; 'I' for Inactive)
REMARK    1  A    between atoms: O_2  and  C_3 
REMARK    2  A    between atoms: C_5  and  N_6 
REMARK    3  A    between atoms: C_7  and  C_9 
REMARK    4  A    between atoms: C_7  and  O_8 
REMARK       I    between atoms: C_9  and  N_10 
REMARK    5  A    between atoms: N_10  and  C_11 
REMARK    6  A    between atoms: C_11  and  C_12 
ROOT
HETATM    1  N   UNL     1      41.271 -14.113   4.738  1.00  0.00    -0.254 N 
HETATM    2  C   UNL     1      42.205 -15.018   5.439  1.00  0.00     0.256 C 
HETATM    3  C   UNL     1      42.637 -16.233   4.633  1.00  0.00     0.034 A 
HETATM    4  C   UNL     1      41.930 -16.566   3.489  1.00  0.00     0.048 A 
HETATM    5  N   UNL     1      40.877 -15.760   3.098  1.00  0.00    -0.308 N 
HETATM    6  C   UNL     1      40.508 -14.585   3.677  1.00  0.00     0.330 C 
HETATM    7  O   UNL     1      39.533 -14.022   3.177  1.00  0.00    -0.246 OA
HETATM    8  C   UNL     1      43.687 -17.081   5.035  1.00  0.00     0.015 A 
HETATM    9  C   UNL     1      44.020 -18.211   4.283  1.00  0.00     0.001 A 
HETATM   10  C   UNL     1      43.298 -18.521   3.136  1.00  0.00     0.002 A 
HETATM   11  C   UNL     1      42.244 -17.701   2.740  1.00  0.00     0.030 A 
HETATM   12  H   UNL     1      40.303 -16.025   2.309  1.00  0.00     0.170 HD
ENDROOT
BRANCH   2  13
HETATM   13  C   UNL     1      43.519 -14.234   5.871  1.00  0.00     0.279 C 
HETATM   14  N   UNL     1      43.701 -14.034   7.223  1.00  0.00    -0.352 N 
HETATM   15  H   UNL     1      43.126 -14.564   7.867  1.00  0.00     0.162 HD
HETATM   16  O   UNL     1      44.268 -13.750   5.015  1.00  0.00    -0.268 OA
BRANCH  14  17
HETATM   17  C   UNL     1      44.888 -13.396   7.740  1.00  0.00     0.161 C 
BRANCH  17  18
HETATM   18  C   UNL     1      44.532 -12.337   8.749  1.00  0.00    -0.040 A 
HETATM   19  C   UNL     1      43.369 -11.567   8.606  1.00  0.00     0.010 A 
HETATM   20  C   UNL     1      43.044 -10.597   9.557  1.00  0.00     0.024 A 
HETATM   21  C   UNL     1      43.879 -10.389  10.652  1.00  0.00     0.034 A 
HETATM   22 CL   UNL     1      43.473  -9.199  11.826  1.00  0.00    -0.084 Cl
HETATM   23  C   UNL     1      45.043 -11.140  10.803  1.00  0.00     0.024 A 
HETATM   24  C   UNL     1      45.369 -12.110   9.853  1.00  0.00     0.010 A 
ENDBRANCH  17  18
ENDBRANCH  14  17
ENDBRANCH   2  13
BRANCH   2  25
HETATM   25  O   UNL     1      41.533 -15.550   6.582  1.00  0.00    -0.359 OA
HETATM   26  H   UNL     1      40.997 -14.811   6.924  1.00  0.00     0.213 HD
ENDBRANCH   2  25
BRANCH   1  27
HETATM   27  C   UNL     1      40.976 -12.805   5.296  1.00  0.00     0.045 A 
HETATM   28  C   UNL     1      40.124 -12.678   6.408  1.00  0.00     0.066 A 
HETATM   29  C   UNL     1      39.825 -11.431   6.965  1.00  0.00     0.070 A 
HETATM   30  C   UNL     1      40.320 -10.269   6.387  1.00  0.00     0.037 A 
HETATM   31  C   UNL     1      41.148 -10.363   5.275  1.00  0.00     0.005 A 
HETATM   32  C   UNL     1      41.477 -11.616   4.742  1.00  0.00     0.030 A 
BRANCH  29  33
HETATM   33  O   UNL     1      38.986 -11.431   8.048  1.00  0.00    -0.356 OA
HETATM   34  C   UNL     1      39.017 -10.201   8.772  1.00  0.00     0.210 C 
ENDBRANCH  29  33
ENDBRANCH   1  27
TORSDOF 6
ENDMDL
MODEL 3
REMARK VINA RESULT:      -8.7      1.093      1.863
REMARK  6 active torsions:
REMARK  status: ('A' for Active; 'I' for Inactive)
REMARK    1  A    between atoms: O_2  and  C_3 
REMARK    2  A    between atoms: C_5  and  N_6 
REMARK    3  A    between atoms: C_7  and  C_9 
REMARK    4  A    between atoms: C_7  and  O_8 
REMARK       I    between atoms: C_9  and  N_10 
REMARK    5  A    between atoms: N_10  and  C_11 
REMARK    6  A    between atoms: C_11  and  C_12 
ROOT
HETATM    1  N   UNL     1      41.275 -14.088   4.624  1.00  0.00    -0.254 N 
HETATM    2  C   UNL     1      40.757 -14.895   3.500  1.00  0.00     0.256 C 
HETATM    3  C   UNL     1      39.877 -14.132   2.523  1.00  0.00     0.034 A 
HETATM    4  C   UNL     1      39.383 -12.891   2.892  1.00  0.00     0.048 A 
HETATM    5  N   UNL     1      39.739 -12.371   4.122  1.00  0.00    -0.308 N 
HETATM    6  C   UNL     1      40.625 -12.918   4.998  1.00  0.00     0.330 C 
HETATM    7  O   UNL     1      40.798 -12.296   6.048  1.00  0.00    -0.246 OA
HETATM    8  C   UNL     1      39.480 -14.661   1.280  1.00  0.00     0.015 A 
HETATM    9  C   UNL     1      38.634 -13.940   0.433  1.00  0.00     0.001 A 
HETATM   10  C   UNL     1      38.156 -12.693   0.824  1.00  0.00     0.002 A 
HETATM   11  C   UNL     1      38.525 -12.169   2.061  1.00  0.00     0.030 A 
HETATM   12  H   UNL     1      39.333 -11.502   4.441  1.00  0.00     0.170 HD
ENDROOT
BRANCH   2  13
HETATM   13  C   UNL     1      41.957 -15.529   2.672  1.00  0.00     0.279 C 
HETATM   14  N   UNL     1      42.046 -16.905   2.670  1.00  0.00    -0.352 N 
HETATM   15  H   UNL     1      41.248 -17.437   3.000  1.00  0.00     0.162 HD
HETATM   16  O   UNL     1      42.812 -14.802   2.154  1.00  0.00    -0.268 OA
BRANCH  14  17
HETATM   17  C   UNL     1      43.051 -17.598   1.900  1.00  0.00     0.161 C 
BRANCH  17  18
HETATM   18  C   UNL     1      43.635 -18.742   2.686  1.00  0.00    -0.040 A 
HETATM   19  C   UNL     1      43.973 -18.589   4.038  1.00  0.00     0.010 A 
HETATM   20  C   UNL     1      44.501 -19.663   4.758  1.00  0.00     0.024 A 
HETATM   21  C   UNL     1      44.699 -20.891   4.131  1.00  0.00     0.034 A 
HETATM   22 CL   UNL     1      45.343 -22.214   5.022  1.00  0.00    -0.084 Cl
HETATM   23  C   UNL     1      44.376 -21.055   2.786  1.00  0.00     0.024 A 
HETATM   24  C   UNL     1      43.848 -19.982   2.065  1.00  0.00     0.010 A 
ENDBRANCH  17  18
ENDBRANCH  14  17
ENDBRANCH   2  13
BRANCH   2  25
HETATM   25  O   UNL     1      39.916 -15.917   4.038  1.00  0.00    -0.359 OA
HETATM   26  H   UNL     1      40.528 -16.620   4.325  1.00  0.00     0.213 HD
ENDBRANCH   2  25
BRANCH   1  27
HETATM   27  C   UNL     1      42.314 -14.628   5.484  1.00  0.00     0.045 A 
HETATM   28  C   UNL     1      42.086 -15.797   6.232  1.00  0.00     0.066 A 
HETATM   29  C   UNL     1      43.070 -16.338   7.065  1.00  0.00     0.070 A 
HETATM   30  C   UNL     1      44.289 -15.690   7.223  1.00  0.00     0.037 A 
HETATM   31  C   UNL     1      44.533 -14.521   6.510  1.00  0.00     0.005 A 
HETATM   32  C   UNL     1      43.560 -14.002   5.647  1.00  0.00     0.030 A 
BRANCH  29  33
HETATM   33  O   UNL     1      42.737 -17.480   7.743  1.00  0.00    -0.356 OA
HETATM   34  C   UNL     1      43.878 -18.232   8.156  1.00  0.00     0.210 C 
ENDBRANCH  29  33
ENDBRANCH   1  27
TORSDOF 6
ENDMDL
MODEL 4
REMARK VINA RESULT:      -8.5      3.373      6.855
REMARK  6 active torsions:
REMARK  status: ('A' for Active; 'I' for Inactive)
REMARK    1  A    between atoms: O_2  and  C_3 
REMARK    2  A    between atoms: C_5  and  N_6 
REMARK    3  A    between atoms: C_7  and  C_9 
REMARK    4  A    between atoms: C_7  and  O_8 
REMARK       I    between atoms: C_9  and  N_10 
REMARK    5  A    between atoms: N_10  and  C_11 
REMARK    6  A    between atoms: C_11  and  C_12 
ROOT
HETATM    1  N   UNL     1      43.378 -17.008   4.104  1.00  0.00    -0.254 N 
HETATM    2  C   UNL     1      43.441 -17.640   2.770  1.00  0.00     0.256 C 
HETATM    3  C   UNL     1      43.739 -19.131   2.788  1.00  0.00     0.034 A 
HETATM    4  C   UNL     1      44.219 -19.705   3.954  1.00  0.00     0.048 A 
HETATM    5  N   UNL     1      44.376 -18.911   5.073  1.00  0.00    -0.308 N 
HETATM    6  C   UNL     1      44.007 -17.606   5.189  1.00  0.00     0.330 C 
HETATM    7  O   UNL     1      44.241 -17.074   6.275  1.00  0.00    -0.246 OA
HETATM    8  C   UNL     1      43.615 -19.948   1.648  1.00  0.00     0.015 A 
HETATM    9  C   UNL     1      43.942 -21.306   1.702  1.00  0.00     0.001 A 
HETATM   10  C   UNL     1      44.418 -21.860   2.886  1.00  0.00     0.002 A 
HETATM   11  C   UNL     1      44.564 -21.057   4.015  1.00  0.00     0.030 A 
HETATM   12  H   UNL     1      44.792 -19.293   5.912  1.00  0.00     0.170 HD
ENDROOT
BRANCH   2  13
HETATM   13  C   UNL     1      42.070 -17.433   1.992  1.00  0.00     0.279 C 
HETATM   14  N   UNL     1      42.127 -16.696   0.827  1.00  0.00    -0.352 N 
HETATM   15  H   UNL     1      43.038 -16.514   0.420  1.00  0.00     0.162 HD
HETATM   16  O   UNL     1      41.007 -17.832   2.480  1.00  0.00    -0.268 OA
BRANCH  14  17
HETATM   17  C   UNL     1      40.962 -16.499  -0.001  1.00  0.00     0.161 C 
BRANCH  17  18
HETATM   18  C   UNL     1      41.191 -15.389  -0.993  1.00  0.00    -0.040 A 
HETATM   19  C   UNL     1      41.674 -14.140  -0.578  1.00  0.00     0.010 A 
HETATM   20  C   UNL     1      41.895 -13.124  -1.512  1.00  0.00     0.024 A 
HETATM   21  C   UNL     1      41.630 -13.350  -2.860  1.00  0.00     0.034 A 
HETATM   22 CL   UNL     1      41.909 -12.099  -4.008  1.00  0.00    -0.084 Cl
HETATM   23  C   UNL     1      41.141 -14.583  -3.286  1.00  0.00     0.024 A 
HETATM   24  C   UNL     1      40.920 -15.599  -2.354  1.00  0.00     0.010 A 
ENDBRANCH  17  18
ENDBRANCH  14  17
ENDBRANCH   2  13
BRANCH   2  25
HETATM   25  O   UNL     1      44.527 -17.053   2.051  1.00  0.00    -0.359 OA
HETATM   26  H   UNL     1      45.211 -16.882   2.726  1.00  0.00     0.213 HD
ENDBRANCH   2  25
BRANCH   1  27
HETATM   27  C   UNL     1      42.865 -15.655   4.239  1.00  0.00     0.045 A 
HETATM   28  C   UNL     1      41.672 -15.410   4.941  1.00  0.00     0.066 A 
HETATM   29  C   UNL     1      41.158 -14.118   5.088  1.00  0.00     0.070 A 
HETATM   30  C   UNL     1      41.791 -13.040   4.481  1.00  0.00     0.037 A 
HETATM   31  C   UNL     1      42.962 -13.256   3.764  1.00  0.00     0.005 A 
HETATM   32  C   UNL     1      43.495 -14.546   3.652  1.00  0.00     0.030 A 
BRANCH  29  33
HETATM   33  O   UNL     1      39.991 -14.000   5.794  1.00  0.00    -0.356 OA
HETATM   34  C   UNL     1      39.570 -12.645   5.947  1.00  0.00     0.210 C 
ENDBRANCH  29  33
ENDBRANCH   1  27
TORSDOF 6
ENDMDL
MODEL 5
REMARK VINA RESULT:      -8.4      2.081      2.829
REMARK  6 active torsions:
REMARK  status: ('A' for Active; 'I' for Inactive)
REMARK    1  A    between atoms: O_2  and  C_3 
REMARK    2  A    between atoms: C_5  and  N_6 
REMARK    3  A    between atoms: C_7  and  C_9 
REMARK    4  A    between atoms: C_7  and  O_8 
REMARK       I    between atoms: C_9  and  N_10 
REMARK    5  A    between atoms: N_10  and  C_11 
REMARK    6  A    between atoms: C_11  and  C_12 
ROOT
HETATM    1  N   UNL     1      41.131 -13.992   1.761  1.00  0.00    -0.254 N 
HETATM    2  C   UNL     1      40.911 -15.157   0.879  1.00  0.00     0.256 C 
HETATM    3  C   UNL     1      40.991 -14.851  -0.608  1.00  0.00     0.034 A 
HETATM    4  C   UNL     1      40.948 -13.531  -1.025  1.00  0.00     0.048 A 
HETATM    5  N   UNL     1      40.873 -12.533  -0.072  1.00  0.00    -0.308 N 
HETATM    6  C   UNL     1      40.935 -12.705   1.276  1.00  0.00     0.330 C 
HETATM    7  O   UNL     1      40.842 -11.680   1.955  1.00  0.00    -0.246 OA
HETATM    8  C   UNL     1      41.035 -15.857  -1.592  1.00  0.00     0.015 A 
HETATM    9  C   UNL     1      41.065 -15.528  -2.950  1.00  0.00     0.001 A 
HETATM   10  C   UNL     1      41.026 -14.194  -3.343  1.00  0.00     0.002 A 
HETATM   11  C   UNL     1      40.961 -13.191  -2.379  1.00  0.00     0.030 A 
HETATM   12  H   UNL     1      40.769 -11.568  -0.356  1.00  0.00     0.170 HD
ENDROOT
BRANCH   2  13
HETATM   13  C   UNL     1      41.971 -16.300   1.193  1.00  0.00     0.279 C 
HETATM   14  N   UNL     1      41.477 -17.468   1.734  1.00  0.00    -0.352 N 
HETATM   15  H   UNL     1      40.476 -17.623   1.704  1.00  0.00     0.162 HD
HETATM   16  O   UNL     1      43.180 -16.087   1.049  1.00  0.00    -0.268 OA
BRANCH  14  17
HETATM   17  C   UNL     1      42.331 -18.600   1.998  1.00  0.00     0.161 C 
BRANCH  17  18
HETATM   18  C   UNL     1      42.840 -18.570   3.415  1.00  0.00    -0.040 A 
HETATM   19  C   UNL     1      42.053 -18.050   4.452  1.00  0.00     0.010 A 
HETATM   20  C   UNL     1      42.533 -18.041   5.764  1.00  0.00     0.024 A 
HETATM   21  C   UNL     1      43.800 -18.545   6.044  1.00  0.00     0.034 A 
HETATM   22 CL   UNL     1      44.386 -18.538   7.662  1.00  0.00    -0.084 Cl
HETATM   23  C   UNL     1      44.597 -19.056   5.023  1.00  0.00     0.024 A 
HETATM   24  C   UNL     1      44.119 -19.066   3.711  1.00  0.00     0.010 A 
ENDBRANCH  17  18
ENDBRANCH  14  17
ENDBRANCH   2  13
BRANCH   2  25
HETATM   25  O   UNL     1      39.579 -15.628   1.091  1.00  0.00    -0.359 OA
HETATM   26  H   UNL     1      39.009 -14.858   0.909  1.00  0.00     0.213 HD
ENDBRANCH   2  25
BRANCH   1  27
HETATM   27  C   UNL     1      41.323 -14.191   3.188  1.00  0.00     0.045 A 
HETATM   28  C   UNL     1      42.599 -14.057   3.763  1.00  0.00     0.066 A 
HETATM   29  C   UNL     1      42.810 -14.242   5.133  1.00  0.00     0.070 A 
HETATM   30  C   UNL     1      41.760 -14.626   5.957  1.00  0.00     0.037 A 
HETATM   31  C   UNL     1      40.492 -14.785   5.411  1.00  0.00     0.005 A 
HETATM   32  C   UNL     1      40.275 -14.562   4.046  1.00  0.00     0.030 A 
BRANCH  29  33
HETATM   33  O   UNL     1      44.095 -14.083   5.580  1.00  0.00    -0.356 OA
HETATM   34  C   UNL     1      44.363 -14.829   6.768  1.00  0.00     0.210 C 
ENDBRANCH  29  33
ENDBRANCH   1  27
TORSDOF 6
ENDMDL
MODEL 6
REMARK VINA RESULT:      -8.2      3.075      6.765
REMARK  6 active torsions:
REMARK  status: ('A' for Active; 'I' for Inactive)
REMARK    1  A    between atoms: O_2  and  C_3 
REMARK    2  A    between atoms: C_5  and  N_6 
REMARK    3  A    between atoms: C_7  and  C_9 
REMARK    4  A    between atoms: C_7  and  O_8 
REMARK       I    between atoms: C_9  and  N_10 
REMARK    5  A    between atoms: N_10  and  C_11 
REMARK    6  A    between atoms: C_11  and  C_12 
ROOT
HETATM    1  N   UNL     1      43.506 -17.188   4.088  1.00  0.00    -0.254 N 
HETATM    2  C   UNL     1      43.534 -17.841   2.763  1.00  0.00     0.256 C 
HETATM    3  C   UNL     1      43.820 -19.334   2.797  1.00  0.00     0.034 A 
HETATM    4  C   UNL     1      44.321 -19.895   3.960  1.00  0.00     0.048 A 
HETATM    5  N   UNL     1      44.509 -19.085   5.064  1.00  0.00    -0.308 N 
HETATM    6  C   UNL     1      44.154 -17.775   5.167  1.00  0.00     0.330 C 
HETATM    7  O   UNL     1      44.417 -17.230   6.240  1.00  0.00    -0.246 OA
HETATM    8  C   UNL     1      43.664 -20.167   1.672  1.00  0.00     0.015 A 
HETATM    9  C   UNL     1      43.980 -21.526   1.739  1.00  0.00     0.001 A 
HETATM   10  C   UNL     1      44.477 -22.067   2.921  1.00  0.00     0.002 A 
HETATM   11  C   UNL     1      44.655 -21.249   4.034  1.00  0.00     0.030 A 
HETATM   12  H   UNL     1      44.940 -19.458   5.899  1.00  0.00     0.170 HD
ENDROOT
BRANCH   2  13
HETATM   13  C   UNL     1      42.148 -17.633   2.012  1.00  0.00     0.279 C 
HETATM   14  N   UNL     1      42.151 -16.764   0.941  1.00  0.00    -0.352 N 
HETATM   15  H   UNL     1      43.046 -16.478   0.559  1.00  0.00     0.162 HD
HETATM   16  O   UNL     1      41.116 -18.154   2.449  1.00  0.00    -0.268 OA
BRANCH  14  17
HETATM   17  C   UNL     1      40.971 -16.547   0.140  1.00  0.00     0.161 C 
BRANCH  17  18
HETATM   18  C   UNL     1      40.308 -15.244   0.503  1.00  0.00    -0.040 A 
HETATM   19  C   UNL     1      40.264 -14.180  -0.408  1.00  0.00     0.010 A 
HETATM   20  C   UNL     1      39.634 -12.982  -0.062  1.00  0.00     0.024 A 
HETATM   21  C   UNL     1      39.051 -12.840   1.195  1.00  0.00     0.034 A 
HETATM   22 CL   UNL     1      38.270 -11.366   1.616  1.00  0.00    -0.084 Cl
HETATM   23  C   UNL     1      39.096 -13.886   2.114  1.00  0.00     0.024 A 
HETATM   24  C   UNL     1      39.725 -15.084   1.769  1.00  0.00     0.010 A 
ENDBRANCH  17  18
ENDBRANCH  14  17
ENDBRANCH   2  13
BRANCH   2  25
HETATM   25  O   UNL     1      44.609 -17.274   2.011  1.00  0.00    -0.359 OA
HETATM   26  H   UNL     1      44.928 -18.000   1.443  1.00  0.00     0.213 HD
ENDBRANCH   2  25
BRANCH   1  27
HETATM   27  C   UNL     1      43.008 -15.829   4.214  1.00  0.00     0.045 A 
HETATM   28  C   UNL     1      41.852 -15.559   4.967  1.00  0.00     0.066 A 
HETATM   29  C   UNL     1      41.353 -14.260   5.105  1.00  0.00     0.070 A 
HETATM   30  C   UNL     1      41.961 -13.201   4.443  1.00  0.00     0.037 A 
HETATM   31  C   UNL     1      43.095 -13.443   3.675  1.00  0.00     0.005 A 
HETATM   32  C   UNL     1      43.616 -14.739   3.569  1.00  0.00     0.030 A 
BRANCH  29  33
HETATM   33  O   UNL     1      40.222 -14.117   5.864  1.00  0.00    -0.356 OA
HETATM   34  C   UNL     1      39.598 -12.845   5.694  1.00  0.00     0.210 C 
ENDBRANCH  29  33
ENDBRANCH   1  27
TORSDOF 6
ENDMDL
MODEL 7
REMARK VINA RESULT:      -8.0      1.710      2.590
REMARK  6 active torsions:
REMARK  status: ('A' for Active; 'I' for Inactive)
REMARK    1  A    between atoms: O_2  and  C_3 
REMARK    2  A    between atoms: C_5  and  N_6 
REMARK    3  A    between atoms: C_7  and  C_9 
REMARK    4  A    between atoms: C_7  and  O_8 
REMARK       I    between atoms: C_9  and  N_10 
REMARK    5  A    between atoms: N_10  and  C_11 
REMARK    6  A    between atoms: C_11  and  C_12 
ROOT
HETATM    1  N   UNL     1      39.851 -13.401   2.549  1.00  0.00    -0.254 N 
HETATM    2  C   UNL     1      39.574 -14.290   1.402  1.00  0.00     0.256 C 
HETATM    3  C   UNL     1      38.861 -13.621   0.237  1.00  0.00     0.034 A 
HETATM    4  C   UNL     1      38.267 -12.386   0.435  1.00  0.00     0.048 A 
HETATM    5  N   UNL     1      38.375 -11.785   1.675  1.00  0.00    -0.308 N 
HETATM    6  C   UNL     1      39.106 -12.243   2.727  1.00  0.00     0.330 C 
HETATM    7  O   UNL     1      39.063 -11.558   3.751  1.00  0.00    -0.246 OA
HETATM    8  C   UNL     1      38.715 -14.234  -1.022  1.00  0.00     0.015 A 
HETATM    9  C   UNL     1      38.014 -13.597  -2.050  1.00  0.00     0.001 A 
HETATM   10  C   UNL     1      37.431 -12.354  -1.828  1.00  0.00     0.002 A 
HETATM   11  C   UNL     1      37.551 -11.748  -0.580  1.00  0.00     0.030 A 
HETATM   12  H   UNL     1      37.889 -10.918   1.862  1.00  0.00     0.170 HD
ENDROOT
BRANCH   2  13
HETATM   13  C   UNL     1      40.926 -14.915   0.844  1.00  0.00     0.279 C 
HETATM   14  N   UNL     1      41.181 -16.229   1.174  1.00  0.00    -0.352 N 
HETATM   15  H   UNL     1      40.423 -16.782   1.557  1.00  0.00     0.162 HD
HETATM   16  O   UNL     1      41.737 -14.207   0.237  1.00  0.00    -0.268 OA
BRANCH  14  17
HETATM   17  C   UNL     1      42.341 -16.924   0.670  1.00  0.00     0.161 C 
BRANCH  17  18
HETATM   18  C   UNL     1      42.989 -17.743   1.755  1.00  0.00    -0.040 A 
HETATM   19  C   UNL     1      43.375 -19.070   1.522  1.00  0.00     0.010 A 
HETATM   20  C   UNL     1      43.988 -19.814   2.534  1.00  0.00     0.024 A 
HETATM   21  C   UNL     1      44.211 -19.238   3.782  1.00  0.00     0.034 A 
HETATM   22 CL   UNL     1      44.972 -20.154   5.025  1.00  0.00    -0.084 Cl
HETATM   23  C   UNL     1      43.824 -17.923   4.031  1.00  0.00     0.024 A 
HETATM   24  C   UNL     1      43.213 -17.179   3.020  1.00  0.00     0.010 A 
ENDBRANCH  17  18
ENDBRANCH  14  17
ENDBRANCH   2  13
BRANCH   2  25
HETATM   25  O   UNL     1      38.685 -15.318   1.841  1.00  0.00    -0.359 OA
HETATM   26  H   UNL     1      37.800 -14.907   1.826  1.00  0.00     0.213 HD
ENDBRANCH   2  25
BRANCH   1  27
HETATM   27  C   UNL     1      40.734 -13.847   3.613  1.00  0.00     0.045 A 
HETATM   28  C   UNL     1      40.325 -14.852   4.507  1.00  0.00     0.066 A 
HETATM   29  C   UNL     1      41.156 -15.300   5.538  1.00  0.00     0.070 A 
HETATM   30  C   UNL     1      42.397 -14.712   5.744  1.00  0.00     0.037 A 
HETATM   31  C   UNL     1      42.819 -13.702   4.886  1.00  0.00     0.005 A 
HETATM   32  C   UNL     1      42.001 -13.281   3.830  1.00  0.00     0.030 A 
BRANCH  29  33
HETATM   33  O   UNL     1      40.652 -16.285   6.346  1.00  0.00    -0.356 OA
HETATM   34  C   UNL     1      41.668 -17.113   6.910  1.00  0.00     0.210 C 
ENDBRANCH  29  33
ENDBRANCH   1  27
TORSDOF 6
ENDMDL
MODEL 8
REMARK VINA RESULT:      -8.0      2.148      5.394
REMARK  6 active torsions:
REMARK  status: ('A' for Active; 'I' for Inactive)
REMARK    1  A    between atoms: O_2  and  C_3 
REMARK    2  A    between atoms: C_5  and  N_6 
REMARK    3  A    between atoms: C_7  and  C_9 
REMARK    4  A    between atoms: C_7  and  O_8 
REMARK       I    between atoms: C_9  and  N_10 
REMARK    5  A    between atoms: N_10  and  C_11 
REMARK    6  A    between atoms: C_11  and  C_12 
ROOT
HETATM    1  N   UNL     1      42.350 -14.046   5.682  1.00  0.00    -0.254 N 
HETATM    2  C   UNL     1      43.702 -14.118   6.274  1.00  0.00     0.256 C 
HETATM    3  C   UNL     1      43.941 -13.159   7.429  1.00  0.00     0.034 A 
HETATM    4  C   UNL     1      43.048 -12.122   7.637  1.00  0.00     0.048 A 
HETATM    5  N   UNL     1      41.946 -12.015   6.809  1.00  0.00    -0.308 N 
HETATM    6  C   UNL     1      41.580 -12.900   5.842  1.00  0.00     0.330 C 
HETATM    7  O   UNL     1      40.563 -12.615   5.208  1.00  0.00    -0.246 OA
HETATM    8  C   UNL     1      45.075 -13.236   8.262  1.00  0.00     0.015 A 
HETATM    9  C   UNL     1      45.274 -12.306   9.286  1.00  0.00     0.001 A 
HETATM   10  C   UNL     1      44.358 -11.275   9.477  1.00  0.00     0.002 A 
HETATM   11  C   UNL     1      43.244 -11.178   8.646  1.00  0.00     0.030 A 
HETATM   12  H   UNL     1      41.321 -11.225   6.897  1.00  0.00     0.170 HD
ENDROOT
BRANCH   2  13
HETATM   13  C   UNL     1      44.001 -15.589   6.798  1.00  0.00     0.279 C 
HETATM   14  N   UNL     1      44.543 -16.471   5.887  1.00  0.00    -0.352 N 
HETATM   15  H   UNL     1      44.916 -16.096   5.022  1.00  0.00     0.162 HD
HETATM   16  O   UNL     1      43.659 -15.928   7.936  1.00  0.00    -0.268 OA
BRANCH  14  17
HETATM   17  C   UNL     1      44.921 -17.811   6.264  1.00  0.00     0.161 C 
BRANCH  17  18
HETATM   18  C   UNL     1      44.692 -18.772   5.127  1.00  0.00    -0.040 A 
HETATM   19  C   UNL     1      44.192 -18.326   3.896  1.00  0.00     0.010 A 
HETATM   20  C   UNL     1      43.998 -19.227   2.846  1.00  0.00     0.024 A 
HETATM   21  C   UNL     1      44.298 -20.576   3.022  1.00  0.00     0.034 A 
HETATM   22 CL   UNL     1      44.064 -21.682   1.725  1.00  0.00    -0.084 Cl
HETATM   23  C   UNL     1      44.787 -21.035   4.243  1.00  0.00     0.024 A 
HETATM   24  C   UNL     1      44.982 -20.135   5.293  1.00  0.00     0.010 A 
ENDBRANCH  17  18
ENDBRANCH  14  17
ENDBRANCH   2  13
BRANCH   2  25
HETATM   25  O   UNL     1      44.645 -13.735   5.272  1.00  0.00    -0.359 OA
HETATM   26  H   UNL     1      45.161 -14.543   5.090  1.00  0.00     0.213 HD
ENDBRANCH   2  25
BRANCH   1  27
HETATM   27  C   UNL     1      41.916 -15.066   4.743  1.00  0.00     0.045 A 
HETATM   28  C   UNL     1      42.260 -14.978   3.383  1.00  0.00     0.066 A 
HETATM   29  C   UNL     1      41.857 -15.947   2.459  1.00  0.00     0.070 A 
HETATM   30  C   UNL     1      41.043 -17.000   2.859  1.00  0.00     0.037 A 
HETATM   31  C   UNL     1      40.672 -17.101   4.195  1.00  0.00     0.005 A 
HETATM   32  C   UNL     1      41.109 -16.150   5.125  1.00  0.00     0.030 A 
BRANCH  29  33
HETATM   33  O   UNL     1      42.253 -15.758   1.162  1.00  0.00    -0.356 OA
HETATM   34  C   UNL     1      41.158 -15.521   0.277  1.00  0.00     0.210 C 
ENDBRANCH  29  33
ENDBRANCH   1  27
TORSDOF 6
ENDMDL
MODEL 9
REMARK VINA RESULT:      -7.9      3.421      7.461
REMARK  6 active torsions:
REMARK  status: ('A' for Active; 'I' for Inactive)
REMARK    1  A    between atoms: O_2  and  C_3 
REMARK    2  A    between atoms: C_5  and  N_6 
REMARK    3  A    between atoms: C_7  and  C_9 
REMARK    4  A    between atoms: C_7  and  O_8 
REMARK       I    between atoms: C_9  and  N_10 
REMARK    5  A    between atoms: N_10  and  C_11 
REMARK    6  A    between atoms: C_11  and  C_12 
ROOT
HETATM    1  N   UNL     1      40.984 -15.456   1.376  1.00  0.00    -0.254 N 
HETATM    2  C   UNL     1      41.033 -16.240   2.627  1.00  0.00     0.256 C 
HETATM    3  C   UNL     1      42.138 -17.283   2.678  1.00  0.00     0.034 A 
HETATM    4  C   UNL     1      42.786 -17.633   1.505  1.00  0.00     0.048 A 
HETATM    5  N   UNL     1      42.432 -16.995   0.332  1.00  0.00    -0.308 N 
HETATM    6  C   UNL     1      41.557 -15.959   0.215  1.00  0.00     0.330 C 
HETATM    7  O   UNL     1      41.374 -15.535  -0.927  1.00  0.00    -0.246 OA
HETATM    8  C   UNL     1      42.489 -17.965   3.859  1.00  0.00     0.015 A 
HETATM    9  C   UNL     1      43.483 -18.948   3.849  1.00  0.00     0.001 A 
HETATM   10  C   UNL     1      44.123 -19.277   2.658  1.00  0.00     0.002 A 
HETATM   11  C   UNL     1      43.769 -18.624   1.480  1.00  0.00     0.030 A 
HETATM   12  H   UNL     1      42.840 -17.285  -0.546  1.00  0.00     0.170 HD
ENDROOT
BRANCH   2  13
HETATM   13  C   UNL     1      41.220 -15.278   3.879  1.00  0.00     0.279 C 
HETATM   14  N   UNL     1      40.099 -15.035   4.643  1.00  0.00    -0.352 N 
HETATM   15  H   UNL     1      39.289 -15.629   4.507  1.00  0.00     0.162 HD
HETATM   16  O   UNL     1      42.300 -14.709   4.074  1.00  0.00    -0.268 OA
BRANCH  14  17
HETATM   17  C   UNL     1      40.159 -14.234   5.842  1.00  0.00     0.161 C 
BRANCH  17  18
HETATM   18  C   UNL     1      40.096 -12.766   5.510  1.00  0.00    -0.040 A 
HETATM   19  C   UNL     1      38.946 -12.205   4.938  1.00  0.00     0.010 A 
HETATM   20  C   UNL     1      38.897 -10.839   4.648  1.00  0.00     0.024 A 
HETATM   21  C   UNL     1      39.997 -10.031   4.923  1.00  0.00     0.034 A 
HETATM   22 CL   UNL     1      39.931  -8.348   4.571  1.00  0.00    -0.084 Cl
HETATM   23  C   UNL     1      41.150 -10.576   5.483  1.00  0.00     0.024 A 
HETATM   24  C   UNL     1      41.200 -11.940   5.774  1.00  0.00     0.010 A 
ENDBRANCH  17  18
ENDBRANCH  14  17
ENDBRANCH   2  13
BRANCH   2  25
HETATM   25  O   UNL     1      39.817 -16.982   2.734  1.00  0.00    -0.359 OA
HETATM   26  H   UNL     1      39.880 -17.669   2.044  1.00  0.00     0.213 HD
ENDBRANCH   2  25
BRANCH   1  27
HETATM   27  C   UNL     1      40.141 -14.275   1.296  1.00  0.00     0.045 A 
HETATM   28  C   UNL     1      40.705 -12.988   1.361  1.00  0.00     0.066 A 
HETATM   29  C   UNL     1      39.917 -11.836   1.284  1.00  0.00     0.070 A 
HETATM   30  C   UNL     1      38.533 -11.938   1.204  1.00  0.00     0.037 A 
HETATM   31  C   UNL     1      37.947 -13.198   1.158  1.00  0.00     0.005 A 
HETATM   32  C   UNL     1      38.742 -14.351   1.196  1.00  0.00     0.030 A 
BRANCH  29  33
HETATM   33  O   UNL     1      40.576 -10.638   1.356  1.00  0.00    -0.356 OA
HETATM   34  C   UNL     1      39.721  -9.520   1.120  1.00  0.00     0.210 C 
ENDBRANCH  29  33
ENDBRANCH   1  27
TORSDOF 6
ENDMDL
MODEL 10
REMARK VINA RESULT:      -7.9      3.210      6.820
REMARK  6 active torsions:
REMARK  status: ('A' for Active; 'I' for Inactive)
REMARK    1  A    between atoms: O_2  and  C_3 
REMARK    2  A    between atoms: C_5  and  N_6 
REMARK    3  A    between atoms: C_7  and  C_9 
REMARK    4  A    between atoms: C_7  and  O_8 
REMARK       I    between atoms: C_9  and  N_10 
REMARK    5  A    between atoms: N_10  and  C_11 
REMARK    6  A    between atoms: C_11  and  C_12 
ROOT
HETATM    1  N   UNL     1      42.335 -15.897   4.769  1.00  0.00    -0.254 N 
HETATM    2  C   UNL     1      42.650 -16.293   3.381  1.00  0.00     0.256 C 
HETATM    3  C   UNL     1      43.273 -17.673   3.240  1.00  0.00     0.034 A 
HETATM    4  C   UNL     1      43.771 -18.302   4.369  1.00  0.00     0.048 A 
HETATM    5  N   UNL     1      43.651 -17.671   5.592  1.00  0.00    -0.308 N 
HETATM    6  C   UNL     1      42.990 -16.506   5.832  1.00  0.00     0.330 C 
HETATM    7  O   UNL     1      43.007 -16.108   6.998  1.00  0.00    -0.246 OA
HETATM    8  C   UNL     1      43.432 -18.315   1.997  1.00  0.00     0.015 A 
HETATM    9  C   UNL     1      44.050 -19.566   1.912  1.00  0.00     0.001 A 
HETATM   10  C   UNL     1      44.537 -20.180   3.062  1.00  0.00     0.002 A 
HETATM   11  C   UNL     1      44.404 -19.544   4.294  1.00  0.00     0.030 A 
HETATM   12  H   UNL     1      44.071 -18.080   6.417  1.00  0.00     0.170 HD
ENDROOT
BRANCH   2  13
HETATM   13  C   UNL     1      41.337 -16.263   2.484  1.00  0.00     0.279 C 
HETATM   14  N   UNL     1      41.266 -15.273   1.527  1.00  0.00    -0.352 N 
HETATM   15  H   UNL     1      42.114 -14.765   1.300  1.00  0.00     0.162 HD
HETATM   16  O   UNL     1      40.401 -17.033   2.722  1.00  0.00    -0.268 OA
BRANCH  14  17
HETATM   17  C   UNL     1      40.157 -15.187   0.609  1.00  0.00     0.161 C 
BRANCH  17  18
HETATM   18  C   UNL     1      39.286 -14.000   0.929  1.00  0.00    -0.040 A 
HETATM   19  C   UNL     1      39.724 -13.003   1.811  1.00  0.00     0.010 A 
HETATM   20  C   UNL     1      38.911 -11.901   2.089  1.00  0.00     0.024 A 
HETATM   21  C   UNL     1      37.659 -11.792   1.490  1.00  0.00     0.034 A 
HETATM   22 CL   UNL     1      36.663 -10.430   1.828  1.00  0.00    -0.084 Cl
HETATM   23  C   UNL     1      37.207 -12.780   0.618  1.00  0.00     0.024 A 
HETATM   24  C   UNL     1      38.018 -13.882   0.339  1.00  0.00     0.010 A 
ENDBRANCH  17  18
ENDBRANCH  14  17
ENDBRANCH   2  13
BRANCH   2  25
HETATM   25  O   UNL     1      43.632 -15.388   2.873  1.00  0.00    -0.359 OA
HETATM   26  H   UNL     1      43.367 -15.223   1.949  1.00  0.00     0.213 HD
ENDBRANCH   2  25
BRANCH   1  27
HETATM   27  C   UNL     1      41.522 -14.719   5.018  1.00  0.00     0.045 A 
HETATM   28  C   UNL     1      42.047 -13.431   4.810  1.00  0.00     0.066 A 
HETATM   29  C   UNL     1      41.285 -12.282   5.040  1.00  0.00     0.070 A 
HETATM   30  C   UNL     1      39.995 -12.386   5.547  1.00  0.00     0.037 A 
HETATM   31  C   UNL     1      39.458 -13.647   5.781  1.00  0.00     0.005 A 
HETATM   32  C   UNL     1      40.210 -14.798   5.513  1.00  0.00     0.030 A 
BRANCH  29  33
HETATM   33  O   UNL     1      41.899 -11.082   4.800  1.00  0.00    -0.356 OA
HETATM   34  C   UNL     1      41.017  -9.969   4.941  1.00  0.00     0.210 C 
ENDBRANCH  29  33
ENDBRANCH   1  27
TORSDOF 6
ENDMDL
