MODEL 1
REMARK VINA RESULT:      -7.4      0.000      0.000
REMARK  7 active torsions:
REMARK  status: ('A' for Active; 'I' for Inactive)
REMARK    1  A    between atoms: C_8  and  C_9 
REMARK    2  A    between atoms: C_9  and  C_10 
REMARK    3  A    between atoms: C_10  and  C_11 
REMARK       I    between atoms: C_11  and  N_12 
REMARK    4  A    between atoms: N_12  and  C_13 
REMARK    5  A    between atoms: C_13  and  C_14 
REMARK    6  A    between atoms: C_14  and  N_15 
REMARK    7  A    between atoms: C_14  and  C_19 
ROOT
HETATM    1  C   UNL     1      42.338 -17.036   2.144  1.00  0.00     0.217 C 
HETATM    2  N   UNL     1      43.122 -16.251   2.951  1.00  0.00    -0.359 N 
HETATM    3  O   UNL     1      41.496 -16.543   1.395  1.00  0.00    -0.274 OA
HETATM    4  H   UNL     1      43.717 -16.726   3.625  1.00  0.00     0.162 HD
ENDROOT
BRANCH   2   5
HETATM    5  C   UNL     1      42.893 -14.818   3.158  1.00  0.00     0.160 C 
BRANCH   5   6
HETATM    6  C   UNL     1      42.172 -14.413   4.497  1.00  0.00     0.239 C 
BRANCH   6   7
HETATM    7  N   UNL     1      40.672 -14.177   4.274  1.00  0.00    -0.069 N 
HETATM    8  H   UNL     1      40.250 -15.128   4.334  1.00  0.00     0.279 HD
HETATM    9  C   UNL     1      39.941 -13.389   5.315  1.00  0.00     0.270 C 
HETATM   10  C   UNL     1      40.337 -13.707   2.891  1.00  0.00     0.270 C 
ENDBRANCH   6   7
BRANCH   6  11
HETATM   11  C   UNL     1      42.479 -15.374   5.639  1.00  0.00    -0.004 A 
HETATM   12  C   UNL     1      43.604 -15.211   6.473  1.00  0.00     0.042 A 
HETATM   13 CL   UNL     1      44.736 -13.924   6.257  1.00  0.00    -0.084 Cl
HETATM   14  C   UNL     1      43.855 -16.100   7.525  1.00  0.00     0.024 A 
HETATM   15  C   UNL     1      42.995 -17.168   7.763  1.00  0.00     0.002 A 
HETATM   16  C   UNL     1      41.883 -17.354   6.950  1.00  0.00     0.001 A 
HETATM   17  C   UNL     1      41.628 -16.470   5.898  1.00  0.00     0.011 A 
ENDBRANCH   6  11
ENDBRANCH   5   6
ENDBRANCH   2   5
BRANCH   1  18
HETATM   18  C   UNL     1      42.569 -18.521   2.252  1.00  0.00     0.107 C 
BRANCH  18  19
HETATM   19  C   UNL     1      44.065 -18.805   2.311  1.00  0.00     0.052 C 
BRANCH  19  20
HETATM   20  C   UNL     1      44.374 -20.024   3.109  1.00  0.00    -0.008 A 
HETATM   21  C   UNL     1      44.350 -21.345   2.700  1.00  0.00     0.032 A 
HETATM   22  C   UNL     1      44.033 -21.978   1.400  1.00  0.00     0.070 C 
HETATM   23  N   UNL     1      44.710 -22.082   3.795  1.00  0.00    -0.282 N 
HETATM   24  H   UNL     1      44.809 -23.090   3.873  1.00  0.00     0.189 HD
HETATM   25  N   UNL     1      44.953 -21.341   4.883  1.00  0.00    -0.179 NA
HETATM   26  C   UNL     1      44.765 -20.083   4.478  1.00  0.00     0.059 A 
HETATM   27  C   UNL     1      44.957 -18.961   5.431  1.00  0.00     0.073 C 
ENDBRANCH  19  20
ENDBRANCH  18  19
ENDBRANCH   1  18
TORSDOF 7
ENDMDL
MODEL 2
REMARK VINA RESULT:      -7.3      0.080      1.658
REMARK  7 active torsions:
REMARK  status: ('A' for Active; 'I' for Inactive)
REMARK    1  A    between atoms: C_8  and  C_9 
REMARK    2  A    between atoms: C_9  and  C_10 
REMARK    3  A    between atoms: C_10  and  C_11 
REMARK       I    between atoms: C_11  and  N_12 
REMARK    4  A    between atoms: N_12  and  C_13 
REMARK    5  A    between atoms: C_13  and  C_14 
REMARK    6  A    between atoms: C_14  and  N_15 
REMARK    7  A    between atoms: C_14  and  C_19 
ROOT
HETATM    1  C   UNL     1      42.272 -17.015   2.180  1.00  0.00     0.217 C 
HETATM    2  N   UNL     1      43.050 -16.229   2.992  1.00  0.00    -0.359 N 
HETATM    3  O   UNL     1      41.435 -16.523   1.425  1.00  0.00    -0.274 OA
HETATM    4  H   UNL     1      43.641 -16.703   3.671  1.00  0.00     0.162 HD
ENDROOT
BRANCH   2   5
HETATM    5  C   UNL     1      42.818 -14.796   3.197  1.00  0.00     0.160 C 
BRANCH   5   6
HETATM    6  C   UNL     1      42.132 -14.387   4.553  1.00  0.00     0.239 C 
BRANCH   6   7
HETATM    7  N   UNL     1      40.629 -14.136   4.365  1.00  0.00    -0.069 N 
HETATM    8  H   UNL     1      40.199 -15.082   4.444  1.00  0.00     0.279 HD
HETATM    9  C   UNL     1      39.934 -13.331   5.417  1.00  0.00     0.270 C 
HETATM   10  C   UNL     1      40.265 -13.675   2.987  1.00  0.00     0.270 C 
ENDBRANCH   6   7
BRANCH   6  11
HETATM   11  C   UNL     1      42.456 -15.354   5.686  1.00  0.00    -0.004 A 
HETATM   12  C   UNL     1      43.594 -15.197   6.502  1.00  0.00     0.042 A 
HETATM   13 CL   UNL     1      44.725 -13.911   6.273  1.00  0.00    -0.084 Cl
HETATM   14  C   UNL     1      43.861 -16.091   7.545  1.00  0.00     0.024 A 
HETATM   15  C   UNL     1      43.003 -17.159   7.793  1.00  0.00     0.002 A 
HETATM   16  C   UNL     1      41.878 -17.339   6.997  1.00  0.00     0.001 A 
HETATM   17  C   UNL     1      41.607 -16.450   5.954  1.00  0.00     0.011 A 
ENDBRANCH   6  11
ENDBRANCH   5   6
ENDBRANCH   2   5
BRANCH   1  18
HETATM   18  C   UNL     1      42.504 -18.500   2.290  1.00  0.00     0.107 C 
BRANCH  18  19
HETATM   19  C   UNL     1      44.001 -18.787   2.286  1.00  0.00     0.052 C 
BRANCH  19  20
HETATM   20  C   UNL     1      44.350 -19.959   3.137  1.00  0.00    -0.008 A 
HETATM   21  C   UNL     1      44.756 -19.967   4.459  1.00  0.00     0.032 A 
HETATM   22  C   UNL     1      44.969 -18.880   5.441  1.00  0.00     0.070 C 
HETATM   23  N   UNL     1      44.953 -21.282   4.781  1.00  0.00    -0.282 N 
HETATM   24  H   UNL     1      45.248 -21.676   5.670  1.00  0.00     0.189 HD
HETATM   25  N   UNL     1      44.719 -22.123   3.767  1.00  0.00    -0.179 NA
HETATM   26  C   UNL     1      44.338 -21.333   2.761  1.00  0.00     0.059 A 
HETATM   27  C   UNL     1      43.979 -21.925   1.448  1.00  0.00     0.073 C 
ENDBRANCH  19  20
ENDBRANCH  18  19
ENDBRANCH   1  18
TORSDOF 7
ENDMDL
MODEL 3
REMARK VINA RESULT:      -7.0      2.064      3.937
REMARK  7 active torsions:
REMARK  status: ('A' for Active; 'I' for Inactive)
REMARK    1  A    between atoms: C_8  and  C_9 
REMARK    2  A    between atoms: C_9  and  C_10 
REMARK    3  A    between atoms: C_10  and  C_11 
REMARK       I    between atoms: C_11  and  N_12 
REMARK    4  A    between atoms: N_12  and  C_13 
REMARK    5  A    between atoms: C_13  and  C_14 
REMARK    6  A    between atoms: C_14  and  N_15 
REMARK    7  A    between atoms: C_14  and  C_19 
ROOT
HETATM    1  C   UNL     1      43.239 -16.433   1.407  1.00  0.00     0.217 C 
HETATM    2  N   UNL     1      43.529 -15.694   2.527  1.00  0.00    -0.359 N 
HETATM    3  O   UNL     1      42.486 -16.003   0.535  1.00  0.00    -0.274 OA
HETATM    4  H   UNL     1      44.067 -16.152   3.259  1.00  0.00     0.162 HD
ENDROOT
BRANCH   2   5
HETATM    5  C   UNL     1      42.826 -14.461   2.889  1.00  0.00     0.160 C 
BRANCH   5   6
HETATM    6  C   UNL     1      41.450 -14.634   3.634  1.00  0.00     0.239 C 
BRANCH   6   7
HETATM    7  N   UNL     1      41.491 -14.006   5.035  1.00  0.00    -0.069 N 
HETATM    8  H   UNL     1      41.374 -12.986   4.862  1.00  0.00     0.279 HD
HETATM    9  C   UNL     1      40.375 -14.348   5.970  1.00  0.00     0.270 C 
HETATM   10  C   UNL     1      42.827 -14.120   5.705  1.00  0.00     0.270 C 
ENDBRANCH   6   7
BRANCH   6  11
HETATM   11  C   UNL     1      40.267 -14.176   2.791  1.00  0.00    -0.004 A 
HETATM   12  C   UNL     1      39.446 -15.086   2.095  1.00  0.00     0.042 A 
HETATM   13 CL   UNL     1      39.724 -16.791   2.125  1.00  0.00    -0.084 Cl
HETATM   14  C   UNL     1      38.355 -14.640   1.340  1.00  0.00     0.024 A 
HETATM   15  C   UNL     1      38.066 -13.281   1.257  1.00  0.00     0.002 A 
HETATM   16  C   UNL     1      38.865 -12.363   1.928  1.00  0.00     0.001 A 
HETATM   17  C   UNL     1      39.955 -12.803   2.684  1.00  0.00     0.011 A 
ENDBRANCH   6  11
ENDBRANCH   5   6
ENDBRANCH   2   5
BRANCH   1  18
HETATM   18  C   UNL     1      43.887 -17.791   1.334  1.00  0.00     0.107 C 
BRANCH  18  19
HETATM   19  C   UNL     1      43.014 -18.816   2.049  1.00  0.00     0.052 C 
BRANCH  19  20
HETATM   20  C   UNL     1      43.799 -19.664   2.988  1.00  0.00    -0.008 A 
HETATM   21  C   UNL     1      44.274 -20.948   2.792  1.00  0.00     0.032 A 
HETATM   22  C   UNL     1      44.181 -21.878   1.643  1.00  0.00     0.070 C 
HETATM   23  N   UNL     1      44.930 -21.285   3.944  1.00  0.00    -0.282 N 
HETATM   24  H   UNL     1      45.413 -22.151   4.165  1.00  0.00     0.189 HD
HETATM   25  N   UNL     1      44.905 -20.324   4.875  1.00  0.00    -0.179 NA
HETATM   26  C   UNL     1      44.231 -19.324   4.303  1.00  0.00     0.059 A 
HETATM   27  C   UNL     1      44.007 -18.060   5.048  1.00  0.00     0.073 C 
ENDBRANCH  19  20
ENDBRANCH  18  19
ENDBRANCH   1  18
TORSDOF 7
ENDMDL
MODEL 4
REMARK VINA RESULT:      -6.9      2.477      4.266
REMARK  7 active torsions:
REMARK  status: ('A' for Active; 'I' for Inactive)
REMARK    1  A    between atoms: C_8  and  C_9 
REMARK    2  A    between atoms: C_9  and  C_10 
REMARK    3  A    between atoms: C_10  and  C_11 
REMARK       I    between atoms: C_11  and  N_12 
REMARK    4  A    between atoms: N_12  and  C_13 
REMARK    5  A    between atoms: C_13  and  C_14 
REMARK    6  A    between atoms: C_14  and  N_15 
REMARK    7  A    between atoms: C_14  and  C_19 
ROOT
HETATM    1  C   UNL     1      42.934 -17.620   5.592  1.00  0.00     0.217 C 
HETATM    2  N   UNL     1      43.163 -16.966   4.407  1.00  0.00    -0.359 N 
HETATM    3  O   UNL     1      42.430 -17.043   6.553  1.00  0.00    -0.274 OA
HETATM    4  H   UNL     1      43.683 -17.469   3.692  1.00  0.00     0.162 HD
ENDROOT
BRANCH   2   5
HETATM    5  C   UNL     1      43.040 -15.515   4.245  1.00  0.00     0.160 C 
BRANCH   5   6
HETATM    6  C   UNL     1      41.629 -14.980   3.797  1.00  0.00     0.239 C 
BRANCH   6   7
HETATM    7  N   UNL     1      41.150 -13.840   4.706  1.00  0.00    -0.069 N 
HETATM    8  H   UNL     1      40.988 -13.043   4.055  1.00  0.00     0.279 HD
HETATM    9  C   UNL     1      39.834 -14.021   5.394  1.00  0.00     0.270 C 
HETATM   10  C   UNL     1      42.202 -13.342   5.651  1.00  0.00     0.270 C 
ENDBRANCH   6   7
BRANCH   6  11
HETATM   11  C   UNL     1      41.577 -14.644   2.312  1.00  0.00    -0.004 A 
HETATM   12  C   UNL     1      41.106 -15.563   1.352  1.00  0.00     0.042 A 
HETATM   13 CL   UNL     1      40.569 -17.149   1.777  1.00  0.00    -0.084 Cl
HETATM   14  C   UNL     1      41.054 -15.224  -0.004  1.00  0.00     0.024 A 
HETATM   15  C   UNL     1      41.475 -13.967  -0.432  1.00  0.00     0.002 A 
HETATM   16  C   UNL     1      41.951 -13.047   0.494  1.00  0.00     0.001 A 
HETATM   17  C   UNL     1      42.004 -13.380   1.850  1.00  0.00     0.011 A 
ENDBRANCH   6  11
ENDBRANCH   5   6
ENDBRANCH   2   5
BRANCH   1  18
HETATM   18  C   UNL     1      43.352 -19.068   5.631  1.00  0.00     0.107 C 
BRANCH  18  19
HETATM   19  C   UNL     1      44.611 -19.261   4.794  1.00  0.00     0.052 C 
BRANCH  19  20
HETATM   20  C   UNL     1      44.450 -20.340   3.780  1.00  0.00    -0.008 A 
HETATM   21  C   UNL     1      44.031 -20.227   2.467  1.00  0.00     0.032 A 
HETATM   22  C   UNL     1      43.623 -19.062   1.650  1.00  0.00     0.070 C 
HETATM   23  N   UNL     1      44.053 -21.497   1.958  1.00  0.00    -0.282 N 
HETATM   24  H   UNL     1      43.814 -21.803   1.019  1.00  0.00     0.189 HD
HETATM   25  N   UNL     1      44.441 -22.423   2.842  1.00  0.00    -0.179 NA
HETATM   26  C   UNL     1      44.699 -21.732   3.955  1.00  0.00     0.059 A 
HETATM   27  C   UNL     1      45.173 -22.438   5.172  1.00  0.00     0.073 C 
ENDBRANCH  19  20
ENDBRANCH  18  19
ENDBRANCH   1  18
TORSDOF 7
ENDMDL
MODEL 5
REMARK VINA RESULT:      -6.9      2.766      6.589
REMARK  7 active torsions:
REMARK  status: ('A' for Active; 'I' for Inactive)
REMARK    1  A    between atoms: C_8  and  C_9 
REMARK    2  A    between atoms: C_9  and  C_10 
REMARK    3  A    between atoms: C_10  and  C_11 
REMARK       I    between atoms: C_11  and  N_12 
REMARK    4  A    between atoms: N_12  and  C_13 
REMARK    5  A    between atoms: C_13  and  C_14 
REMARK    6  A    between atoms: C_14  and  N_15 
REMARK    7  A    between atoms: C_14  and  C_19 
ROOT
HETATM    1  C   UNL     1      43.143 -13.653   3.352  1.00  0.00     0.217 C 
HETATM    2  N   UNL     1      42.598 -14.785   2.799  1.00  0.00    -0.359 N 
HETATM    3  O   UNL     1      44.326 -13.610   3.684  1.00  0.00    -0.274 OA
HETATM    4  H   UNL     1      41.592 -14.792   2.651  1.00  0.00     0.162 HD
ENDROOT
BRANCH   2   5
HETATM    5  C   UNL     1      43.288 -16.077   2.752  1.00  0.00     0.160 C 
BRANCH   5   6
HETATM    6  C   UNL     1      42.379 -17.357   2.860  1.00  0.00     0.239 C 
BRANCH   6   7
HETATM    7  N   UNL     1      41.340 -17.401   1.731  1.00  0.00    -0.069 N 
HETATM    8  H   UNL     1      41.211 -18.416   1.538  1.00  0.00     0.279 HD
HETATM    9  C   UNL     1      39.962 -16.914   2.051  1.00  0.00     0.270 C 
HETATM   10  C   UNL     1      41.836 -16.835   0.435  1.00  0.00     0.270 C 
ENDBRANCH   6   7
BRANCH   6  11
HETATM   11  C   UNL     1      43.191 -18.639   2.996  1.00  0.00    -0.004 A 
HETATM   12  C   UNL     1      43.959 -18.921   4.144  1.00  0.00     0.042 A 
HETATM   13 CL   UNL     1      44.059 -17.830   5.480  1.00  0.00    -0.084 Cl
HETATM   14  C   UNL     1      44.684 -20.113   4.251  1.00  0.00     0.024 A 
HETATM   15  C   UNL     1      44.663 -21.044   3.216  1.00  0.00     0.002 A 
HETATM   16  C   UNL     1      43.919 -20.786   2.070  1.00  0.00     0.001 A 
HETATM   17  C   UNL     1      43.193 -19.597   1.959  1.00  0.00     0.011 A 
ENDBRANCH   6  11
ENDBRANCH   5   6
ENDBRANCH   2   5
BRANCH   1  18
HETATM   18  C   UNL     1      42.196 -12.494   3.535  1.00  0.00     0.107 C 
BRANCH  18  19
HETATM   19  C   UNL     1      40.760 -13.001   3.543  1.00  0.00     0.052 C 
BRANCH  19  20
HETATM   20  C   UNL     1      40.163 -12.976   4.907  1.00  0.00    -0.008 A 
HETATM   21  C   UNL     1      40.157 -13.980   5.859  1.00  0.00     0.032 A 
HETATM   22  C   UNL     1      40.714 -15.351   5.861  1.00  0.00     0.070 C 
HETATM   23  N   UNL     1      39.488 -13.468   6.937  1.00  0.00    -0.282 N 
HETATM   24  H   UNL     1      39.293 -13.915   7.828  1.00  0.00     0.189 HD
HETATM   25  N   UNL     1      39.050 -12.217   6.753  1.00  0.00    -0.179 NA
HETATM   26  C   UNL     1      39.465 -11.898   5.524  1.00  0.00     0.059 A 
HETATM   27  C   UNL     1      39.166 -10.555   4.967  1.00  0.00     0.073 C 
ENDBRANCH  19  20
ENDBRANCH  18  19
ENDBRANCH   1  18
TORSDOF 7
ENDMDL
MODEL 6
REMARK VINA RESULT:      -6.8      3.745      5.533
REMARK  7 active torsions:
REMARK  status: ('A' for Active; 'I' for Inactive)
REMARK    1  A    between atoms: C_8  and  C_9 
REMARK    2  A    between atoms: C_9  and  C_10 
REMARK    3  A    between atoms: C_10  and  C_11 
REMARK       I    between atoms: C_11  and  N_12 
REMARK    4  A    between atoms: N_12  and  C_13 
REMARK    5  A    between atoms: C_13  and  C_14 
REMARK    6  A    between atoms: C_14  and  N_15 
REMARK    7  A    between atoms: C_14  and  C_19 
ROOT
HETATM    1  C   UNL     1      43.080 -16.393   1.791  1.00  0.00     0.217 C 
HETATM    2  N   UNL     1      41.798 -16.383   1.301  1.00  0.00    -0.359 N 
HETATM    3  O   UNL     1      43.539 -15.427   2.399  1.00  0.00    -0.274 OA
HETATM    4  H   UNL     1      41.519 -17.165   0.713  1.00  0.00     0.162 HD
ENDROOT
BRANCH   2   5
HETATM    5  C   UNL     1      40.956 -15.185   1.259  1.00  0.00     0.160 C 
BRANCH   5   6
HETATM    6  C   UNL     1      40.406 -14.766  -0.155  1.00  0.00     0.239 C 
BRANCH   6   7
HETATM    7  N   UNL     1      38.916 -14.402  -0.090  1.00  0.00    -0.069 N 
HETATM    8  H   UNL     1      38.430 -15.320  -0.020  1.00  0.00     0.279 HD
HETATM    9  C   UNL     1      38.449 -13.649   1.115  1.00  0.00     0.270 C 
HETATM   10  C   UNL     1      38.390 -13.797  -1.356  1.00  0.00     0.270 C 
ENDBRANCH   6   7
BRANCH   6  11
HETATM   11  C   UNL     1      41.269 -13.703  -0.825  1.00  0.00    -0.004 A 
HETATM   12  C   UNL     1      41.710 -13.828  -2.158  1.00  0.00     0.042 A 
HETATM   13 CL   UNL     1      41.327 -15.201  -3.135  1.00  0.00    -0.084 Cl
HETATM   14  C   UNL     1      42.488 -12.830  -2.755  1.00  0.00     0.024 A 
HETATM   15  C   UNL     1      42.847 -11.693  -2.036  1.00  0.00     0.002 A 
HETATM   16  C   UNL     1      42.432 -11.551  -0.717  1.00  0.00     0.001 A 
HETATM   17  C   UNL     1      41.654 -12.545  -0.117  1.00  0.00     0.011 A 
ENDBRANCH   6  11
ENDBRANCH   5   6
ENDBRANCH   2   5
BRANCH   1  18
HETATM   18  C   UNL     1      43.873 -17.646   1.522  1.00  0.00     0.107 C 
BRANCH  18  19
HETATM   19  C   UNL     1      43.083 -18.863   1.984  1.00  0.00     0.052 C 
BRANCH  19  20
HETATM   20  C   UNL     1      43.827 -19.665   2.995  1.00  0.00    -0.008 A 
HETATM   21  C   UNL     1      44.346 -20.941   2.864  1.00  0.00     0.032 A 
HETATM   22  C   UNL     1      44.351 -21.902   1.738  1.00  0.00     0.070 C 
HETATM   23  N   UNL     1      44.934 -21.229   4.065  1.00  0.00    -0.282 N 
HETATM   24  H   UNL     1      45.425 -22.076   4.340  1.00  0.00     0.189 HD
HETATM   25  N   UNL     1      44.826 -20.246   4.966  1.00  0.00    -0.179 NA
HETATM   26  C   UNL     1      44.164 -19.280   4.324  1.00  0.00     0.059 A 
HETATM   27  C   UNL     1      43.860 -18.003   5.018  1.00  0.00     0.073 C 
ENDBRANCH  19  20
ENDBRANCH  18  19
ENDBRANCH   1  18
TORSDOF 7
ENDMDL
MODEL 7
REMARK VINA RESULT:      -6.8      3.725      5.724
REMARK  7 active torsions:
REMARK  status: ('A' for Active; 'I' for Inactive)
REMARK    1  A    between atoms: C_8  and  C_9 
REMARK    2  A    between atoms: C_9  and  C_10 
REMARK    3  A    between atoms: C_10  and  C_11 
REMARK       I    between atoms: C_11  and  N_12 
REMARK    4  A    between atoms: N_12  and  C_13 
REMARK    5  A    between atoms: C_13  and  C_14 
REMARK    6  A    between atoms: C_14  and  N_15 
REMARK    7  A    between atoms: C_14  and  C_19 
ROOT
HETATM    1  C   UNL     1      41.707 -17.373   1.996  1.00  0.00     0.217 C 
HETATM    2  N   UNL     1      41.057 -16.770   0.949  1.00  0.00    -0.359 N 
HETATM    3  O   UNL     1      41.773 -16.838   3.101  1.00  0.00    -0.274 OA
HETATM    4  H   UNL     1      41.135 -17.212   0.036  1.00  0.00     0.162 HD
ENDROOT
BRANCH   2   5
HETATM    5  C   UNL     1      40.585 -15.383   0.979  1.00  0.00     0.160 C 
BRANCH   5   6
HETATM    6  C   UNL     1      40.211 -14.743  -0.410  1.00  0.00     0.239 C 
BRANCH   6   7
HETATM    7  N   UNL     1      38.735 -14.322  -0.451  1.00  0.00    -0.069 N 
HETATM    8  H   UNL     1      38.221 -15.204  -0.660  1.00  0.00     0.279 HD
HETATM    9  C   UNL     1      38.126 -13.840   0.828  1.00  0.00     0.270 C 
HETATM   10  C   UNL     1      38.401 -13.416  -1.597  1.00  0.00     0.270 C 
ENDBRANCH   6   7
BRANCH   6  11
HETATM   11  C   UNL     1      41.176 -13.638  -0.821  1.00  0.00    -0.004 A 
HETATM   12  C   UNL     1      41.786 -13.612  -2.092  1.00  0.00     0.042 A 
HETATM   13 CL   UNL     1      41.507 -14.838  -3.277  1.00  0.00    -0.084 Cl
HETATM   14  C   UNL     1      42.657 -12.577  -2.451  1.00  0.00     0.024 A 
HETATM   15  C   UNL     1      42.941 -11.553  -1.552  1.00  0.00     0.002 A 
HETATM   16  C   UNL     1      42.358 -11.560  -0.290  1.00  0.00     0.001 A 
HETATM   17  C   UNL     1      41.487 -12.591   0.073  1.00  0.00     0.011 A 
ENDBRANCH   6  11
ENDBRANCH   5   6
ENDBRANCH   2   5
BRANCH   1  18
HETATM   18  C   UNL     1      42.336 -18.709   1.692  1.00  0.00     0.107 C 
BRANCH  18  19
HETATM   19  C   UNL     1      43.823 -18.662   2.019  1.00  0.00     0.052 C 
BRANCH  19  20
HETATM   20  C   UNL     1      44.194 -19.632   3.087  1.00  0.00    -0.008 A 
HETATM   21  C   UNL     1      44.393 -19.390   4.434  1.00  0.00     0.032 A 
HETATM   22  C   UNL     1      44.307 -18.155   5.246  1.00  0.00     0.070 C 
HETATM   23  N   UNL     1      44.714 -20.599   4.987  1.00  0.00    -0.282 N 
HETATM   24  H   UNL     1      44.922 -20.813   5.959  1.00  0.00     0.189 HD
HETATM   25  N   UNL     1      44.752 -21.602   4.102  1.00  0.00    -0.179 NA
HETATM   26  C   UNL     1      44.424 -21.031   2.940  1.00  0.00     0.059 A 
HETATM   27  C   UNL     1      44.352 -21.851   1.705  1.00  0.00     0.073 C 
ENDBRANCH  19  20
ENDBRANCH  18  19
ENDBRANCH   1  18
TORSDOF 7
ENDMDL
MODEL 8
REMARK VINA RESULT:      -6.7      2.907      6.567
REMARK  7 active torsions:
REMARK  status: ('A' for Active; 'I' for Inactive)
REMARK    1  A    between atoms: C_8  and  C_9 
REMARK    2  A    between atoms: C_9  and  C_10 
REMARK    3  A    between atoms: C_10  and  C_11 
REMARK       I    between atoms: C_11  and  N_12 
REMARK    4  A    between atoms: N_12  and  C_13 
REMARK    5  A    between atoms: C_13  and  C_14 
REMARK    6  A    between atoms: C_14  and  N_15 
REMARK    7  A    between atoms: C_14  and  C_19 
ROOT
HETATM    1  C   UNL     1      40.773 -15.107   4.325  1.00  0.00     0.217 C 
HETATM    2  N   UNL     1      41.133 -16.356   3.887  1.00  0.00    -0.359 N 
HETATM    3  O   UNL     1      41.016 -14.736   5.472  1.00  0.00    -0.274 OA
HETATM    4  H   UNL     1      40.804 -16.639   2.967  1.00  0.00     0.162 HD
ENDROOT
BRANCH   2   5
HETATM    5  C   UNL     1      41.626 -17.414   4.773  1.00  0.00     0.160 C 
BRANCH   5   6
HETATM    6  C   UNL     1      43.184 -17.473   4.989  1.00  0.00     0.239 C 
BRANCH   6   7
HETATM    7  N   UNL     1      43.568 -17.032   6.409  1.00  0.00    -0.069 N 
HETATM    8  H   UNL     1      44.304 -17.710   6.699  1.00  0.00     0.279 HD
HETATM    9  C   UNL     1      44.225 -15.696   6.555  1.00  0.00     0.270 C 
HETATM   10  C   UNL     1      42.471 -17.220   7.413  1.00  0.00     0.270 C 
ENDBRANCH   6   7
BRANCH   6  11
HETATM   11  C   UNL     1      43.779 -18.816   4.582  1.00  0.00    -0.004 A 
HETATM   12  C   UNL     1      44.023 -19.148   3.234  1.00  0.00     0.042 A 
HETATM   13 CL   UNL     1      43.648 -18.074   1.934  1.00  0.00    -0.084 Cl
HETATM   14  C   UNL     1      44.585 -20.382   2.887  1.00  0.00     0.024 A 
HETATM   15  C   UNL     1      44.910 -21.309   3.874  1.00  0.00     0.002 A 
HETATM   16  C   UNL     1      44.673 -21.007   5.210  1.00  0.00     0.001 A 
HETATM   17  C   UNL     1      44.112 -19.776   5.561  1.00  0.00     0.011 A 
ENDBRANCH   6  11
ENDBRANCH   5   6
ENDBRANCH   2   5
BRANCH   1  18
HETATM   18  C   UNL     1      40.056 -14.243   3.319  1.00  0.00     0.107 C 
BRANCH  18  19
HETATM   19  C   UNL     1      39.344 -15.124   2.300  1.00  0.00     0.052 C 
BRANCH  19  20
HETATM   20  C   UNL     1      39.436 -14.573   0.919  1.00  0.00    -0.008 A 
HETATM   21  C   UNL     1      38.560 -13.715   0.279  1.00  0.00     0.032 A 
HETATM   22  C   UNL     1      37.300 -13.073   0.715  1.00  0.00     0.070 C 
HETATM   23  N   UNL     1      39.085 -13.507  -0.967  1.00  0.00    -0.282 N 
HETATM   24  H   UNL     1      38.720 -12.927  -1.717  1.00  0.00     0.189 HD
HETATM   25  N   UNL     1      40.225 -14.174  -1.187  1.00  0.00    -0.179 NA
HETATM   26  C   UNL     1      40.458 -14.819  -0.041  1.00  0.00     0.059 A 
HETATM   27  C   UNL     1      41.666 -15.671   0.096  1.00  0.00     0.073 C 
ENDBRANCH  19  20
ENDBRANCH  18  19
ENDBRANCH   1  18
TORSDOF 7
ENDMDL
MODEL 9
REMARK VINA RESULT:      -6.7      3.764      6.004
REMARK  7 active torsions:
REMARK  status: ('A' for Active; 'I' for Inactive)
REMARK    1  A    between atoms: C_8  and  C_9 
REMARK    2  A    between atoms: C_9  and  C_10 
REMARK    3  A    between atoms: C_10  and  C_11 
REMARK       I    between atoms: C_11  and  N_12 
REMARK    4  A    between atoms: N_12  and  C_13 
REMARK    5  A    between atoms: C_13  and  C_14 
REMARK    6  A    between atoms: C_14  and  N_15 
REMARK    7  A    between atoms: C_14  and  C_19 
ROOT
HETATM    1  C   UNL     1      41.311 -17.254   2.151  1.00  0.00     0.217 C 
HETATM    2  N   UNL     1      40.656 -16.519   1.195  1.00  0.00    -0.359 N 
HETATM    3  O   UNL     1      41.277 -16.935   3.337  1.00  0.00    -0.274 OA
HETATM    4  H   UNL     1      40.816 -16.772   0.223  1.00  0.00     0.162 HD
ENDROOT
BRANCH   2   5
HETATM    5  C   UNL     1      40.055 -15.207   1.452  1.00  0.00     0.160 C 
BRANCH   5   6
HETATM    6  C   UNL     1      40.393 -14.071   0.416  1.00  0.00     0.239 C 
BRANCH   6   7
HETATM    7  N   UNL     1      41.813 -13.527   0.627  1.00  0.00    -0.069 N 
HETATM    8  H   UNL     1      42.427 -14.222   0.154  1.00  0.00     0.279 HD
HETATM    9  C   UNL     1      42.153 -12.230  -0.037  1.00  0.00     0.270 C 
HETATM   10  C   UNL     1      42.257 -13.547   2.057  1.00  0.00     0.270 C 
ENDBRANCH   6   7
BRANCH   6  11
HETATM   11  C   UNL     1      40.102 -14.486  -1.021  1.00  0.00    -0.004 A 
HETATM   12  C   UNL     1      38.941 -14.066  -1.701  1.00  0.00     0.042 A 
HETATM   13 CL   UNL     1      37.745 -13.065  -0.958  1.00  0.00    -0.084 Cl
HETATM   14  C   UNL     1      38.705 -14.448  -3.027  1.00  0.00     0.024 A 
HETATM   15  C   UNL     1      39.615 -15.260  -3.697  1.00  0.00     0.002 A 
HETATM   16  C   UNL     1      40.764 -15.694  -3.045  1.00  0.00     0.001 A 
HETATM   17  C   UNL     1      41.004 -15.314  -1.722  1.00  0.00     0.011 A 
ENDBRANCH   6  11
ENDBRANCH   5   6
ENDBRANCH   2   5
BRANCH   1  18
HETATM   18  C   UNL     1      42.075 -18.451   1.645  1.00  0.00     0.107 C 
BRANCH  18  19
HETATM   19  C   UNL     1      43.554 -18.294   1.979  1.00  0.00     0.052 C 
BRANCH  19  20
HETATM   20  C   UNL     1      43.995 -19.250   3.033  1.00  0.00    -0.008 A 
HETATM   21  C   UNL     1      44.227 -19.001   4.373  1.00  0.00     0.032 A 
HETATM   22  C   UNL     1      44.119 -17.770   5.189  1.00  0.00     0.070 C 
HETATM   23  N   UNL     1      44.611 -20.197   4.914  1.00  0.00    -0.282 N 
HETATM   24  H   UNL     1      44.858 -20.403   5.878  1.00  0.00     0.189 HD
HETATM   25  N   UNL     1      44.659 -21.197   4.026  1.00  0.00    -0.179 NA
HETATM   26  C   UNL     1      44.273 -20.639   2.877  1.00  0.00     0.059 A 
HETATM   27  C   UNL     1      44.193 -21.461   1.644  1.00  0.00     0.073 C 
ENDBRANCH  19  20
ENDBRANCH  18  19
ENDBRANCH   1  18
TORSDOF 7
ENDMDL
MODEL 10
REMARK VINA RESULT:      -6.7      1.660      2.098
REMARK  7 active torsions:
REMARK  status: ('A' for Active; 'I' for Inactive)
REMARK    1  A    between atoms: C_8  and  C_9 
REMARK    2  A    between atoms: C_9  and  C_10 
REMARK    3  A    between atoms: C_10  and  C_11 
REMARK       I    between atoms: C_11  and  N_12 
REMARK    4  A    between atoms: N_12  and  C_13 
REMARK    5  A    between atoms: C_13  and  C_14 
REMARK    6  A    between atoms: C_14  and  N_15 
REMARK    7  A    between atoms: C_14  and  C_19 
ROOT
HETATM    1  C   UNL     1      43.307 -16.717   1.338  1.00  0.00     0.217 C 
HETATM    2  N   UNL     1      43.395 -15.574   2.091  1.00  0.00    -0.359 N 
HETATM    3  O   UNL     1      42.578 -16.777   0.350  1.00  0.00    -0.274 OA
HETATM    4  H   UNL     1      43.928 -15.626   2.956  1.00  0.00     0.162 HD
ENDROOT
BRANCH   2   5
HETATM    5  C   UNL     1      42.498 -14.426   1.931  1.00  0.00     0.160 C 
BRANCH   5   6
HETATM    6  C   UNL     1      41.049 -14.584   2.526  1.00  0.00     0.239 C 
BRANCH   6   7
HETATM    7  N   UNL     1      40.057 -15.067   1.459  1.00  0.00    -0.069 N 
HETATM    8  H   UNL     1      40.229 -16.092   1.393  1.00  0.00     0.279 HD
HETATM    9  C   UNL     1      38.600 -14.963   1.783  1.00  0.00     0.270 C 
HETATM   10  C   UNL     1      40.354 -14.550   0.084  1.00  0.00     0.270 C 
ENDBRANCH   6   7
BRANCH   6  11
HETATM   11  C   UNL     1      41.031 -15.416   3.802  1.00  0.00    -0.004 A 
HETATM   12  C   UNL     1      41.136 -14.830   5.080  1.00  0.00     0.042 A 
HETATM   13 CL   UNL     1      41.316 -13.126   5.303  1.00  0.00    -0.084 Cl
HETATM   14  C   UNL     1      41.101 -15.615   6.238  1.00  0.00     0.024 A 
HETATM   15  C   UNL     1      40.965 -16.998   6.146  1.00  0.00     0.002 A 
HETATM   16  C   UNL     1      40.867 -17.600   4.897  1.00  0.00     0.001 A 
HETATM   17  C   UNL     1      40.902 -16.820   3.738  1.00  0.00     0.011 A 
ENDBRANCH   6  11
ENDBRANCH   5   6
ENDBRANCH   2   5
BRANCH   1  18
HETATM   18  C   UNL     1      44.143 -17.878   1.812  1.00  0.00     0.107 C 
BRANCH  18  19
HETATM   19  C   UNL     1      43.234 -19.006   2.285  1.00  0.00     0.052 C 
BRANCH  19  20
HETATM   20  C   UNL     1      43.962 -20.000   3.122  1.00  0.00    -0.008 A 
HETATM   21  C   UNL     1      44.348 -21.285   2.787  1.00  0.00     0.032 A 
HETATM   22  C   UNL     1      44.189 -22.079   1.547  1.00  0.00     0.070 C 
HETATM   23  N   UNL     1      44.982 -21.785   3.891  1.00  0.00    -0.282 N 
HETATM   24  H   UNL     1      45.406 -22.700   4.014  1.00  0.00     0.189 HD
HETATM   25  N   UNL     1      45.025 -20.929   4.918  1.00  0.00    -0.179 NA
HETATM   26  C   UNL     1      44.419 -19.831   4.461  1.00  0.00     0.059 A 
HETATM   27  C   UNL     1      44.283 -18.641   5.338  1.00  0.00     0.073 C 
ENDBRANCH  19  20
ENDBRANCH  18  19
ENDBRANCH   1  18
TORSDOF 7
ENDMDL
