MODEL 1
REMARK VINA RESULT:      -8.3      0.000      0.000
REMARK  5 active torsions:
REMARK  status: ('A' for Active; 'I' for Inactive)
REMARK    1  A    between atoms: O_2  and  C_3 
REMARK    2  A    between atoms: C_4  and  N_5 
REMARK    3  A    between atoms: N_5  and  C_6 
REMARK    4  A    between atoms: C_6  and  C_7 
REMARK       I    between atoms: C_7  and  N_8 
REMARK    5  A    between atoms: N_8  and  C_9 
ROOT
HETATM    1  C   UNL     1      40.907 -15.822   1.248  1.00  0.00     0.235 C 
HETATM    2  N   UNL     1      42.242 -16.185   1.317  1.00  0.00    -0.326 N 
HETATM    3  O   UNL     1      39.995 -16.262   1.944  1.00  0.00    -0.272 OA
HETATM    4  H   UNL     1      42.893 -15.584   0.826  1.00  0.00     0.169 HD
ENDROOT
BRANCH   1   5
HETATM    5  C   UNL     1      40.627 -14.766   0.171  1.00  0.00     0.195 C 
BRANCH   5   6
HETATM    6  N   UNL     1      41.751 -14.621  -0.752  1.00  0.00    -0.282 NA
HETATM    7  H   UNL     1      41.854 -15.449  -1.346  1.00  0.00     0.128 HD
BRANCH   6   8
HETATM    8  C   UNL     1      41.956 -13.467  -1.514  1.00  0.00     0.042 A 
HETATM    9  C   UNL     1      41.800 -13.532  -2.915  1.00  0.00     0.089 A 
HETATM   10  C   UNL     1      42.008 -12.424  -3.737  1.00  0.00     0.038 A 
HETATM   11  C   UNL     1      42.457 -11.233  -3.181  1.00  0.00     0.003 A 
HETATM   12  C   UNL     1      42.695 -11.160  -1.810  1.00  0.00     0.002 A 
HETATM   13  C   UNL     1      42.459 -12.272  -0.988  1.00  0.00     0.026 A 
BRANCH   9  14
HETATM   14  O   UNL     1      41.378 -14.693  -3.521  1.00  0.00    -0.354 OA
HETATM   15  C   UNL     1      39.954 -14.693  -3.658  1.00  0.00     0.210 C 
ENDBRANCH   9  14
ENDBRANCH   6   8
ENDBRANCH   5   6
ENDBRANCH   1   5
BRANCH   2  16
HETATM   16  C   UNL     1      42.805 -17.253   2.047  1.00  0.00     0.035 A 
HETATM   17  C   UNL     1      42.919 -18.557   1.559  1.00  0.00     0.042 A 
HETATM   18  C   UNL     1      43.539 -19.570   2.315  1.00  0.00    -0.024 A 
HETATM   19  C   UNL     1      44.058 -19.263   3.592  1.00  0.00    -0.026 A 
HETATM   20  C   UNL     1      43.658 -20.881   1.825  1.00  0.00     0.012 A 
HETATM   21  C   UNL     1      43.935 -17.956   4.082  1.00  0.00     0.014 A 
HETATM   22  C   UNL     1      44.688 -20.272   4.340  1.00  0.00     0.012 A 
HETATM   23  C   UNL     1      43.315 -16.963   3.316  1.00  0.00     0.030 A 
HETATM   24  C   UNL     1      44.800 -21.569   3.836  1.00  0.00     0.001 A 
HETATM   25  C   UNL     1      44.284 -21.873   2.580  1.00  0.00     0.001 A 
ENDBRANCH   2  16
TORSDOF 5
ENDMDL
MODEL 2
REMARK VINA RESULT:      -8.1      6.656      8.959
REMARK  5 active torsions:
REMARK  status: ('A' for Active; 'I' for Inactive)
REMARK    1  A    between atoms: O_2  and  C_3 
REMARK    2  A    between atoms: C_4  and  N_5 
REMARK    3  A    between atoms: N_5  and  C_6 
REMARK    4  A    between atoms: C_6  and  C_7 
REMARK       I    between atoms: C_7  and  N_8 
REMARK    5  A    between atoms: N_8  and  C_9 
ROOT
HETATM    1  C   UNL     1      44.830 -13.967   7.236  1.00  0.00     0.235 C 
HETATM    2  N   UNL     1      44.080 -15.127   7.340  1.00  0.00    -0.326 N 
HETATM    3  O   UNL     1      45.463 -13.593   6.252  1.00  0.00    -0.272 OA
HETATM    4  H   UNL     1      43.455 -15.184   8.134  1.00  0.00     0.169 HD
ENDROOT
BRANCH   1   5
HETATM    5  C   UNL     1      44.816 -13.126   8.521  1.00  0.00     0.195 C 
BRANCH   5   6
HETATM    6  N   UNL     1      43.777 -12.099   8.485  1.00  0.00    -0.282 NA
HETATM    7  H   UNL     1      42.908 -12.462   8.081  1.00  0.00     0.128 HD
BRANCH   6   8
HETATM    8  C   UNL     1      43.482 -11.288   9.584  1.00  0.00     0.042 A 
HETATM    9  C   UNL     1      42.290 -10.532   9.579  1.00  0.00     0.089 A 
HETATM   10  C   UNL     1      41.943  -9.687  10.634  1.00  0.00     0.038 A 
HETATM   11  C   UNL     1      42.824  -9.518  11.695  1.00  0.00     0.003 A 
HETATM   12  C   UNL     1      44.044 -10.191  11.691  1.00  0.00     0.002 A 
HETATM   13  C   UNL     1      44.373 -11.057  10.637  1.00  0.00     0.026 A 
BRANCH   9  14
HETATM   14  O   UNL     1      41.391 -10.645   8.543  1.00  0.00    -0.354 OA
HETATM   15  C   UNL     1      40.054 -10.690   9.049  1.00  0.00     0.210 C 
ENDBRANCH   9  14
ENDBRANCH   6   8
ENDBRANCH   5   6
ENDBRANCH   1   5
BRANCH   2  16
HETATM   16  C   UNL     1      44.037 -16.205   6.431  1.00  0.00     0.035 A 
HETATM   17  C   UNL     1      43.315 -16.190   5.236  1.00  0.00     0.042 A 
HETATM   18  C   UNL     1      43.353 -17.279   4.343  1.00  0.00    -0.024 A 
HETATM   19  C   UNL     1      44.139 -18.408   4.660  1.00  0.00    -0.026 A 
HETATM   20  C   UNL     1      42.630 -17.263   3.139  1.00  0.00     0.012 A 
HETATM   21  C   UNL     1      44.856 -18.423   5.865  1.00  0.00     0.014 A 
HETATM   22  C   UNL     1      44.186 -19.488   3.763  1.00  0.00     0.012 A 
HETATM   23  C   UNL     1      44.804 -17.333   6.739  1.00  0.00     0.030 A 
HETATM   24  C   UNL     1      43.464 -19.455   2.568  1.00  0.00     0.001 A 
HETATM   25  C   UNL     1      42.686 -18.345   2.258  1.00  0.00     0.001 A 
ENDBRANCH   2  16
TORSDOF 5
ENDMDL
MODEL 3
REMARK VINA RESULT:      -8.1      1.873      2.146
REMARK  5 active torsions:
REMARK  status: ('A' for Active; 'I' for Inactive)
REMARK    1  A    between atoms: O_2  and  C_3 
REMARK    2  A    between atoms: C_4  and  N_5 
REMARK    3  A    between atoms: N_5  and  C_6 
REMARK    4  A    between atoms: C_6  and  C_7 
REMARK       I    between atoms: C_7  and  N_8 
REMARK    5  A    between atoms: N_8  and  C_9 
ROOT
HETATM    1  C   UNL     1      41.565 -15.948   1.054  1.00  0.00     0.235 C 
HETATM    2  N   UNL     1      42.856 -16.377   1.317  1.00  0.00    -0.326 N 
HETATM    3  O   UNL     1      40.538 -16.353   1.595  1.00  0.00    -0.272 OA
HETATM    4  H   UNL     1      43.601 -15.802   0.944  1.00  0.00     0.169 HD
ENDROOT
BRANCH   1   5
HETATM    5  C   UNL     1      41.502 -14.864  -0.030  1.00  0.00     0.195 C 
BRANCH   5   6
HETATM    6  N   UNL     1      40.614 -15.245  -1.126  1.00  0.00    -0.282 NA
HETATM    7  H   UNL     1      40.258 -16.197  -1.004  1.00  0.00     0.128 HD
BRANCH   6   8
HETATM    8  C   UNL     1      39.588 -14.415  -1.587  1.00  0.00     0.042 A 
HETATM    9  C   UNL     1      39.258 -14.428  -2.959  1.00  0.00     0.089 A 
HETATM   10  C   UNL     1      38.258 -13.612  -3.490  1.00  0.00     0.038 A 
HETATM   11  C   UNL     1      37.610 -12.698  -2.667  1.00  0.00     0.003 A 
HETATM   12  C   UNL     1      37.970 -12.607  -1.324  1.00  0.00     0.002 A 
HETATM   13  C   UNL     1      38.958 -13.449  -0.794  1.00  0.00     0.026 A 
BRANCH   9  14
HETATM   14  O   UNL     1      39.882 -15.299  -3.823  1.00  0.00    -0.354 OA
HETATM   15  C   UNL     1      38.928 -16.192  -4.404  1.00  0.00     0.210 C 
ENDBRANCH   9  14
ENDBRANCH   6   8
ENDBRANCH   5   6
ENDBRANCH   1   5
BRANCH   2  16
HETATM   16  C   UNL     1      43.251 -17.481   2.101  1.00  0.00     0.035 A 
HETATM   17  C   UNL     1      43.381 -18.782   1.608  1.00  0.00     0.042 A 
HETATM   18  C   UNL     1      43.830 -19.834   2.428  1.00  0.00    -0.024 A 
HETATM   19  C   UNL     1      44.160 -19.572   3.775  1.00  0.00    -0.026 A 
HETATM   20  C   UNL     1      43.964 -21.142   1.932  1.00  0.00     0.012 A 
HETATM   21  C   UNL     1      44.021 -18.267   4.269  1.00  0.00     0.014 A 
HETATM   22  C   UNL     1      44.620 -20.621   4.589  1.00  0.00     0.012 A 
HETATM   23  C   UNL     1      43.571 -17.235   3.440  1.00  0.00     0.030 A 
HETATM   24  C   UNL     1      44.751 -21.914   4.079  1.00  0.00     0.001 A 
HETATM   25  C   UNL     1      44.422 -22.174   2.753  1.00  0.00     0.001 A 
ENDBRANCH   2  16
TORSDOF 5
ENDMDL
MODEL 4
REMARK VINA RESULT:      -8.1      1.411      2.121
REMARK  5 active torsions:
REMARK  status: ('A' for Active; 'I' for Inactive)
REMARK    1  A    between atoms: O_2  and  C_3 
REMARK    2  A    between atoms: C_4  and  N_5 
REMARK    3  A    between atoms: N_5  and  C_6 
REMARK    4  A    between atoms: C_6  and  C_7 
REMARK       I    between atoms: C_7  and  N_8 
REMARK    5  A    between atoms: N_8  and  C_9 
ROOT
HETATM    1  C   UNL     1      41.629 -16.777   0.785  1.00  0.00     0.235 C 
HETATM    2  N   UNL     1      42.905 -17.287   0.966  1.00  0.00    -0.326 N 
HETATM    3  O   UNL     1      40.678 -16.903   1.552  1.00  0.00    -0.272 OA
HETATM    4  H   UNL     1      43.622 -16.921   0.352  1.00  0.00     0.169 HD
ENDROOT
BRANCH   1   5
HETATM    5  C   UNL     1      41.476 -15.994  -0.527  1.00  0.00     0.195 C 
BRANCH   5   6
HETATM    6  N   UNL     1      41.323 -14.561  -0.288  1.00  0.00    -0.282 NA
HETATM    7  H   UNL     1      41.630 -14.306   0.655  1.00  0.00     0.128 HD
BRANCH   6   8
HETATM    8  C   UNL     1      41.756 -13.595  -1.201  1.00  0.00     0.042 A 
HETATM    9  C   UNL     1      42.291 -12.382  -0.715  1.00  0.00     0.089 A 
HETATM   10  C   UNL     1      42.724 -11.367  -1.570  1.00  0.00     0.038 A 
HETATM   11  C   UNL     1      42.560 -11.511  -2.943  1.00  0.00     0.003 A 
HETATM   12  C   UNL     1      41.963 -12.665  -3.447  1.00  0.00     0.002 A 
HETATM   13  C   UNL     1      41.554 -13.690  -2.582  1.00  0.00     0.026 A 
BRANCH   9  14
HETATM   14  O   UNL     1      42.456 -12.179   0.635  1.00  0.00    -0.354 OA
HETATM   15  C   UNL     1      41.478 -11.255   1.122  1.00  0.00     0.210 C 
ENDBRANCH   9  14
ENDBRANCH   6   8
ENDBRANCH   5   6
ENDBRANCH   1   5
BRANCH   2  16
HETATM   16  C   UNL     1      43.331 -18.205   1.948  1.00  0.00     0.035 A 
HETATM   17  C   UNL     1      43.510 -19.571   1.714  1.00  0.00     0.042 A 
HETATM   18  C   UNL     1      43.989 -20.429   2.723  1.00  0.00    -0.024 A 
HETATM   19  C   UNL     1      44.297 -19.901   3.995  1.00  0.00    -0.026 A 
HETATM   20  C   UNL     1      44.173 -21.802   2.489  1.00  0.00     0.012 A 
HETATM   21  C   UNL     1      44.108 -18.531   4.228  1.00  0.00     0.014 A 
HETATM   22  C   UNL     1      44.786 -20.756   4.997  1.00  0.00     0.012 A 
HETATM   23  C   UNL     1      43.630 -17.695   3.215  1.00  0.00     0.030 A 
HETATM   24  C   UNL     1      44.966 -22.118   4.746  1.00  0.00     0.001 A 
HETATM   25  C   UNL     1      44.659 -22.640   3.494  1.00  0.00     0.001 A 
ENDBRANCH   2  16
TORSDOF 5
ENDMDL
MODEL 5
REMARK VINA RESULT:      -8.1      2.612      3.539
REMARK  5 active torsions:
REMARK  status: ('A' for Active; 'I' for Inactive)
REMARK    1  A    between atoms: O_2  and  C_3 
REMARK    2  A    between atoms: C_4  and  N_5 
REMARK    3  A    between atoms: N_5  and  C_6 
REMARK    4  A    between atoms: C_6  and  C_7 
REMARK       I    between atoms: C_7  and  N_8 
REMARK    5  A    between atoms: N_8  and  C_9 
ROOT
HETATM    1  C   UNL     1      41.567 -16.918   0.853  1.00  0.00     0.235 C 
HETATM    2  N   UNL     1      42.875 -17.189   1.223  1.00  0.00    -0.326 N 
HETATM    3  O   UNL     1      40.553 -17.356   1.389  1.00  0.00    -0.272 OA
HETATM    4  H   UNL     1      43.585 -16.591   0.820  1.00  0.00     0.169 HD
ENDROOT
BRANCH   1   5
HETATM    5  C   UNL     1      41.468 -15.974  -0.353  1.00  0.00     0.195 C 
BRANCH   5   6
HETATM    6  N   UNL     1      41.744 -14.588   0.020  1.00  0.00    -0.282 NA
HETATM    7  H   UNL     1      41.945 -14.013  -0.804  1.00  0.00     0.128 HD
BRANCH   6   8
HETATM    8  C   UNL     1      40.936 -13.872   0.907  1.00  0.00     0.042 A 
HETATM    9  C   UNL     1      41.534 -13.211   2.001  1.00  0.00     0.089 A 
HETATM   10  C   UNL     1      40.785 -12.494   2.936  1.00  0.00     0.038 A 
HETATM   11  C   UNL     1      39.399 -12.485   2.841  1.00  0.00     0.003 A 
HETATM   12  C   UNL     1      38.774 -13.194   1.816  1.00  0.00     0.002 A 
HETATM   13  C   UNL     1      39.537 -13.891   0.868  1.00  0.00     0.026 A 
BRANCH   9  14
HETATM   14  O   UNL     1      42.901 -13.204   2.155  1.00  0.00    -0.354 OA
HETATM   15  C   UNL     1      43.271 -13.911   3.342  1.00  0.00     0.210 C 
ENDBRANCH   9  14
ENDBRANCH   6   8
ENDBRANCH   5   6
ENDBRANCH   1   5
BRANCH   2  16
HETATM   16  C   UNL     1      43.323 -18.156   2.148  1.00  0.00     0.035 A 
HETATM   17  C   UNL     1      43.496 -19.507   1.841  1.00  0.00     0.042 A 
HETATM   18  C   UNL     1      43.997 -20.416   2.793  1.00  0.00    -0.024 A 
HETATM   19  C   UNL     1      44.333 -19.953   4.084  1.00  0.00    -0.026 A 
HETATM   20  C   UNL     1      44.175 -21.775   2.485  1.00  0.00     0.012 A 
HETATM   21  C   UNL     1      44.151 -18.597   4.390  1.00  0.00     0.014 A 
HETATM   22  C   UNL     1      44.845 -20.858   5.029  1.00  0.00     0.012 A 
HETATM   23  C   UNL     1      43.650 -17.711   3.432  1.00  0.00     0.030 A 
HETATM   24  C   UNL     1      45.019 -22.205   4.704  1.00  0.00     0.001 A 
HETATM   25  C   UNL     1      44.683 -22.663   3.435  1.00  0.00     0.001 A 
ENDBRANCH   2  16
TORSDOF 5
ENDMDL
MODEL 6
REMARK VINA RESULT:      -8.0      2.893      4.071
REMARK  5 active torsions:
REMARK  status: ('A' for Active; 'I' for Inactive)
REMARK    1  A    between atoms: O_2  and  C_3 
REMARK    2  A    between atoms: C_4  and  N_5 
REMARK    3  A    between atoms: N_5  and  C_6 
REMARK    4  A    between atoms: C_6  and  C_7 
REMARK       I    between atoms: C_7  and  N_8 
REMARK    5  A    between atoms: N_8  and  C_9 
ROOT
HETATM    1  C   UNL     1      42.191 -15.462   5.448  1.00  0.00     0.235 C 
HETATM    2  N   UNL     1      43.243 -15.966   4.700  1.00  0.00    -0.326 N 
HETATM    3  O   UNL     1      41.460 -16.101   6.201  1.00  0.00    -0.272 OA
HETATM    4  H   UNL     1      43.872 -15.282   4.299  1.00  0.00     0.169 HD
ENDROOT
BRANCH   1   5
HETATM    5  C   UNL     1      41.988 -13.953   5.258  1.00  0.00     0.195 C 
BRANCH   5   6
HETATM    6  N   UNL     1      41.150 -13.660   4.097  1.00  0.00    -0.282 NA
HETATM    7  H   UNL     1      41.232 -12.678   3.817  1.00  0.00     0.128 HD
BRANCH   6   8
HETATM    8  C   UNL     1      41.128 -14.473   2.960  1.00  0.00     0.042 A 
HETATM    9  C   UNL     1      41.832 -14.061   1.808  1.00  0.00     0.089 A 
HETATM   10  C   UNL     1      41.836 -14.814   0.632  1.00  0.00     0.038 A 
HETATM   11  C   UNL     1      41.068 -15.969   0.556  1.00  0.00     0.003 A 
HETATM   12  C   UNL     1      40.300 -16.360   1.652  1.00  0.00     0.002 A 
HETATM   13  C   UNL     1      40.322 -15.610   2.837  1.00  0.00     0.026 A 
BRANCH   9  14
HETATM   14  O   UNL     1      42.592 -12.915   1.822  1.00  0.00    -0.354 OA
HETATM   15  C   UNL     1      42.038 -11.939   0.934  1.00  0.00     0.210 C 
ENDBRANCH   9  14
ENDBRANCH   6   8
ENDBRANCH   5   6
ENDBRANCH   1   5
BRANCH   2  16
HETATM   16  C   UNL     1      43.575 -17.321   4.490  1.00  0.00     0.035 A 
HETATM   17  C   UNL     1      43.265 -18.029   3.327  1.00  0.00     0.042 A 
HETATM   18  C   UNL     1      43.671 -19.367   3.155  1.00  0.00    -0.024 A 
HETATM   19  C   UNL     1      44.408 -20.005   4.175  1.00  0.00    -0.026 A 
HETATM   20  C   UNL     1      43.362 -20.079   1.984  1.00  0.00     0.012 A 
HETATM   21  C   UNL     1      44.711 -19.294   5.345  1.00  0.00     0.014 A 
HETATM   22  C   UNL     1      44.822 -21.336   3.996  1.00  0.00     0.012 A 
HETATM   23  C   UNL     1      44.298 -17.966   5.498  1.00  0.00     0.030 A 
HETATM   24  C   UNL     1      44.510 -22.028   2.825  1.00  0.00     0.001 A 
HETATM   25  C   UNL     1      43.779 -21.401   1.821  1.00  0.00     0.001 A 
ENDBRANCH   2  16
TORSDOF 5
ENDMDL
MODEL 7
REMARK VINA RESULT:      -8.0      3.462      4.046
REMARK  5 active torsions:
REMARK  status: ('A' for Active; 'I' for Inactive)
REMARK    1  A    between atoms: O_2  and  C_3 
REMARK    2  A    between atoms: C_4  and  N_5 
REMARK    3  A    between atoms: N_5  and  C_6 
REMARK    4  A    between atoms: C_6  and  C_7 
REMARK       I    between atoms: C_7  and  N_8 
REMARK    5  A    between atoms: N_8  and  C_9 
ROOT
HETATM    1  C   UNL     1      41.841 -15.661   5.392  1.00  0.00     0.235 C 
HETATM    2  N   UNL     1      42.825 -16.095   4.518  1.00  0.00    -0.326 N 
HETATM    3  O   UNL     1      41.308 -16.326   6.278  1.00  0.00    -0.272 OA
HETATM    4  H   UNL     1      43.304 -15.374   3.994  1.00  0.00     0.169 HD
ENDROOT
BRANCH   1   5
HETATM    5  C   UNL     1      41.435 -14.199   5.162  1.00  0.00     0.195 C 
BRANCH   5   6
HETATM    6  N   UNL     1      41.462 -13.846   3.744  1.00  0.00    -0.282 NA
HETATM    7  H   UNL     1      42.137 -14.421   3.230  1.00  0.00     0.128 HD
BRANCH   6   8
HETATM    8  C   UNL     1      40.300 -13.693   2.984  1.00  0.00     0.042 A 
HETATM    9  C   UNL     1      39.861 -14.765   2.177  1.00  0.00     0.089 A 
HETATM   10  C   UNL     1      38.720 -14.673   1.378  1.00  0.00     0.038 A 
HETATM   11  C   UNL     1      38.027 -13.470   1.307  1.00  0.00     0.003 A 
HETATM   12  C   UNL     1      38.482 -12.371   2.033  1.00  0.00     0.002 A 
HETATM   13  C   UNL     1      39.615 -12.480   2.852  1.00  0.00     0.026 A 
BRANCH   9  14
HETATM   14  O   UNL     1      40.521 -15.972   2.192  1.00  0.00    -0.354 OA
HETATM   15  C   UNL     1      41.090 -16.244   0.908  1.00  0.00     0.210 C 
ENDBRANCH   9  14
ENDBRANCH   6   8
ENDBRANCH   5   6
ENDBRANCH   1   5
BRANCH   2  16
HETATM   16  C   UNL     1      43.281 -17.416   4.327  1.00  0.00     0.035 A 
HETATM   17  C   UNL     1      43.000 -18.182   3.193  1.00  0.00     0.042 A 
HETATM   18  C   UNL     1      43.529 -19.477   3.035  1.00  0.00    -0.024 A 
HETATM   19  C   UNL     1      44.361 -20.014   4.041  1.00  0.00    -0.026 A 
HETATM   20  C   UNL     1      43.250 -20.247   1.894  1.00  0.00     0.012 A 
HETATM   21  C   UNL     1      44.635 -19.246   5.181  1.00  0.00     0.014 A 
HETATM   22  C   UNL     1      44.898 -21.302   3.876  1.00  0.00     0.012 A 
HETATM   23  C   UNL     1      44.099 -17.962   5.320  1.00  0.00     0.030 A 
HETATM   24  C   UNL     1      44.613 -22.053   2.733  1.00  0.00     0.001 A 
HETATM   25  C   UNL     1      43.789 -21.526   1.744  1.00  0.00     0.001 A 
ENDBRANCH   2  16
TORSDOF 5
ENDMDL
MODEL 8
REMARK VINA RESULT:      -7.9      2.042      2.650
REMARK  5 active torsions:
REMARK  status: ('A' for Active; 'I' for Inactive)
REMARK    1  A    between atoms: O_2  and  C_3 
REMARK    2  A    between atoms: C_4  and  N_5 
REMARK    3  A    between atoms: N_5  and  C_6 
REMARK    4  A    between atoms: C_6  and  C_7 
REMARK       I    between atoms: C_7  and  N_8 
REMARK    5  A    between atoms: N_8  and  C_9 
ROOT
HETATM    1  C   UNL     1      42.878 -14.176   2.748  1.00  0.00     0.235 C 
HETATM    2  N   UNL     1      42.310 -15.428   2.577  1.00  0.00    -0.326 N 
HETATM    3  O   UNL     1      44.015 -13.940   3.149  1.00  0.00    -0.272 OA
HETATM    4  H   UNL     1      41.450 -15.458   2.044  1.00  0.00     0.169 HD
ENDROOT
BRANCH   1   5
HETATM    5  C   UNL     1      41.927 -13.030   2.378  1.00  0.00     0.195 C 
BRANCH   5   6
HETATM    6  N   UNL     1      42.461 -12.211   1.292  1.00  0.00    -0.282 NA
HETATM    7  H   UNL     1      43.463 -12.038   1.414  1.00  0.00     0.128 HD
BRANCH   6   8
HETATM    8  C   UNL     1      42.190 -12.475  -0.054  1.00  0.00     0.042 A 
HETATM    9  C   UNL     1      42.804 -11.681  -1.046  1.00  0.00     0.089 A 
HETATM   10  C   UNL     1      42.563 -11.877  -2.407  1.00  0.00     0.038 A 
HETATM   11  C   UNL     1      41.635 -12.830  -2.808  1.00  0.00     0.003 A 
HETATM   12  C   UNL     1      40.955 -13.576  -1.848  1.00  0.00     0.002 A 
HETATM   13  C   UNL     1      41.222 -13.389  -0.483  1.00  0.00     0.026 A 
BRANCH   9  14
HETATM   14  O   UNL     1      43.716 -10.710  -0.703  1.00  0.00    -0.354 OA
HETATM   15  C   UNL     1      43.539  -9.551  -1.523  1.00  0.00     0.210 C 
ENDBRANCH   9  14
ENDBRANCH   6   8
ENDBRANCH   5   6
ENDBRANCH   1   5
BRANCH   2  16
HETATM   16  C   UNL     1      42.827 -16.670   3.000  1.00  0.00     0.035 A 
HETATM   17  C   UNL     1      42.946 -17.789   2.173  1.00  0.00     0.042 A 
HETATM   18  C   UNL     1      43.519 -18.988   2.640  1.00  0.00    -0.024 A 
HETATM   19  C   UNL     1      43.986 -19.061   3.970  1.00  0.00    -0.026 A 
HETATM   20  C   UNL     1      43.642 -20.113   1.808  1.00  0.00     0.012 A 
HETATM   21  C   UNL     1      43.859 -17.938   4.800  1.00  0.00     0.014 A 
HETATM   22  C   UNL     1      44.570 -20.253   4.431  1.00  0.00     0.012 A 
HETATM   23  C   UNL     1      43.285 -16.757   4.319  1.00  0.00     0.030 A 
HETATM   24  C   UNL     1      44.687 -21.361   3.589  1.00  0.00     0.001 A 
HETATM   25  C   UNL     1      44.223 -21.291   2.280  1.00  0.00     0.001 A 
ENDBRANCH   2  16
TORSDOF 5
ENDMDL
MODEL 9
REMARK VINA RESULT:      -7.9      1.837      3.027
REMARK  5 active torsions:
REMARK  status: ('A' for Active; 'I' for Inactive)
REMARK    1  A    between atoms: O_2  and  C_3 
REMARK    2  A    between atoms: C_4  and  N_5 
REMARK    3  A    between atoms: N_5  and  C_6 
REMARK    4  A    between atoms: C_6  and  C_7 
REMARK       I    between atoms: C_7  and  N_8 
REMARK    5  A    between atoms: N_8  and  C_9 
ROOT
HETATM    1  C   UNL     1      42.277 -15.704   3.307  1.00  0.00     0.235 C 
HETATM    2  N   UNL     1      43.491 -16.320   3.048  1.00  0.00    -0.326 N 
HETATM    3  O   UNL     1      41.255 -16.251   3.714  1.00  0.00    -0.272 OA
HETATM    4  H   UNL     1      44.284 -15.704   2.922  1.00  0.00     0.169 HD
ENDROOT
BRANCH   1   5
HETATM    5  C   UNL     1      42.298 -14.195   3.031  1.00  0.00     0.195 C 
BRANCH   5   6
HETATM    6  N   UNL     1      41.253 -13.801   2.090  1.00  0.00    -0.282 NA
HETATM    7  H   UNL     1      40.924 -12.849   2.276  1.00  0.00     0.128 HD
BRANCH   6   8
HETATM    8  C   UNL     1      41.369 -13.996   0.710  1.00  0.00     0.042 A 
HETATM    9  C   UNL     1      41.956 -12.985  -0.080  1.00  0.00     0.089 A 
HETATM   10  C   UNL     1      42.086 -13.106  -1.465  1.00  0.00     0.038 A 
HETATM   11  C   UNL     1      41.556 -14.219  -2.107  1.00  0.00     0.003 A 
HETATM   12  C   UNL     1      40.900 -15.197  -1.362  1.00  0.00     0.002 A 
HETATM   13  C   UNL     1      40.797 -15.078   0.032  1.00  0.00     0.026 A 
BRANCH   9  14
HETATM   14  O   UNL     1      42.479 -11.853   0.503  1.00  0.00    -0.354 OA
HETATM   15  C   UNL     1      41.738 -10.699   0.097  1.00  0.00     0.210 C 
ENDBRANCH   9  14
ENDBRANCH   6   8
ENDBRANCH   5   6
ENDBRANCH   1   5
BRANCH   2  16
HETATM   16  C   UNL     1      43.760 -17.704   3.006  1.00  0.00     0.035 A 
HETATM   17  C   UNL     1      44.143 -18.458   4.117  1.00  0.00     0.042 A 
HETATM   18  C   UNL     1      44.347 -19.849   4.024  1.00  0.00    -0.024 A 
HETATM   19  C   UNL     1      44.158 -20.495   2.783  1.00  0.00    -0.026 A 
HETATM   20  C   UNL     1      44.729 -20.609   5.141  1.00  0.00     0.012 A 
HETATM   21  C   UNL     1      43.781 -19.734   1.668  1.00  0.00     0.014 A 
HETATM   22  C   UNL     1      44.350 -21.884   2.694  1.00  0.00     0.012 A 
HETATM   23  C   UNL     1      43.585 -18.354   1.780  1.00  0.00     0.030 A 
HETATM   24  C   UNL     1      44.726 -22.626   3.816  1.00  0.00     0.001 A 
HETATM   25  C   UNL     1      44.917 -21.988   5.038  1.00  0.00     0.001 A 
ENDBRANCH   2  16
TORSDOF 5
ENDMDL
MODEL 10
REMARK VINA RESULT:      -7.8      5.229      7.748
REMARK  5 active torsions:
REMARK  status: ('A' for Active; 'I' for Inactive)
REMARK    1  A    between atoms: O_2  and  C_3 
REMARK    2  A    between atoms: C_4  and  N_5 
REMARK    3  A    between atoms: N_5  and  C_6 
REMARK    4  A    between atoms: C_6  and  C_7 
REMARK       I    between atoms: C_7  and  N_8 
REMARK    5  A    between atoms: N_8  and  C_9 
ROOT
HETATM    1  C   UNL     1      43.257 -14.147   4.949  1.00  0.00     0.235 C 
HETATM    2  N   UNL     1      42.651 -15.389   5.051  1.00  0.00    -0.326 N 
HETATM    3  O   UNL     1      43.989 -13.765   4.040  1.00  0.00    -0.272 OA
HETATM    4  H   UNL     1      41.918 -15.472   5.744  1.00  0.00     0.169 HD
ENDROOT
BRANCH   1   5
HETATM    5  C   UNL     1      42.931 -13.222   6.130  1.00  0.00     0.195 C 
BRANCH   5   6
HETATM    6  N   UNL     1      43.632 -13.626   7.346  1.00  0.00    -0.282 NA
HETATM    7  H   UNL     1      43.875 -14.622   7.323  1.00  0.00     0.128 HD
BRANCH   6   8
HETATM    8  C   UNL     1      44.698 -12.895   7.879  1.00  0.00     0.042 A 
HETATM    9  C   UNL     1      44.440 -11.942   8.887  1.00  0.00     0.089 A 
HETATM   10  C   UNL     1      45.454 -11.164   9.449  1.00  0.00     0.038 A 
HETATM   11  C   UNL     1      46.749 -11.267   8.958  1.00  0.00     0.003 A 
HETATM   12  C   UNL     1      47.019 -12.143   7.908  1.00  0.00     0.002 A 
HETATM   13  C   UNL     1      45.999 -12.939   7.367  1.00  0.00     0.026 A 
BRANCH   9  14
HETATM   14  O   UNL     1      43.172 -11.784   9.396  1.00  0.00    -0.354 OA
HETATM   15  C   UNL     1      42.565 -10.605   8.861  1.00  0.00     0.210 C 
ENDBRANCH   9  14
ENDBRANCH   6   8
ENDBRANCH   5   6
ENDBRANCH   1   5
BRANCH   2  16
HETATM   16  C   UNL     1      42.891 -16.529   4.254  1.00  0.00     0.035 A 
HETATM   17  C   UNL     1      43.643 -17.629   4.673  1.00  0.00     0.042 A 
HETATM   18  C   UNL     1      43.803 -18.761   3.851  1.00  0.00    -0.024 A 
HETATM   19  C   UNL     1      43.190 -18.788   2.579  1.00  0.00    -0.026 A 
HETATM   20  C   UNL     1      44.556 -19.870   4.271  1.00  0.00     0.012 A 
HETATM   21  C   UNL     1      42.443 -17.679   2.159  1.00  0.00     0.014 A 
HETATM   22  C   UNL     1      43.341 -19.924   1.765  1.00  0.00     0.012 A 
HETATM   23  C   UNL     1      42.297 -16.563   2.989  1.00  0.00     0.030 A 
HETATM   24  C   UNL     1      44.090 -21.019   2.201  1.00  0.00     0.001 A 
HETATM   25  C   UNL     1      44.698 -20.991   3.451  1.00  0.00     0.001 A 
ENDBRANCH   2  16
TORSDOF 5
ENDMDL
