MODEL 1
REMARK VINA RESULT:      -8.3      0.000      0.000
REMARK  1 active torsions:
REMARK  status: ('A' for Active; 'I' for Inactive)
REMARK    1  A    between atoms: C_5  and  N_6 
ROOT
HETATM    1  N   UNL     1      42.753 -16.983   5.673  1.00  0.00    -0.320 N 
HETATM    2  C   UNL     1      41.443 -16.692   5.160  1.00  0.00     0.141 C 
HETATM    3  N   UNL     1      40.632 -17.600   4.692  1.00  0.00    -0.380 N 
HETATM    4  H   UNL     1      40.919 -18.569   4.674  1.00  0.00     0.158 HD
HETATM    5  H   UNL     1      39.718 -17.328   4.358  1.00  0.00     0.158 HD
HETATM    6  S   UNL     1      41.035 -15.013   5.263  1.00  0.00    -0.086 SA
HETATM    7  C   UNL     1      42.762 -14.605   5.668  1.00  0.00     0.093 C 
HETATM    8  C   UNL     1      43.248 -15.841   6.455  1.00  0.00     0.121 C 
HETATM    9  C   UNL     1      43.133 -13.423   6.528  1.00  0.00     0.158 C 
HETATM   10  S   UNL     1      44.798 -13.879   7.061  1.00  0.00     0.147 S 
HETATM   11  O   UNL     1      45.756 -13.207   6.212  1.00  0.00    -0.228 OA
HETATM   12  O   UNL     1      44.845 -13.807   8.504  1.00  0.00    -0.228 OA
HETATM   13  C   UNL     1      44.738 -15.617   6.585  1.00  0.00     0.167 C 
ENDROOT
BRANCH   1  14
HETATM   14  C   UNL     1      43.263 -18.272   5.933  1.00  0.00     0.048 A 
HETATM   15  C   UNL     1      43.766 -19.082   4.871  1.00  0.00     0.001 A 
HETATM   16  C   UNL     1      44.186 -20.407   5.153  1.00  0.00    -0.024 A 
HETATM   17  C   UNL     1      43.894 -18.629   3.536  1.00  0.00     0.014 A 
HETATM   18  C   UNL     1      44.663 -21.230   4.119  1.00  0.00     0.012 A 
HETATM   19  C   UNL     1      44.132 -20.892   6.465  1.00  0.00     0.012 A 
HETATM   20  C   UNL     1      44.749 -20.761   2.810  1.00  0.00     0.001 A 
HETATM   21  C   UNL     1      44.371 -19.458   2.519  1.00  0.00     0.001 A 
HETATM   22  C   UNL     1      43.667 -20.091   7.501  1.00  0.00     0.003 A 
HETATM   23  C   UNL     1      43.233 -18.795   7.237  1.00  0.00     0.030 A 
ENDBRANCH   1  14
TORSDOF 1
ENDMDL
MODEL 2
REMARK VINA RESULT:      -7.3      2.870      3.531
REMARK  1 active torsions:
REMARK  status: ('A' for Active; 'I' for Inactive)
REMARK    1  A    between atoms: C_5  and  N_6 
ROOT
HETATM    1  N   UNL     1      41.722 -16.089   4.662  1.00  0.00    -0.320 N 
HETATM    2  C   UNL     1      40.603 -15.912   5.546  1.00  0.00     0.141 C 
HETATM    3  N   UNL     1      40.414 -16.620   6.624  1.00  0.00    -0.380 N 
HETATM    4  H   UNL     1      41.076 -17.343   6.872  1.00  0.00     0.158 HD
HETATM    5  H   UNL     1      39.612 -16.436   7.208  1.00  0.00     0.158 HD
HETATM    6  S   UNL     1      39.547 -14.633   5.050  1.00  0.00    -0.086 SA
HETATM    7  C   UNL     1      40.393 -14.540   3.441  1.00  0.00     0.093 C 
HETATM    8  C   UNL     1      41.851 -14.921   3.780  1.00  0.00     0.121 C 
HETATM    9  C   UNL     1      40.496 -13.257   2.655  1.00  0.00     0.158 C 
HETATM   10  S   UNL     1      41.885 -13.622   1.558  1.00  0.00     0.147 S 
HETATM   11  O   UNL     1      41.364 -14.039   0.276  1.00  0.00    -0.228 OA
HETATM   12  O   UNL     1      42.862 -12.566   1.702  1.00  0.00    -0.228 OA
HETATM   13  C   UNL     1      42.500 -15.079   2.424  1.00  0.00     0.167 C 
ENDROOT
BRANCH   1  14
HETATM   14  C   UNL     1      42.857 -16.883   4.927  1.00  0.00     0.048 A 
HETATM   15  C   UNL     1      43.177 -17.994   4.090  1.00  0.00     0.001 A 
HETATM   16  C   UNL     1      44.271 -18.828   4.436  1.00  0.00    -0.024 A 
HETATM   17  C   UNL     1      42.471 -18.308   2.904  1.00  0.00     0.014 A 
HETATM   18  C   UNL     1      44.590 -19.940   3.640  1.00  0.00     0.012 A 
HETATM   19  C   UNL     1      45.039 -18.536   5.570  1.00  0.00     0.012 A 
HETATM   20  C   UNL     1      43.855 -20.236   2.494  1.00  0.00     0.001 A 
HETATM   21  C   UNL     1      42.800 -19.416   2.121  1.00  0.00     0.001 A 
HETATM   22  C   UNL     1      44.741 -17.437   6.368  1.00  0.00     0.003 A 
HETATM   23  C   UNL     1      43.658 -16.621   6.051  1.00  0.00     0.030 A 
ENDBRANCH   1  14
TORSDOF 1
ENDMDL
MODEL 3
REMARK VINA RESULT:      -7.2      3.513      5.003
REMARK  1 active torsions:
REMARK  status: ('A' for Active; 'I' for Inactive)
REMARK    1  A    between atoms: C_5  and  N_6 
ROOT
HETATM    1  N   UNL     1      41.350 -13.812   4.749  1.00  0.00    -0.320 N 
HETATM    2  C   UNL     1      40.180 -13.299   5.405  1.00  0.00     0.141 C 
HETATM    3  N   UNL     1      39.910 -13.500   6.664  1.00  0.00    -0.380 N 
HETATM    4  H   UNL     1      40.542 -14.048   7.232  1.00  0.00     0.158 HD
HETATM    5  H   UNL     1      39.075 -13.099   7.066  1.00  0.00     0.158 HD
HETATM    6  S   UNL     1      39.179 -12.351   4.356  1.00  0.00    -0.086 SA
HETATM    7  C   UNL     1      40.129 -12.922   2.912  1.00  0.00     0.093 C 
HETATM    8  C   UNL     1      41.555 -13.112   3.473  1.00  0.00     0.121 C 
HETATM    9  C   UNL     1      40.304 -12.078   1.675  1.00  0.00     0.158 C 
HETATM   10  S   UNL     1      41.753 -12.848   0.921  1.00  0.00     0.147 S 
HETATM   11  O   UNL     1      41.310 -13.764  -0.106  1.00  0.00    -0.228 OA
HETATM   12  O   UNL     1      42.737 -11.816   0.678  1.00  0.00    -0.228 OA
HETATM   13  C   UNL     1      42.288 -13.810   2.349  1.00  0.00     0.167 C 
ENDROOT
BRANCH   1  14
HETATM   14  C   UNL     1      42.452 -14.413   5.392  1.00  0.00     0.048 A 
HETATM   15  C   UNL     1      42.598 -15.833   5.408  1.00  0.00     0.001 A 
HETATM   16  C   UNL     1      43.667 -16.409   6.141  1.00  0.00    -0.024 A 
HETATM   17  C   UNL     1      41.740 -16.715   4.708  1.00  0.00     0.014 A 
HETATM   18  C   UNL     1      43.816 -17.805   6.190  1.00  0.00     0.012 A 
HETATM   19  C   UNL     1      44.578 -15.584   6.811  1.00  0.00     0.012 A 
HETATM   20  C   UNL     1      42.935 -18.645   5.512  1.00  0.00     0.001 A 
HETATM   21  C   UNL     1      41.901 -18.100   4.764  1.00  0.00     0.001 A 
HETATM   22  C   UNL     1      44.449 -14.201   6.771  1.00  0.00     0.003 A 
HETATM   23  C   UNL     1      43.394 -13.621   6.071  1.00  0.00     0.030 A 
ENDBRANCH   1  14
TORSDOF 1
ENDMDL
MODEL 4
REMARK VINA RESULT:      -7.1      4.233      5.677
REMARK  1 active torsions:
REMARK  status: ('A' for Active; 'I' for Inactive)
REMARK    1  A    between atoms: C_5  and  N_6 
ROOT
HETATM    1  N   UNL     1      42.117 -14.870   2.762  1.00  0.00    -0.320 N 
HETATM    2  C   UNL     1      42.677 -13.739   3.450  1.00  0.00     0.141 C 
HETATM    3  N   UNL     1      43.765 -13.795   4.166  1.00  0.00    -0.380 N 
HETATM    4  H   UNL     1      44.260 -14.671   4.261  1.00  0.00     0.158 HD
HETATM    5  H   UNL     1      44.111 -12.958   4.614  1.00  0.00     0.158 HD
HETATM    6  S   UNL     1      41.774 -12.283   3.200  1.00  0.00    -0.086 SA
HETATM    7  C   UNL     1      40.416 -13.237   2.453  1.00  0.00     0.093 C 
HETATM    8  C   UNL     1      41.141 -14.413   1.763  1.00  0.00     0.121 C 
HETATM    9  C   UNL     1      39.510 -12.660   1.395  1.00  0.00     0.158 C 
HETATM   10  S   UNL     1      38.835 -14.161   0.648  1.00  0.00     0.147 S 
HETATM   11  O   UNL     1      37.535 -14.420   1.223  1.00  0.00    -0.228 OA
HETATM   12  O   UNL     1      39.062 -14.094  -0.779  1.00  0.00    -0.228 OA
HETATM   13  C   UNL     1      40.013 -15.332   1.351  1.00  0.00     0.167 C 
ENDROOT
BRANCH   1  14
HETATM   14  C   UNL     1      42.750 -16.118   2.589  1.00  0.00     0.048 A 
HETATM   15  C   UNL     1      42.851 -17.038   3.676  1.00  0.00     0.001 A 
HETATM   16  C   UNL     1      43.574 -18.245   3.495  1.00  0.00    -0.024 A 
HETATM   17  C   UNL     1      42.247 -16.826   4.938  1.00  0.00     0.014 A 
HETATM   18  C   UNL     1      43.706 -19.154   4.557  1.00  0.00     0.012 A 
HETATM   19  C   UNL     1      44.150 -18.533   2.251  1.00  0.00     0.012 A 
HETATM   20  C   UNL     1      43.122 -18.900   5.796  1.00  0.00     0.001 A 
HETATM   21  C   UNL     1      42.385 -17.739   5.985  1.00  0.00     0.001 A 
HETATM   22  C   UNL     1      44.026 -17.648   1.187  1.00  0.00     0.003 A 
HETATM   23  C   UNL     1      43.336 -16.450   1.355  1.00  0.00     0.030 A 
ENDBRANCH   1  14
TORSDOF 1
ENDMDL
MODEL 5
REMARK VINA RESULT:      -6.9      3.071      4.345
REMARK  1 active torsions:
REMARK  status: ('A' for Active; 'I' for Inactive)
REMARK    1  A    between atoms: C_5  and  N_6 
ROOT
HETATM    1  N   UNL     1      41.280 -16.156   3.950  1.00  0.00    -0.320 N 
HETATM    2  C   UNL     1      40.482 -15.880   5.112  1.00  0.00     0.141 C 
HETATM    3  N   UNL     1      40.321 -16.721   6.095  1.00  0.00    -0.380 N 
HETATM    4  H   UNL     1      40.769 -17.626   6.060  1.00  0.00     0.158 HD
HETATM    5  H   UNL     1      39.756 -16.457   6.889  1.00  0.00     0.158 HD
HETATM    6  S   UNL     1      39.784 -14.295   5.090  1.00  0.00    -0.086 SA
HETATM    7  C   UNL     1      40.256 -14.096   3.344  1.00  0.00     0.093 C 
HETATM    8  C   UNL     1      41.567 -14.906   3.232  1.00  0.00     0.121 C 
HETATM    9  C   UNL     1      40.574 -12.752   2.740  1.00  0.00     0.158 C 
HETATM   10  S   UNL     1      41.519 -13.232   1.278  1.00  0.00     0.147 S 
HETATM   11  O   UNL     1      40.637 -13.225   0.133  1.00  0.00    -0.228 OA
HETATM   12  O   UNL     1      42.778 -12.520   1.302  1.00  0.00    -0.228 OA
HETATM   13  C   UNL     1      41.833 -14.945   1.744  1.00  0.00     0.167 C 
ENDROOT
BRANCH   1  14
HETATM   14  C   UNL     1      42.149 -17.255   3.796  1.00  0.00     0.048 A 
HETATM   15  C   UNL     1      43.194 -17.493   4.740  1.00  0.00     0.001 A 
HETATM   16  C   UNL     1      44.108 -18.552   4.507  1.00  0.00    -0.024 A 
HETATM   17  C   UNL     1      43.364 -16.737   5.924  1.00  0.00     0.014 A 
HETATM   18  C   UNL     1      45.157 -18.790   5.410  1.00  0.00     0.012 A 
HETATM   19  C   UNL     1      43.959 -19.367   3.377  1.00  0.00     0.012 A 
HETATM   20  C   UNL     1      45.312 -18.007   6.552  1.00  0.00     0.001 A 
HETATM   21  C   UNL     1      44.410 -16.985   6.814  1.00  0.00     0.001 A 
HETATM   22  C   UNL     1      42.924 -19.150   2.475  1.00  0.00     0.003 A 
HETATM   23  C   UNL     1      42.030 -18.102   2.680  1.00  0.00     0.030 A 
ENDBRANCH   1  14
TORSDOF 1
ENDMDL
MODEL 6
REMARK VINA RESULT:      -6.9      6.126      7.345
REMARK  1 active torsions:
REMARK  status: ('A' for Active; 'I' for Inactive)
REMARK    1  A    between atoms: C_5  and  N_6 
ROOT
HETATM    1  N   UNL     1      41.113 -14.481  -0.922  1.00  0.00    -0.320 N 
HETATM    2  C   UNL     1      40.824 -15.018  -2.223  1.00  0.00     0.141 C 
HETATM    3  N   UNL     1      40.323 -16.205  -2.420  1.00  0.00    -0.380 N 
HETATM    4  H   UNL     1      40.122 -16.803  -1.630  1.00  0.00     0.158 HD
HETATM    5  H   UNL     1      40.133 -16.516  -3.362  1.00  0.00     0.158 HD
HETATM    6  S   UNL     1      41.175 -13.908  -3.505  1.00  0.00    -0.086 SA
HETATM    7  C   UNL     1      42.059 -12.823  -2.341  1.00  0.00     0.093 C 
HETATM    8  C   UNL     1      41.298 -13.026  -1.012  1.00  0.00     0.121 C 
HETATM    9  C   UNL     1      42.133 -11.328  -2.525  1.00  0.00     0.158 C 
HETATM   10  S   UNL     1      42.550 -10.783  -0.854  1.00  0.00     0.147 S 
HETATM   11  O   UNL     1      43.977 -10.564  -0.782  1.00  0.00    -0.228 OA
HETATM   12  O   UNL     1      41.582  -9.787  -0.450  1.00  0.00    -0.228 OA
HETATM   13  C   UNL     1      42.167 -12.321   0.005  1.00  0.00     0.167 C 
ENDROOT
BRANCH   1  14
HETATM   14  C   UNL     1      40.719 -15.053   0.305  1.00  0.00     0.048 A 
HETATM   15  C   UNL     1      41.497 -16.087   0.908  1.00  0.00     0.001 A 
HETATM   16  C   UNL     1      41.025 -16.705   2.094  1.00  0.00    -0.024 A 
HETATM   17  C   UNL     1      42.741 -16.528   0.396  1.00  0.00     0.014 A 
HETATM   18  C   UNL     1      41.762 -17.741   2.691  1.00  0.00     0.012 A 
HETATM   19  C   UNL     1      39.826 -16.275   2.675  1.00  0.00     0.012 A 
HETATM   20  C   UNL     1      42.970 -18.169   2.145  1.00  0.00     0.001 A 
HETATM   21  C   UNL     1      43.464 -17.557   1.001  1.00  0.00     0.001 A 
HETATM   22  C   UNL     1      39.085 -15.248   2.101  1.00  0.00     0.003 A 
HETATM   23  C   UNL     1      39.526 -14.646   0.925  1.00  0.00     0.030 A 
ENDBRANCH   1  14
TORSDOF 1
ENDMDL
MODEL 7
REMARK VINA RESULT:      -6.8      5.692      7.408
REMARK  1 active torsions:
REMARK  status: ('A' for Active; 'I' for Inactive)
REMARK    1  A    between atoms: C_5  and  N_6 
ROOT
HETATM    1  N   UNL     1      41.305 -14.298   1.904  1.00  0.00    -0.320 N 
HETATM    2  C   UNL     1      42.203 -13.225   2.231  1.00  0.00     0.141 C 
HETATM    3  N   UNL     1      42.124 -12.032   1.711  1.00  0.00    -0.380 N 
HETATM    4  H   UNL     1      41.401 -11.826   1.034  1.00  0.00     0.158 HD
HETATM    5  H   UNL     1      42.781 -11.320   1.994  1.00  0.00     0.158 HD
HETATM    6  S   UNL     1      43.382 -13.670   3.418  1.00  0.00    -0.086 SA
HETATM    7  C   UNL     1      42.920 -15.421   3.240  1.00  0.00     0.093 C 
HETATM    8  C   UNL     1      41.413 -15.363   2.911  1.00  0.00     0.121 C 
HETATM    9  C   UNL     1      43.035 -16.407   4.375  1.00  0.00     0.158 C 
HETATM   10  S   UNL     1      41.916 -17.715   3.826  1.00  0.00     0.147 S 
HETATM   11  O   UNL     1      42.697 -18.762   3.207  1.00  0.00    -0.228 OA
HETATM   12  O   UNL     1      40.965 -17.968   4.886  1.00  0.00    -0.228 OA
HETATM   13  C   UNL     1      41.078 -16.787   2.527  1.00  0.00     0.167 C 
ENDROOT
BRANCH   1  14
HETATM   14  C   UNL     1      40.116 -14.171   1.157  1.00  0.00     0.048 A 
HETATM   15  C   UNL     1      40.124 -14.354  -0.259  1.00  0.00     0.001 A 
HETATM   16  C   UNL     1      38.931 -14.129  -0.992  1.00  0.00    -0.024 A 
HETATM   17  C   UNL     1      41.264 -14.773  -0.985  1.00  0.00     0.014 A 
HETATM   18  C   UNL     1      38.922 -14.280  -2.388  1.00  0.00     0.012 A 
HETATM   19  C   UNL     1      37.758 -13.762  -0.320  1.00  0.00     0.012 A 
HETATM   20  C   UNL     1      40.071 -14.667  -3.075  1.00  0.00     0.001 A 
HETATM   21  C   UNL     1      41.240 -14.921  -2.373  1.00  0.00     0.001 A 
HETATM   22  C   UNL     1      37.746 -13.612   1.062  1.00  0.00     0.003 A 
HETATM   23  C   UNL     1      38.915 -13.811   1.793  1.00  0.00     0.030 A 
ENDBRANCH   1  14
TORSDOF 1
ENDMDL
MODEL 8
REMARK VINA RESULT:      -6.7      4.704      5.827
REMARK  1 active torsions:
REMARK  status: ('A' for Active; 'I' for Inactive)
REMARK    1  A    between atoms: C_5  and  N_6 
ROOT
HETATM    1  N   UNL     1      40.606 -14.396   1.725  1.00  0.00    -0.320 N 
HETATM    2  C   UNL     1      39.263 -14.838   1.475  1.00  0.00     0.141 C 
HETATM    3  N   UNL     1      38.740 -15.904   2.012  1.00  0.00    -0.380 N 
HETATM    4  H   UNL     1      39.292 -16.472   2.641  1.00  0.00     0.158 HD
HETATM    5  H   UNL     1      37.783 -16.151   1.802  1.00  0.00     0.158 HD
HETATM    6  S   UNL     1      38.393 -13.784   0.411  1.00  0.00    -0.086 SA
HETATM    7  C   UNL     1      39.935 -12.914  -0.009  1.00  0.00     0.093 C 
HETATM    8  C   UNL     1      40.762 -13.000   1.292  1.00  0.00     0.121 C 
HETATM    9  C   UNL     1      39.962 -11.456  -0.393  1.00  0.00     0.158 C 
HETATM   10  S   UNL     1      41.693 -11.039  -0.089  1.00  0.00     0.147 S 
HETATM   11  O   UNL     1      42.410 -11.095  -1.343  1.00  0.00    -0.228 OA
HETATM   12  O   UNL     1      41.732  -9.887   0.786  1.00  0.00    -0.228 OA
HETATM   13  C   UNL     1      42.127 -12.496   0.880  1.00  0.00     0.167 C 
ENDROOT
BRANCH   1  14
HETATM   14  C   UNL     1      41.466 -14.911   2.717  1.00  0.00     0.048 A 
HETATM   15  C   UNL     1      42.332 -16.009   2.429  1.00  0.00     0.001 A 
HETATM   16  C   UNL     1      43.116 -16.564   3.473  1.00  0.00    -0.024 A 
HETATM   17  C   UNL     1      42.474 -16.575   1.139  1.00  0.00     0.014 A 
HETATM   18  C   UNL     1      43.958 -17.659   3.218  1.00  0.00     0.012 A 
HETATM   19  C   UNL     1      43.056 -16.012   4.759  1.00  0.00     0.012 A 
HETATM   20  C   UNL     1      44.052 -18.209   1.941  1.00  0.00     0.001 A 
HETATM   21  C   UNL     1      43.316 -17.662   0.899  1.00  0.00     0.001 A 
HETATM   22  C   UNL     1      42.233 -14.925   5.030  1.00  0.00     0.003 A 
HETATM   23  C   UNL     1      41.442 -14.383   4.019  1.00  0.00     0.030 A 
ENDBRANCH   1  14
TORSDOF 1
ENDMDL
MODEL 9
REMARK VINA RESULT:      -6.7      4.216      5.328
REMARK  1 active torsions:
REMARK  status: ('A' for Active; 'I' for Inactive)
REMARK    1  A    between atoms: C_5  and  N_6 
ROOT
HETATM    1  N   UNL     1      41.173 -14.409   3.883  1.00  0.00    -0.320 N 
HETATM    2  C   UNL     1      41.782 -13.201   4.366  1.00  0.00     0.141 C 
HETATM    3  N   UNL     1      42.617 -13.162   5.367  1.00  0.00    -0.380 N 
HETATM    4  H   UNL     1      42.864 -14.016   5.848  1.00  0.00     0.158 HD
HETATM    5  H   UNL     1      43.018 -12.279   5.648  1.00  0.00     0.158 HD
HETATM    6  S   UNL     1      41.319 -11.802   3.458  1.00  0.00    -0.086 SA
HETATM    7  C   UNL     1      40.011 -12.757   2.627  1.00  0.00     0.093 C 
HETATM    8  C   UNL     1      40.603 -14.181   2.547  1.00  0.00     0.121 C 
HETATM    9  C   UNL     1      39.550 -12.446   1.226  1.00  0.00     0.158 C 
HETATM   10  S   UNL     1      38.765 -14.004   0.756  1.00  0.00     0.147 S 
HETATM   11  O   UNL     1      37.338 -13.882   0.953  1.00  0.00    -0.228 OA
HETATM   12  O   UNL     1      39.348 -14.444  -0.493  1.00  0.00    -0.228 OA
HETATM   13  C   UNL     1      39.437 -15.024   2.081  1.00  0.00     0.167 C 
ENDROOT
BRANCH   1  14
HETATM   14  C   UNL     1      41.534 -15.718   4.266  1.00  0.00     0.048 A 
HETATM   15  C   UNL     1      42.408 -16.498   3.451  1.00  0.00     0.001 A 
HETATM   16  C   UNL     1      42.677 -17.842   3.816  1.00  0.00    -0.024 A 
HETATM   17  C   UNL     1      43.051 -15.998   2.293  1.00  0.00     0.014 A 
HETATM   18  C   UNL     1      43.517 -18.635   3.016  1.00  0.00     0.012 A 
HETATM   19  C   UNL     1      42.111 -18.375   4.980  1.00  0.00     0.012 A 
HETATM   20  C   UNL     1      44.110 -18.119   1.867  1.00  0.00     0.001 A 
HETATM   21  C   UNL     1      43.884 -16.798   1.508  1.00  0.00     0.001 A 
HETATM   22  C   UNL     1      41.282 -17.604   5.786  1.00  0.00     0.003 A 
HETATM   23  C   UNL     1      40.993 -16.289   5.430  1.00  0.00     0.030 A 
ENDBRANCH   1  14
TORSDOF 1
ENDMDL
MODEL 10
REMARK VINA RESULT:      -6.6      5.889      7.262
REMARK  1 active torsions:
REMARK  status: ('A' for Active; 'I' for Inactive)
REMARK    1  A    between atoms: C_5  and  N_6 
ROOT
HETATM    1  N   UNL     1      40.426 -14.348   0.792  1.00  0.00    -0.320 N 
HETATM    2  C   UNL     1      39.079 -14.150   1.249  1.00  0.00     0.141 C 
HETATM    3  N   UNL     1      38.707 -14.302   2.489  1.00  0.00    -0.380 N 
HETATM    4  H   UNL     1      39.384 -14.578   3.187  1.00  0.00     0.158 HD
HETATM    5  H   UNL     1      37.744 -14.133   2.746  1.00  0.00     0.158 HD
HETATM    6  S   UNL     1      38.004 -13.649  -0.013  1.00  0.00    -0.086 SA
HETATM    7  C   UNL     1      39.267 -14.044  -1.263  1.00  0.00     0.093 C 
HETATM    8  C   UNL     1      40.597 -13.743  -0.537  1.00  0.00     0.121 C 
HETATM    9  C   UNL     1      39.363 -13.308  -2.575  1.00  0.00     0.158 C 
HETATM   10  S   UNL     1      41.062 -13.676  -3.067  1.00  0.00     0.147 S 
HETATM   11  O   UNL     1      41.045 -14.776  -4.004  1.00  0.00    -0.228 OA
HETATM   12  O   UNL     1      41.734 -12.424  -3.339  1.00  0.00    -0.228 OA
HETATM   13  C   UNL     1      41.646 -14.293  -1.476  1.00  0.00     0.167 C 
ENDROOT
BRANCH   1  14
HETATM   14  C   UNL     1      41.554 -14.527   1.619  1.00  0.00     0.048 A 
HETATM   15  C   UNL     1      42.070 -15.834   1.870  1.00  0.00     0.001 A 
HETATM   16  C   UNL     1      43.148 -15.988   2.780  1.00  0.00    -0.024 A 
HETATM   17  C   UNL     1      41.579 -17.003   1.241  1.00  0.00     0.014 A 
HETATM   18  C   UNL     1      43.657 -17.267   3.060  1.00  0.00     0.012 A 
HETATM   19  C   UNL     1      43.709 -14.862   3.394  1.00  0.00     0.012 A 
HETATM   20  C   UNL     1      43.130 -18.400   2.443  1.00  0.00     0.001 A 
HETATM   21  C   UNL     1      42.096 -18.268   1.527  1.00  0.00     0.001 A 
HETATM   22  C   UNL     1      43.222 -13.588   3.126  1.00  0.00     0.003 A 
HETATM   23  C   UNL     1      42.152 -13.423   2.250  1.00  0.00     0.030 A 
ENDBRANCH   1  14
TORSDOF 1
ENDMDL
