MODEL 1
REMARK VINA RESULT:      -7.9      0.000      0.000
REMARK  6 active torsions:
REMARK  status: ('A' for Active; 'I' for Inactive)
REMARK    1  A    between atoms: C_8  and  C_9 
REMARK    2  A    between atoms: C_9  and  C_10 
REMARK       I    between atoms: C_10  and  N_11 
REMARK    3  A    between atoms: N_11  and  C_12 
REMARK    4  A    between atoms: C_12  and  C_13 
REMARK    5  A    between atoms: C_13  and  N_14 
REMARK    6  A    between atoms: C_13  and  C_20 
ROOT
HETATM    1  C   UNL     1      40.350 -16.909   2.049  1.00  0.00     0.160 C 
ENDROOT
BRANCH   1   2
HETATM    2  N   UNL     1      40.022 -15.649   1.390  1.00  0.00    -0.358 N 
HETATM    3  C   UNL     1      40.920 -15.079   0.507  1.00  0.00     0.226 C 
HETATM    4  O   UNL     1      42.090 -15.470   0.499  1.00  0.00    -0.273 OA
HETATM    5  H   UNL     1      39.037 -15.460   1.234  1.00  0.00     0.162 HD
BRANCH   3   6
HETATM    6  C   UNL     1      40.419 -13.921  -0.365  1.00  0.00     0.111 C 
HETATM    7  C   UNL     1      38.938 -14.017  -0.732  1.00  0.00     0.025 C 
BRANCH   6   8
HETATM    8  C   UNL     1      41.293 -13.672  -1.562  1.00  0.00     0.004 A 
HETATM    9  C   UNL     1      41.376 -14.476  -2.691  1.00  0.00     0.033 A 
HETATM   10  C   UNL     1      40.685 -15.732  -3.071  1.00  0.00     0.070 C 
HETATM   11  N   UNL     1      42.298 -13.891  -3.510  1.00  0.00    -0.282 N 
HETATM   12  H   UNL     1      42.617 -14.201  -4.424  1.00  0.00     0.189 HD
HETATM   13  N   UNL     1      42.832 -12.778  -3.000  1.00  0.00    -0.179 NA
HETATM   14  C   UNL     1      42.243 -12.636  -1.809  1.00  0.00     0.060 A 
HETATM   15  C   UNL     1      42.646 -11.488  -0.961  1.00  0.00     0.073 C 
ENDBRANCH   6   8
ENDBRANCH   3   6
ENDBRANCH   1   2
BRANCH   1  16
HETATM   16  C   UNL     1      41.195 -16.818   3.369  1.00  0.00     0.238 C 
BRANCH  16  17
HETATM   17  N   UNL     1      41.685 -15.385   3.638  1.00  0.00    -0.061 N 
HETATM   18  H   UNL     1      41.368 -14.823   2.819  1.00  0.00     0.280 HD
HETATM   19  C   UNL     1      43.172 -15.168   3.820  1.00  0.00     0.236 C 
HETATM   20  C   UNL     1      43.356 -15.188   5.319  1.00  0.00     0.029 C 
HETATM   21  C   UNL     1      42.182 -14.361   5.794  1.00  0.00     0.029 C 
HETATM   22  C   UNL     1      41.040 -14.750   4.872  1.00  0.00     0.236 C 
ENDBRANCH  16  17
BRANCH  16  23
HETATM   23  C   UNL     1      42.280 -17.884   3.338  1.00  0.00    -0.024 A 
HETATM   24  C   UNL     1      42.773 -18.476   4.516  1.00  0.00     0.033 A 
HETATM   25  C   UNL     1      43.765 -19.457   4.452  1.00  0.00     0.034 A 
HETATM   26 CL   UNL     1      44.333 -20.183   5.903  1.00  0.00    -0.084 Cl
HETATM   27  C   UNL     1      44.287 -19.857   3.226  1.00  0.00     0.024 A 
HETATM   28  C   UNL     1      43.813 -19.276   2.052  1.00  0.00     0.002 A 
HETATM   29  C   UNL     1      42.817 -18.299   2.105  1.00  0.00     0.009 A 
ENDBRANCH  16  23
ENDBRANCH   1  16
TORSDOF 6
ENDMDL
MODEL 2
REMARK VINA RESULT:      -7.9      1.546      2.013
REMARK  6 active torsions:
REMARK  status: ('A' for Active; 'I' for Inactive)
REMARK    1  A    between atoms: C_8  and  C_9 
REMARK    2  A    between atoms: C_9  and  C_10 
REMARK       I    between atoms: C_10  and  N_11 
REMARK    3  A    between atoms: N_11  and  C_12 
REMARK    4  A    between atoms: C_12  and  C_13 
REMARK    5  A    between atoms: C_13  and  N_14 
REMARK    6  A    between atoms: C_13  and  C_20 
ROOT
HETATM    1  C   UNL     1      42.876 -16.121   2.565  1.00  0.00     0.160 C 
ENDROOT
BRANCH   1   2
HETATM    2  N   UNL     1      41.859 -15.428   1.781  1.00  0.00    -0.358 N 
HETATM    3  C   UNL     1      42.015 -14.088   1.481  1.00  0.00     0.226 C 
HETATM    4  O   UNL     1      42.846 -13.422   2.106  1.00  0.00    -0.273 OA
HETATM    5  H   UNL     1      41.329 -15.991   1.123  1.00  0.00     0.162 HD
BRANCH   3   6
HETATM    6  C   UNL     1      41.077 -13.482   0.431  1.00  0.00     0.111 C 
HETATM    7  C   UNL     1      39.671 -14.084   0.435  1.00  0.00     0.025 C 
BRANCH   6   8
HETATM    8  C   UNL     1      41.683 -13.449  -0.943  1.00  0.00     0.004 A 
HETATM    9  C   UNL     1      41.616 -14.464  -1.888  1.00  0.00     0.033 A 
HETATM   10  C   UNL     1      40.972 -15.799  -1.870  1.00  0.00     0.070 C 
HETATM   11  N   UNL     1      42.315 -14.021  -2.975  1.00  0.00    -0.282 N 
HETATM   12  H   UNL     1      42.479 -14.499  -3.857  1.00  0.00     0.189 HD
HETATM   13  N   UNL     1      42.842 -12.806  -2.809  1.00  0.00    -0.179 NA
HETATM   14  C   UNL     1      42.480 -12.446  -1.574  1.00  0.00     0.060 A 
HETATM   15  C   UNL     1      42.941 -11.131  -1.064  1.00  0.00     0.073 C 
ENDBRANCH   6   8
ENDBRANCH   3   6
ENDBRANCH   1   2
BRANCH   1  16
HETATM   16  C   UNL     1      42.366 -17.093   3.687  1.00  0.00     0.238 C 
BRANCH  16  17
HETATM   17  N   UNL     1      42.227 -16.379   5.043  1.00  0.00    -0.061 N 
HETATM   18  H   UNL     1      42.673 -17.014   5.739  1.00  0.00     0.280 HD
HETATM   19  C   UNL     1      40.833 -16.043   5.526  1.00  0.00     0.236 C 
HETATM   20  C   UNL     1      40.640 -14.608   5.094  1.00  0.00     0.029 C 
HETATM   21  C   UNL     1      41.974 -13.988   5.449  1.00  0.00     0.029 C 
HETATM   22  C   UNL     1      42.997 -15.059   5.110  1.00  0.00     0.236 C 
ENDBRANCH  16  17
BRANCH  16  23
HETATM   23  C   UNL     1      43.234 -18.342   3.693  1.00  0.00    -0.024 A 
HETATM   24  C   UNL     1      43.199 -19.276   2.641  1.00  0.00     0.033 A 
HETATM   25  C   UNL     1      44.014 -20.410   2.674  1.00  0.00     0.034 A 
HETATM   26 CL   UNL     1      43.971 -21.522   1.364  1.00  0.00    -0.084 Cl
HETATM   27  C   UNL     1      44.864 -20.639   3.750  1.00  0.00     0.024 A 
HETATM   28  C   UNL     1      44.906 -19.726   4.803  1.00  0.00     0.002 A 
HETATM   29  C   UNL     1      44.100 -18.587   4.776  1.00  0.00     0.009 A 
ENDBRANCH  16  23
ENDBRANCH   1  16
TORSDOF 6
ENDMDL
MODEL 3
REMARK VINA RESULT:      -7.9      2.799      5.991
REMARK  6 active torsions:
REMARK  status: ('A' for Active; 'I' for Inactive)
REMARK    1  A    between atoms: C_8  and  C_9 
REMARK    2  A    between atoms: C_9  and  C_10 
REMARK       I    between atoms: C_10  and  N_11 
REMARK    3  A    between atoms: N_11  and  C_12 
REMARK    4  A    between atoms: C_12  and  C_13 
REMARK    5  A    between atoms: C_13  and  N_14 
REMARK    6  A    between atoms: C_13  and  C_20 
ROOT
HETATM    1  C   UNL     1      43.578 -15.803   2.119  1.00  0.00     0.160 C 
ENDROOT
BRANCH   1   2
HETATM    2  N   UNL     1      43.337 -15.679   3.552  1.00  0.00    -0.358 N 
HETATM    3  C   UNL     1      43.560 -14.471   4.186  1.00  0.00     0.226 C 
HETATM    4  O   UNL     1      44.224 -13.602   3.614  1.00  0.00    -0.273 OA
HETATM    5  H   UNL     1      42.626 -16.284   3.949  1.00  0.00     0.162 HD
BRANCH   3   6
HETATM    6  C   UNL     1      43.030 -14.311   5.616  1.00  0.00     0.111 C 
HETATM    7  C   UNL     1      44.106 -14.439   6.694  1.00  0.00     0.025 C 
BRANCH   6   8
HETATM    8  C   UNL     1      41.833 -15.175   5.894  1.00  0.00     0.004 A 
HETATM    9  C   UNL     1      40.512 -14.853   5.613  1.00  0.00     0.033 A 
HETATM   10  C   UNL     1      39.891 -13.661   4.987  1.00  0.00     0.070 C 
HETATM   11  N   UNL     1      39.760 -15.907   6.047  1.00  0.00    -0.282 N 
HETATM   12  H   UNL     1      38.751 -16.022   6.005  1.00  0.00     0.189 HD
HETATM   13  N   UNL     1      40.484 -16.884   6.599  1.00  0.00    -0.179 NA
HETATM   14  C   UNL     1      41.746 -16.452   6.529  1.00  0.00     0.060 A 
HETATM   15  C   UNL     1      42.814 -17.311   7.096  1.00  0.00     0.073 C 
ENDBRANCH   6   8
ENDBRANCH   3   6
ENDBRANCH   1   2
BRANCH   1  16
HETATM   16  C   UNL     1      43.155 -17.155   1.444  1.00  0.00     0.238 C 
BRANCH  16  17
HETATM   17  N   UNL     1      41.656 -17.178   1.096  1.00  0.00    -0.061 N 
HETATM   18  H   UNL     1      41.469 -18.137   0.732  1.00  0.00     0.280 HD
HETATM   19  C   UNL     1      41.149 -16.174   0.083  1.00  0.00     0.236 C 
HETATM   20  C   UNL     1      40.624 -15.041   0.934  1.00  0.00     0.029 C 
HETATM   21  C   UNL     1      39.890 -15.782   2.030  1.00  0.00     0.029 C 
HETATM   22  C   UNL     1      40.753 -16.998   2.318  1.00  0.00     0.236 C 
ENDBRANCH  16  17
BRANCH  16  23
HETATM   23  C   UNL     1      43.644 -18.312   2.302  1.00  0.00    -0.024 A 
HETATM   24  C   UNL     1      43.791 -19.612   1.783  1.00  0.00     0.033 A 
HETATM   25  C   UNL     1      44.249 -20.651   2.596  1.00  0.00     0.034 A 
HETATM   26 CL   UNL     1      44.444 -22.224   1.931  1.00  0.00    -0.084 Cl
HETATM   27  C   UNL     1      44.556 -20.420   3.933  1.00  0.00     0.024 A 
HETATM   28  C   UNL     1      44.409 -19.140   4.463  1.00  0.00     0.002 A 
HETATM   29  C   UNL     1      43.959 -18.094   3.656  1.00  0.00     0.009 A 
ENDBRANCH  16  23
ENDBRANCH   1  16
TORSDOF 6
ENDMDL
MODEL 4
REMARK VINA RESULT:      -7.8      0.302      1.619
REMARK  6 active torsions:
REMARK  status: ('A' for Active; 'I' for Inactive)
REMARK    1  A    between atoms: C_8  and  C_9 
REMARK    2  A    between atoms: C_9  and  C_10 
REMARK       I    between atoms: C_10  and  N_11 
REMARK    3  A    between atoms: N_11  and  C_12 
REMARK    4  A    between atoms: C_12  and  C_13 
REMARK    5  A    between atoms: C_13  and  N_14 
REMARK    6  A    between atoms: C_13  and  C_20 
ROOT
HETATM    1  C   UNL     1      40.359 -16.971   2.078  1.00  0.00     0.160 C 
ENDROOT
BRANCH   1   2
HETATM    2  N   UNL     1      40.005 -15.721   1.415  1.00  0.00    -0.358 N 
HETATM    3  C   UNL     1      40.875 -15.155   0.503  1.00  0.00     0.226 C 
HETATM    4  O   UNL     1      42.048 -15.540   0.467  1.00  0.00    -0.273 OA
HETATM    5  H   UNL     1      39.015 -15.540   1.283  1.00  0.00     0.162 HD
BRANCH   3   6
HETATM    6  C   UNL     1      40.345 -14.010  -0.368  1.00  0.00     0.111 C 
HETATM    7  C   UNL     1      38.823 -14.001  -0.520  1.00  0.00     0.025 C 
BRANCH   6   8
HETATM    8  C   UNL     1      41.054 -13.904  -1.688  1.00  0.00     0.004 A 
HETATM    9  C   UNL     1      41.935 -12.898  -2.061  1.00  0.00     0.033 A 
HETATM   10  C   UNL     1      42.440 -11.701  -1.345  1.00  0.00     0.070 C 
HETATM   11  N   UNL     1      42.324 -13.183  -3.339  1.00  0.00    -0.282 N 
HETATM   12  H   UNL     1      42.963 -12.665  -3.935  1.00  0.00     0.189 HD
HETATM   13  N   UNL     1      41.757 -14.288  -3.832  1.00  0.00    -0.179 NA
HETATM   14  C   UNL     1      40.970 -14.733  -2.848  1.00  0.00     0.060 A 
HETATM   15  C   UNL     1      40.164 -15.953  -3.093  1.00  0.00     0.073 C 
ENDBRANCH   6   8
ENDBRANCH   3   6
ENDBRANCH   1   2
BRANCH   1  16
HETATM   16  C   UNL     1      41.215 -16.860   3.389  1.00  0.00     0.238 C 
BRANCH  16  17
HETATM   17  N   UNL     1      41.700 -15.421   3.636  1.00  0.00    -0.061 N 
HETATM   18  H   UNL     1      41.382 -14.874   2.808  1.00  0.00     0.280 HD
HETATM   19  C   UNL     1      43.187 -15.196   3.814  1.00  0.00     0.236 C 
HETATM   20  C   UNL     1      43.370 -15.192   5.314  1.00  0.00     0.029 C 
HETATM   21  C   UNL     1      42.193 -14.362   5.775  1.00  0.00     0.029 C 
HETATM   22  C   UNL     1      41.053 -14.769   4.859  1.00  0.00     0.236 C 
ENDBRANCH  16  17
BRANCH  16  23
HETATM   23  C   UNL     1      42.305 -17.921   3.361  1.00  0.00    -0.024 A 
HETATM   24  C   UNL     1      42.809 -18.500   4.542  1.00  0.00     0.033 A 
HETATM   25  C   UNL     1      43.805 -19.477   4.480  1.00  0.00     0.034 A 
HETATM   26 CL   UNL     1      44.385 -20.186   5.934  1.00  0.00    -0.084 Cl
HETATM   27  C   UNL     1      44.322 -19.884   3.256  1.00  0.00     0.024 A 
HETATM   28  C   UNL     1      43.838 -19.316   2.079  1.00  0.00     0.002 A 
HETATM   29  C   UNL     1      42.837 -18.344   2.129  1.00  0.00     0.009 A 
ENDBRANCH  16  23
ENDBRANCH   1  16
TORSDOF 6
ENDMDL
MODEL 5
REMARK VINA RESULT:      -7.8      2.307      3.183
REMARK  6 active torsions:
REMARK  status: ('A' for Active; 'I' for Inactive)
REMARK    1  A    between atoms: C_8  and  C_9 
REMARK    2  A    between atoms: C_9  and  C_10 
REMARK       I    between atoms: C_10  and  N_11 
REMARK    3  A    between atoms: N_11  and  C_12 
REMARK    4  A    between atoms: C_12  and  C_13 
REMARK    5  A    between atoms: C_13  and  N_14 
REMARK    6  A    between atoms: C_13  and  C_20 
ROOT
HETATM    1  C   UNL     1      43.257 -15.963   2.935  1.00  0.00     0.160 C 
ENDROOT
BRANCH   1   2
HETATM    2  N   UNL     1      42.404 -15.278   1.970  1.00  0.00    -0.358 N 
HETATM    3  C   UNL     1      42.472 -13.903   1.845  1.00  0.00     0.226 C 
HETATM    4  O   UNL     1      43.025 -13.243   2.730  1.00  0.00    -0.273 OA
HETATM    5  H   UNL     1      42.136 -15.805   1.145  1.00  0.00     0.162 HD
BRANCH   3   6
HETATM    6  C   UNL     1      41.775 -13.265   0.638  1.00  0.00     0.111 C 
HETATM    7  C   UNL     1      42.051 -11.769   0.483  1.00  0.00     0.025 C 
BRANCH   6   8
HETATM    8  C   UNL     1      40.310 -13.589   0.571  1.00  0.00     0.004 A 
HETATM    9  C   UNL     1      39.657 -14.196  -0.492  1.00  0.00     0.033 A 
HETATM   10  C   UNL     1      40.141 -14.699  -1.801  1.00  0.00     0.070 C 
HETATM   11  N   UNL     1      38.340 -14.278  -0.138  1.00  0.00    -0.282 N 
HETATM   12  H   UNL     1      37.566 -14.665  -0.670  1.00  0.00     0.189 HD
HETATM   13  N   UNL     1      38.082 -13.760   1.066  1.00  0.00    -0.179 NA
HETATM   14  C   UNL     1      39.265 -13.324   1.508  1.00  0.00     0.060 A 
HETATM   15  C   UNL     1      39.316 -12.657   2.832  1.00  0.00     0.073 C 
ENDBRANCH   6   8
ENDBRANCH   3   6
ENDBRANCH   1   2
BRANCH   1  16
HETATM   16  C   UNL     1      42.564 -17.018   3.869  1.00  0.00     0.238 C 
BRANCH  16  17
HETATM   17  N   UNL     1      42.269 -16.440   5.265  1.00  0.00    -0.061 N 
HETATM   18  H   UNL     1      42.720 -17.096   5.939  1.00  0.00     0.280 HD
HETATM   19  C   UNL     1      40.820 -16.264   5.666  1.00  0.00     0.236 C 
HETATM   20  C   UNL     1      40.533 -14.817   5.340  1.00  0.00     0.029 C 
HETATM   21  C   UNL     1      41.778 -14.124   5.845  1.00  0.00     0.029 C 
HETATM   22  C   UNL     1      42.913 -15.072   5.499  1.00  0.00     0.236 C 
ENDBRANCH  16  17
BRANCH  16  23
HETATM   23  C   UNL     1      43.377 -18.304   3.854  1.00  0.00    -0.024 A 
HETATM   24  C   UNL     1      43.274 -19.234   2.802  1.00  0.00     0.033 A 
HETATM   25  C   UNL     1      44.039 -20.403   2.815  1.00  0.00     0.034 A 
HETATM   26 CL   UNL     1      43.914 -21.510   1.507  1.00  0.00    -0.084 Cl
HETATM   27  C   UNL     1      44.906 -20.669   3.870  1.00  0.00     0.024 A 
HETATM   28  C   UNL     1      45.014 -19.760   4.920  1.00  0.00     0.002 A 
HETATM   29  C   UNL     1      44.258 -18.587   4.914  1.00  0.00     0.009 A 
ENDBRANCH  16  23
ENDBRANCH   1  16
TORSDOF 6
ENDMDL
MODEL 6
REMARK VINA RESULT:      -7.7      2.416      3.455
REMARK  6 active torsions:
REMARK  status: ('A' for Active; 'I' for Inactive)
REMARK    1  A    between atoms: C_8  and  C_9 
REMARK    2  A    between atoms: C_9  and  C_10 
REMARK       I    between atoms: C_10  and  N_11 
REMARK    3  A    between atoms: N_11  and  C_12 
REMARK    4  A    between atoms: C_12  and  C_13 
REMARK    5  A    between atoms: C_13  and  N_14 
REMARK    6  A    between atoms: C_13  and  C_20 
ROOT
HETATM    1  C   UNL     1      43.776 -17.432   3.786  1.00  0.00     0.160 C 
ENDROOT
BRANCH   1   2
HETATM    2  N   UNL     1      42.601 -16.617   3.498  1.00  0.00    -0.358 N 
HETATM    3  C   UNL     1      42.755 -15.305   3.092  1.00  0.00     0.226 C 
HETATM    4  O   UNL     1      43.845 -14.748   3.250  1.00  0.00    -0.273 OA
HETATM    5  H   UNL     1      41.775 -17.108   3.171  1.00  0.00     0.162 HD
BRANCH   3   6
HETATM    6  C   UNL     1      41.522 -14.585   2.533  1.00  0.00     0.111 C 
HETATM    7  C   UNL     1      40.195 -15.231   2.930  1.00  0.00     0.025 C 
BRANCH   6   8
HETATM    8  C   UNL     1      41.616 -14.326   1.056  1.00  0.00     0.004 A 
HETATM    9  C   UNL     1      41.611 -15.291   0.059  1.00  0.00     0.033 A 
HETATM   10  C   UNL     1      41.508 -16.770   0.105  1.00  0.00     0.070 C 
HETATM   11  N   UNL     1      41.736 -14.619  -1.124  1.00  0.00    -0.282 N 
HETATM   12  H   UNL     1      41.769 -15.000  -2.065  1.00  0.00     0.189 HD
HETATM   13  N   UNL     1      41.834 -13.296  -0.975  1.00  0.00    -0.179 NA
HETATM   14  C   UNL     1      41.777 -13.098   0.345  1.00  0.00     0.060 A 
HETATM   15  C   UNL     1      41.890 -11.709   0.852  1.00  0.00     0.073 C 
ENDBRANCH   6   8
ENDBRANCH   3   6
ENDBRANCH   1   2
BRANCH   1  16
HETATM   16  C   UNL     1      43.680 -18.403   5.016  1.00  0.00     0.238 C 
BRANCH  16  17
HETATM   17  N   UNL     1      44.460 -17.869   6.230  1.00  0.00    -0.061 N 
HETATM   18  H   UNL     1      45.450 -18.155   6.073  1.00  0.00     0.280 HD
HETATM   19  C   UNL     1      44.038 -18.340   7.605  1.00  0.00     0.236 C 
HETATM   20  C   UNL     1      43.121 -17.243   8.094  1.00  0.00     0.029 C 
HETATM   21  C   UNL     1      43.867 -15.996   7.673  1.00  0.00     0.029 C 
HETATM   22  C   UNL     1      44.461 -16.342   6.319  1.00  0.00     0.236 C 
ENDBRANCH  16  17
BRANCH  16  23
HETATM   23  C   UNL     1      44.053 -19.809   4.568  1.00  0.00    -0.024 A 
HETATM   24  C   UNL     1      43.969 -20.205   3.220  1.00  0.00     0.033 A 
HETATM   25  C   UNL     1      44.326 -21.502   2.841  1.00  0.00     0.034 A 
HETATM   26 CL   UNL     1      44.238 -21.953   1.185  1.00  0.00    -0.084 Cl
HETATM   27  C   UNL     1      44.760 -22.422   3.789  1.00  0.00     0.024 A 
HETATM   28  C   UNL     1      44.843 -22.046   5.129  1.00  0.00     0.002 A 
HETATM   29  C   UNL     1      44.494 -20.750   5.516  1.00  0.00     0.009 A 
ENDBRANCH  16  23
ENDBRANCH   1  16
TORSDOF 6
ENDMDL
MODEL 7
REMARK VINA RESULT:      -7.6      2.248      3.236
REMARK  6 active torsions:
REMARK  status: ('A' for Active; 'I' for Inactive)
REMARK    1  A    between atoms: C_8  and  C_9 
REMARK    2  A    between atoms: C_9  and  C_10 
REMARK       I    between atoms: C_10  and  N_11 
REMARK    3  A    between atoms: N_11  and  C_12 
REMARK    4  A    between atoms: C_12  and  C_13 
REMARK    5  A    between atoms: C_13  and  N_14 
REMARK    6  A    between atoms: C_13  and  C_20 
ROOT
HETATM    1  C   UNL     1      42.135 -15.898   0.493  1.00  0.00     0.160 C 
ENDROOT
BRANCH   1   2
HETATM    2  N   UNL     1      41.458 -15.597  -0.763  1.00  0.00    -0.358 N 
HETATM    3  C   UNL     1      41.588 -14.345  -1.333  1.00  0.00     0.226 C 
HETATM    4  O   UNL     1      42.026 -13.413  -0.652  1.00  0.00    -0.273 OA
HETATM    5  H   UNL     1      41.298 -16.377  -1.393  1.00  0.00     0.162 HD
BRANCH   3   6
HETATM    6  C   UNL     1      41.099 -14.167  -2.776  1.00  0.00     0.111 C 
HETATM    7  C   UNL     1      41.818 -13.055  -3.541  1.00  0.00     0.025 C 
BRANCH   6   8
HETATM    8  C   UNL     1      39.604 -14.058  -2.875  1.00  0.00     0.004 A 
HETATM    9  C   UNL     1      38.765 -14.949  -3.531  1.00  0.00     0.033 A 
HETATM   10  C   UNL     1      39.032 -16.202  -4.278  1.00  0.00     0.070 C 
HETATM   11  N   UNL     1      37.498 -14.457  -3.388  1.00  0.00    -0.282 N 
HETATM   12  H   UNL     1      36.627 -14.846  -3.739  1.00  0.00     0.189 HD
HETATM   13  N   UNL     1      37.448 -13.312  -2.703  1.00  0.00    -0.179 NA
HETATM   14  C   UNL     1      38.720 -13.046  -2.394  1.00  0.00     0.060 A 
HETATM   15  C   UNL     1      39.013 -11.800  -1.643  1.00  0.00     0.073 C 
ENDBRANCH   6   8
ENDBRANCH   3   6
ENDBRANCH   1   2
BRANCH   1  16
HETATM   16  C   UNL     1      41.315 -16.696   1.567  1.00  0.00     0.238 C 
BRANCH  16  17
HETATM   17  N   UNL     1      40.485 -15.761   2.465  1.00  0.00    -0.061 N 
HETATM   18  H   UNL     1      40.560 -16.159   3.425  1.00  0.00     0.280 HD
HETATM   19  C   UNL     1      39.019 -15.580   2.135  1.00  0.00     0.236 C 
HETATM   20  C   UNL     1      38.992 -14.315   1.310  1.00  0.00     0.029 C 
HETATM   21  C   UNL     1      39.940 -13.418   2.073  1.00  0.00     0.029 C 
HETATM   22  C   UNL     1      41.051 -14.342   2.541  1.00  0.00     0.236 C 
ENDBRANCH  16  17
BRANCH  16  23
HETATM   23  C   UNL     1      42.250 -17.645   2.301  1.00  0.00    -0.024 A 
HETATM   24  C   UNL     1      42.627 -18.887   1.755  1.00  0.00     0.033 A 
HETATM   25  C   UNL     1      43.493 -19.732   2.452  1.00  0.00     0.034 A 
HETATM   26 CL   UNL     1      43.958 -21.231   1.751  1.00  0.00    -0.084 Cl
HETATM   27  C   UNL     1      43.988 -19.366   3.699  1.00  0.00     0.024 A 
HETATM   28  C   UNL     1      43.619 -18.143   4.256  1.00  0.00     0.002 A 
HETATM   29  C   UNL     1      42.759 -17.288   3.564  1.00  0.00     0.009 A 
ENDBRANCH  16  23
ENDBRANCH   1  16
TORSDOF 6
ENDMDL
MODEL 8
REMARK VINA RESULT:      -7.4      2.064      3.960
REMARK  6 active torsions:
REMARK  status: ('A' for Active; 'I' for Inactive)
REMARK    1  A    between atoms: C_8  and  C_9 
REMARK    2  A    between atoms: C_9  and  C_10 
REMARK       I    between atoms: C_10  and  N_11 
REMARK    3  A    between atoms: N_11  and  C_12 
REMARK    4  A    between atoms: C_12  and  C_13 
REMARK    5  A    between atoms: C_13  and  N_14 
REMARK    6  A    between atoms: C_13  and  C_20 
ROOT
HETATM    1  C   UNL     1      40.427 -16.306   1.473  1.00  0.00     0.160 C 
ENDROOT
BRANCH   1   2
HETATM    2  N   UNL     1      40.379 -15.444   0.297  1.00  0.00    -0.358 N 
HETATM    3  C   UNL     1      39.451 -14.423   0.229  1.00  0.00     0.226 C 
HETATM    4  O   UNL     1      38.495 -14.422   1.010  1.00  0.00    -0.273 OA
HETATM    5  H   UNL     1      41.251 -15.311  -0.206  1.00  0.00     0.162 HD
BRANCH   3   6
HETATM    6  C   UNL     1      39.622 -13.380  -0.883  1.00  0.00     0.111 C 
HETATM    7  C   UNL     1      38.304 -12.906  -1.496  1.00  0.00     0.025 C 
BRANCH   6   8
HETATM    8  C   UNL     1      40.623 -13.796  -1.923  1.00  0.00     0.004 A 
HETATM    9  C   UNL     1      41.897 -13.269  -2.085  1.00  0.00     0.033 A 
HETATM   10  C   UNL     1      42.641 -12.221  -1.345  1.00  0.00     0.070 C 
HETATM   11  N   UNL     1      42.448 -13.918  -3.153  1.00  0.00    -0.282 N 
HETATM   12  H   UNL     1      43.369 -13.792  -3.561  1.00  0.00     0.189 HD
HETATM   13  N   UNL     1      41.629 -14.816  -3.707  1.00  0.00    -0.179 NA
HETATM   14  C   UNL     1      40.509 -14.747  -2.982  1.00  0.00     0.060 A 
HETATM   15  C   UNL     1      39.371 -15.616  -3.367  1.00  0.00     0.073 C 
ENDBRANCH   6   8
ENDBRANCH   3   6
ENDBRANCH   1   2
BRANCH   1  16
HETATM   16  C   UNL     1      41.835 -16.530   2.130  1.00  0.00     0.238 C 
BRANCH  16  17
HETATM   17  N   UNL     1      41.985 -17.956   2.690  1.00  0.00    -0.061 N 
HETATM   18  H   UNL     1      41.039 -18.386   2.616  1.00  0.00     0.280 HD
HETATM   19  C   UNL     1      42.470 -18.109   4.115  1.00  0.00     0.236 C 
HETATM   20  C   UNL     1      43.956 -18.338   3.965  1.00  0.00     0.029 C 
HETATM   21  C   UNL     1      44.013 -19.305   2.803  1.00  0.00     0.029 C 
HETATM   22  C   UNL     1      42.922 -18.833   1.857  1.00  0.00     0.236 C 
ENDBRANCH  16  17
BRANCH  16  23
HETATM   23  C   UNL     1      42.103 -15.408   3.122  1.00  0.00    -0.024 A 
HETATM   24  C   UNL     1      41.112 -14.949   4.010  1.00  0.00     0.033 A 
HETATM   25  C   UNL     1      41.393 -13.922   4.914  1.00  0.00     0.034 A 
HETATM   26 CL   UNL     1      40.173 -13.397   6.004  1.00  0.00    -0.084 Cl
HETATM   27  C   UNL     1      42.651 -13.331   4.943  1.00  0.00     0.024 A 
HETATM   28  C   UNL     1      43.641 -13.770   4.066  1.00  0.00     0.002 A 
HETATM   29  C   UNL     1      43.372 -14.801   3.164  1.00  0.00     0.009 A 
ENDBRANCH  16  23
ENDBRANCH   1  16
TORSDOF 6
ENDMDL
MODEL 9
REMARK VINA RESULT:      -7.3      1.861      3.593
REMARK  6 active torsions:
REMARK  status: ('A' for Active; 'I' for Inactive)
REMARK    1  A    between atoms: C_8  and  C_9 
REMARK    2  A    between atoms: C_9  and  C_10 
REMARK       I    between atoms: C_10  and  N_11 
REMARK    3  A    between atoms: N_11  and  C_12 
REMARK    4  A    between atoms: C_12  and  C_13 
REMARK    5  A    between atoms: C_13  and  N_14 
REMARK    6  A    between atoms: C_13  and  C_20 
ROOT
HETATM    1  C   UNL     1      40.560 -15.573   1.801  1.00  0.00     0.160 C 
ENDROOT
BRANCH   1   2
HETATM    2  N   UNL     1      40.324 -15.141   0.428  1.00  0.00    -0.358 N 
HETATM    3  C   UNL     1      39.273 -14.290   0.145  1.00  0.00     0.226 C 
HETATM    4  O   UNL     1      38.381 -14.131   0.984  1.00  0.00    -0.273 OA
HETATM    5  H   UNL     1      41.135 -15.093  -0.180  1.00  0.00     0.162 HD
BRANCH   3   6
HETATM    6  C   UNL     1      39.235 -13.646  -1.246  1.00  0.00     0.111 C 
HETATM    7  C   UNL     1      37.893 -13.795  -1.963  1.00  0.00     0.025 C 
BRANCH   6   8
HETATM    8  C   UNL     1      40.396 -14.054  -2.109  1.00  0.00     0.004 A 
HETATM    9  C   UNL     1      41.633 -13.426  -2.161  1.00  0.00     0.033 A 
HETATM   10  C   UNL     1      42.185 -12.254  -1.440  1.00  0.00     0.070 C 
HETATM   11  N   UNL     1      42.370 -14.110  -3.085  1.00  0.00    -0.282 N 
HETATM   12  H   UNL     1      43.325 -13.935  -3.386  1.00  0.00     0.189 HD
HETATM   13  N   UNL     1      41.708 -15.125  -3.648  1.00  0.00    -0.179 NA
HETATM   14  C   UNL     1      40.500 -15.098  -3.077  1.00  0.00     0.060 A 
HETATM   15  C   UNL     1      39.497 -16.099  -3.515  1.00  0.00     0.073 C 
ENDBRANCH   6   8
ENDBRANCH   3   6
ENDBRANCH   1   2
BRANCH   1  16
HETATM   16  C   UNL     1      42.049 -15.858   2.208  1.00  0.00     0.238 C 
BRANCH  16  17
HETATM   17  N   UNL     1      42.672 -16.977   1.355  1.00  0.00    -0.061 N 
HETATM   18  H   UNL     1      42.638 -16.630   0.372  1.00  0.00     0.280 HD
HETATM   19  C   UNL     1      42.026 -18.345   1.401  1.00  0.00     0.236 C 
HETATM   20  C   UNL     1      42.842 -19.092   2.430  1.00  0.00     0.029 C 
HETATM   21  C   UNL     1      44.254 -18.689   2.068  1.00  0.00     0.029 C 
HETATM   22  C   UNL     1      44.147 -17.226   1.673  1.00  0.00     0.236 C 
ENDBRANCH  16  17
BRANCH  16  23
HETATM   23  C   UNL     1      42.121 -16.069   3.713  1.00  0.00    -0.024 A 
HETATM   24  C   UNL     1      43.188 -15.568   4.483  1.00  0.00     0.033 A 
HETATM   25  C   UNL     1      43.219 -15.773   5.864  1.00  0.00     0.034 A 
HETATM   26 CL   UNL     1      44.520 -15.130   6.785  1.00  0.00    -0.084 Cl
HETATM   27  C   UNL     1      42.205 -16.482   6.498  1.00  0.00     0.024 A 
HETATM   28  C   UNL     1      41.145 -16.989   5.748  1.00  0.00     0.002 A 
HETATM   29  C   UNL     1      41.101 -16.784   4.368  1.00  0.00     0.009 A 
ENDBRANCH  16  23
ENDBRANCH   1  16
TORSDOF 6
ENDMDL
MODEL 10
REMARK VINA RESULT:      -7.3      1.340      2.020
REMARK  6 active torsions:
REMARK  status: ('A' for Active; 'I' for Inactive)
REMARK    1  A    between atoms: C_8  and  C_9 
REMARK    2  A    between atoms: C_9  and  C_10 
REMARK       I    between atoms: C_10  and  N_11 
REMARK    3  A    between atoms: N_11  and  C_12 
REMARK    4  A    between atoms: C_12  and  C_13 
REMARK    5  A    between atoms: C_13  and  N_14 
REMARK    6  A    between atoms: C_13  and  C_20 
ROOT
HETATM    1  C   UNL     1      40.401 -16.915   1.920  1.00  0.00     0.160 C 
ENDROOT
BRANCH   1   2
HETATM    2  N   UNL     1      40.107 -15.620   1.317  1.00  0.00    -0.358 N 
HETATM    3  C   UNL     1      40.967 -15.088   0.374  1.00  0.00     0.226 C 
HETATM    4  O   UNL     1      42.103 -15.556   0.260  1.00  0.00    -0.273 OA
HETATM    5  H   UNL     1      39.128 -15.361   1.248  1.00  0.00     0.162 HD
BRANCH   3   6
HETATM    6  C   UNL     1      40.477 -13.876  -0.429  1.00  0.00     0.111 C 
HETATM    7  C   UNL     1      40.100 -14.203  -1.874  1.00  0.00     0.025 C 
BRANCH   6   8
HETATM    8  C   UNL     1      41.403 -12.697  -0.329  1.00  0.00     0.004 A 
HETATM    9  C   UNL     1      41.412 -11.753   0.688  1.00  0.00     0.033 A 
HETATM   10  C   UNL     1      40.595 -11.605   1.917  1.00  0.00     0.070 C 
HETATM   11  N   UNL     1      42.393 -10.857   0.369  1.00  0.00    -0.282 N 
HETATM   12  H   UNL     1      42.684 -10.031   0.884  1.00  0.00     0.189 HD
HETATM   13  N   UNL     1      43.013 -11.135  -0.780  1.00  0.00    -0.179 NA
HETATM   14  C   UNL     1      42.417 -12.244  -1.227  1.00  0.00     0.060 A 
HETATM   15  C   UNL     1      42.865 -12.807  -2.524  1.00  0.00     0.073 C 
ENDBRANCH   6   8
ENDBRANCH   3   6
ENDBRANCH   1   2
BRANCH   1  16
HETATM   16  C   UNL     1      41.114 -16.900   3.319  1.00  0.00     0.238 C 
BRANCH  16  17
HETATM   17  N   UNL     1      41.501 -15.474   3.749  1.00  0.00    -0.061 N 
HETATM   18  H   UNL     1      41.527 -14.915   2.870  1.00  0.00     0.280 HD
HETATM   19  C   UNL     1      42.817 -15.287   4.474  1.00  0.00     0.236 C 
HETATM   20  C   UNL     1      42.425 -15.294   5.933  1.00  0.00     0.029 C 
HETATM   21  C   UNL     1      41.179 -14.438   5.932  1.00  0.00     0.029 C 
HETATM   22  C   UNL     1      40.456 -14.813   4.649  1.00  0.00     0.236 C 
ENDBRANCH  16  17
BRANCH  16  23
HETATM   23  C   UNL     1      42.252 -17.910   3.306  1.00  0.00    -0.024 A 
HETATM   24  C   UNL     1      42.723 -18.512   4.488  1.00  0.00     0.033 A 
HETATM   25  C   UNL     1      43.765 -19.441   4.442  1.00  0.00     0.034 A 
HETATM   26 CL   UNL     1      44.304 -20.182   5.896  1.00  0.00    -0.084 Cl
HETATM   27  C   UNL     1      44.359 -19.777   3.230  1.00  0.00     0.024 A 
HETATM   28  C   UNL     1      43.908 -19.185   2.052  1.00  0.00     0.002 A 
HETATM   29  C   UNL     1      42.862 -18.260   2.088  1.00  0.00     0.009 A 
ENDBRANCH  16  23
ENDBRANCH   1  16
TORSDOF 6
ENDMDL
