MODEL 1
REMARK VINA RESULT:      -8.9      0.000      0.000
REMARK  8 active torsions:
REMARK  status: ('A' for Active; 'I' for Inactive)
REMARK    1  A    between atoms: C_2  and  O_3 
REMARK    2  A    between atoms: O_3  and  C_4 
REMARK    3  A    between atoms: C_4  and  C_5 
REMARK    4  A    between atoms: C_5  and  C_6 
REMARK    5  A    between atoms: C_6  and  N_7 
REMARK    6  A    between atoms: C_12  and  C_13 
REMARK    7  A    between atoms: C_23  and  C_24 
REMARK    8  A    between atoms: C_25  and  O_26 
ROOT
HETATM    1  N   UNL     1      43.811 -15.855   6.653  1.00  0.00    -0.334 N 
HETATM    2  C   UNL     1      43.661 -16.650   7.792  1.00  0.00     0.273 A 
HETATM    3  O   UNL     1      43.571 -16.306   8.957  1.00  0.00    -0.266 OA
HETATM    4  C   UNL     1      43.683 -17.966   7.276  1.00  0.00     0.129 A 
HETATM    5  C   UNL     1      43.839 -18.009   5.922  1.00  0.00     0.034 A 
HETATM    6  C   UNL     1      43.933 -16.628   5.388  1.00  0.00     0.159 A 
HETATM    7  N   UNL     1      43.606 -19.222   7.729  1.00  0.00    -0.272 N 
HETATM    8  H   UNL     1      43.490 -19.556   8.683  1.00  0.00     0.189 HD
HETATM    9  N   UNL     1      43.704 -20.119   6.716  1.00  0.00    -0.173 NA
HETATM   10  C   UNL     1      43.866 -19.377   5.586  1.00  0.00     0.101 A 
ENDROOT
BRANCH  10  11
HETATM   11  C   UNL     1      44.014 -20.039   4.279  1.00  0.00     0.028 A 
HETATM   12  C   UNL     1      44.649 -21.291   4.154  1.00  0.00     0.078 A 
HETATM   13  C   UNL     1      44.769 -21.931   2.921  1.00  0.00     0.037 A 
HETATM   14  C   UNL     1      44.260 -21.329   1.775  1.00  0.00     0.003 A 
HETATM   15  C   UNL     1      43.639 -20.086   1.866  1.00  0.00     0.001 A 
HETATM   16  C   UNL     1      43.524 -19.445   3.106  1.00  0.00     0.017 A 
BRANCH  12  17
HETATM   17  O   UNL     1      45.191 -21.959   5.224  1.00  0.00    -0.360 OA
HETATM   18  H   UNL     1      45.441 -22.851   4.887  1.00  0.00     0.217 HD
ENDBRANCH  12  17
ENDBRANCH  10  11
BRANCH   6  19
HETATM   19  C   UNL     1      42.790 -16.377   4.429  1.00  0.00    -0.031 A 
HETATM   20  C   UNL     1      41.466 -16.789   4.669  1.00  0.00     0.011 A 
HETATM   21  C   UNL     1      40.451 -16.521   3.746  1.00  0.00     0.024 A 
HETATM   22  C   UNL     1      40.740 -15.816   2.581  1.00  0.00     0.034 A 
HETATM   23 CL   UNL     1      39.490 -15.483   1.448  1.00  0.00    -0.084 Cl
HETATM   24  C   UNL     1      42.035 -15.372   2.334  1.00  0.00     0.024 A 
HETATM   25  C   UNL     1      43.050 -15.647   3.253  1.00  0.00     0.011 A 
ENDBRANCH   6  19
BRANCH   1  26
HETATM   26  C   UNL     1      43.995 -14.416   6.703  1.00  0.00     0.129 C 
BRANCH  26  27
HETATM   27  C   UNL     1      45.443 -13.991   6.955  1.00  0.00     0.046 C 
BRANCH  27  28
HETATM   28  C   UNL     1      45.600 -12.892   7.999  1.00  0.00     0.169 C 
BRANCH  28  29
HETATM   29  O   UNL     1      44.717 -13.144   9.091  1.00  0.00    -0.387 OA
BRANCH  29  30
HETATM   30  C   UNL     1      44.458 -11.999   9.910  1.00  0.00     0.113 C 
HETATM   31  C   UNL     1      45.596 -10.983   9.864  1.00  0.00     0.039 C 
HETATM   32  C   UNL     1      44.277 -12.511  11.336  1.00  0.00     0.039 C 
ENDBRANCH  29  30
ENDBRANCH  28  29
ENDBRANCH  27  28
ENDBRANCH  26  27
ENDBRANCH   1  26
TORSDOF 8
ENDMDL
MODEL 2
REMARK VINA RESULT:      -8.6      1.943      3.038
REMARK  8 active torsions:
REMARK  status: ('A' for Active; 'I' for Inactive)
REMARK    1  A    between atoms: C_2  and  O_3 
REMARK    2  A    between atoms: O_3  and  C_4 
REMARK    3  A    between atoms: C_4  and  C_5 
REMARK    4  A    between atoms: C_5  and  C_6 
REMARK    5  A    between atoms: C_6  and  N_7 
REMARK    6  A    between atoms: C_12  and  C_13 
REMARK    7  A    between atoms: C_23  and  C_24 
REMARK    8  A    between atoms: C_25  and  O_26 
ROOT
HETATM    1  N   UNL     1      44.090 -16.518   6.635  1.00  0.00    -0.334 N 
HETATM    2  C   UNL     1      43.793 -17.271   7.773  1.00  0.00     0.273 A 
HETATM    3  O   UNL     1      43.628 -16.891   8.919  1.00  0.00    -0.266 OA
HETATM    4  C   UNL     1      43.775 -18.600   7.290  1.00  0.00     0.129 A 
HETATM    5  C   UNL     1      44.042 -18.689   5.956  1.00  0.00     0.034 A 
HETATM    6  C   UNL     1      44.269 -17.331   5.402  1.00  0.00     0.159 A 
HETATM    7  N   UNL     1      43.580 -19.836   7.762  1.00  0.00    -0.272 N 
HETATM    8  H   UNL     1      43.362 -20.135   8.709  1.00  0.00     0.189 HD
HETATM    9  N   UNL     1      43.706 -20.764   6.781  1.00  0.00    -0.173 NA
HETATM   10  C   UNL     1      44.009 -20.065   5.653  1.00  0.00     0.101 A 
ENDROOT
BRANCH  10  11
HETATM   11  C   UNL     1      44.225 -20.770   4.378  1.00  0.00     0.028 A 
HETATM   12  C   UNL     1      44.791 -22.059   4.336  1.00  0.00     0.078 A 
HETATM   13  C   UNL     1      44.974 -22.739   3.132  1.00  0.00     0.037 A 
HETATM   14  C   UNL     1      44.598 -22.140   1.933  1.00  0.00     0.003 A 
HETATM   15  C   UNL     1      44.048 -20.861   1.945  1.00  0.00     0.001 A 
HETATM   16  C   UNL     1      43.869 -20.180   3.155  1.00  0.00     0.017 A 
BRANCH  12  17
HETATM   17  O   UNL     1      45.201 -22.729   5.462  1.00  0.00    -0.360 OA
HETATM   18  H   UNL     1      44.767 -22.274   6.220  1.00  0.00     0.217 HD
ENDBRANCH  12  17
ENDBRANCH  10  11
BRANCH   6  19
HETATM   19  C   UNL     1      43.229 -17.036   4.342  1.00  0.00    -0.031 A 
HETATM   20  C   UNL     1      41.847 -17.225   4.532  1.00  0.00     0.011 A 
HETATM   21  C   UNL     1      40.935 -16.927   3.516  1.00  0.00     0.024 A 
HETATM   22  C   UNL     1      41.388 -16.413   2.305  1.00  0.00     0.034 A 
HETATM   23 CL   UNL     1      40.264 -16.043   1.056  1.00  0.00    -0.084 Cl
HETATM   24  C   UNL     1      42.746 -16.189   2.102  1.00  0.00     0.024 A 
HETATM   25  C   UNL     1      43.658 -16.495   3.115  1.00  0.00     0.011 A 
ENDBRANCH   6  19
BRANCH   1  26
HETATM   26  C   UNL     1      44.361 -15.093   6.668  1.00  0.00     0.129 C 
BRANCH  26  27
HETATM   27  C   UNL     1      43.105 -14.226   6.558  1.00  0.00     0.046 C 
BRANCH  27  28
HETATM   28  C   UNL     1      42.955 -13.509   5.220  1.00  0.00     0.169 C 
BRANCH  28  29
HETATM   29  O   UNL     1      41.660 -13.771   4.683  1.00  0.00    -0.387 OA
BRANCH  29  30
HETATM   30  C   UNL     1      41.200 -12.781   3.757  1.00  0.00     0.113 C 
HETATM   31  C   UNL     1      39.801 -13.086   3.228  1.00  0.00     0.039 C 
HETATM   32  C   UNL     1      42.198 -12.763   2.603  1.00  0.00     0.039 C 
ENDBRANCH  29  30
ENDBRANCH  28  29
ENDBRANCH  27  28
ENDBRANCH  26  27
ENDBRANCH   1  26
TORSDOF 8
ENDMDL
MODEL 3
REMARK VINA RESULT:      -8.2      3.789      5.215
REMARK  8 active torsions:
REMARK  status: ('A' for Active; 'I' for Inactive)
REMARK    1  A    between atoms: C_2  and  O_3 
REMARK    2  A    between atoms: O_3  and  C_4 
REMARK    3  A    between atoms: C_4  and  C_5 
REMARK    4  A    between atoms: C_5  and  C_6 
REMARK    5  A    between atoms: C_6  and  N_7 
REMARK    6  A    between atoms: C_12  and  C_13 
REMARK    7  A    between atoms: C_23  and  C_24 
REMARK    8  A    between atoms: C_25  and  O_26 
ROOT
HETATM    1  N   UNL     1      40.694 -15.283   2.460  1.00  0.00    -0.334 N 
HETATM    2  C   UNL     1      41.112 -15.319   1.128  1.00  0.00     0.273 A 
HETATM    3  O   UNL     1      40.714 -14.660   0.185  1.00  0.00    -0.266 OA
HETATM    4  C   UNL     1      42.086 -16.343   1.120  1.00  0.00     0.129 A 
HETATM    5  C   UNL     1      42.272 -16.918   2.343  1.00  0.00     0.034 A 
HETATM    6  C   UNL     1      41.378 -16.272   3.336  1.00  0.00     0.159 A 
HETATM    7  N   UNL     1      42.900 -16.947   0.246  1.00  0.00    -0.272 N 
HETATM    8  H   UNL     1      43.019 -16.770  -0.748  1.00  0.00     0.189 HD
HETATM    9  N   UNL     1      43.636 -17.916   0.845  1.00  0.00    -0.173 NA
HETATM   10  C   UNL     1      43.243 -17.920   2.149  1.00  0.00     0.101 A 
ENDROOT
BRANCH  10  11
HETATM   11  C   UNL     1      43.842 -18.869   3.102  1.00  0.00     0.028 A 
HETATM   12  C   UNL     1      44.037 -20.225   2.768  1.00  0.00     0.078 A 
HETATM   13  C   UNL     1      44.627 -21.121   3.659  1.00  0.00     0.037 A 
HETATM   14  C   UNL     1      45.033 -20.682   4.916  1.00  0.00     0.003 A 
HETATM   15  C   UNL     1      44.840 -19.351   5.277  1.00  0.00     0.001 A 
HETATM   16  C   UNL     1      44.245 -18.455   4.381  1.00  0.00     0.017 A 
BRANCH  12  17
HETATM   17  O   UNL     1      43.662 -20.754   1.558  1.00  0.00    -0.360 OA
HETATM   18  H   UNL     1      42.770 -20.382   1.365  1.00  0.00     0.217 HD
ENDBRANCH  12  17
ENDBRANCH  10  11
BRANCH   6  19
HETATM   19  C   UNL     1      42.211 -15.625   4.421  1.00  0.00    -0.031 A 
HETATM   20  C   UNL     1      42.175 -16.020   5.772  1.00  0.00     0.011 A 
HETATM   21  C   UNL     1      42.974 -15.386   6.728  1.00  0.00     0.024 A 
HETATM   22  C   UNL     1      43.839 -14.366   6.344  1.00  0.00     0.034 A 
HETATM   23 CL   UNL     1      44.825 -13.589   7.520  1.00  0.00    -0.084 Cl
HETATM   24  C   UNL     1      43.915 -13.976   5.010  1.00  0.00     0.024 A 
HETATM   25  C   UNL     1      43.110 -14.604   4.057  1.00  0.00     0.011 A 
ENDBRANCH   6  19
BRANCH   1  26
HETATM   26  C   UNL     1      39.581 -14.475   2.927  1.00  0.00     0.129 C 
BRANCH  26  27
HETATM   27  C   UNL     1      39.812 -12.970   2.778  1.00  0.00     0.046 C 
BRANCH  27  28
HETATM   28  C   UNL     1      39.552 -12.168   4.049  1.00  0.00     0.169 C 
BRANCH  28  29
HETATM   29  O   UNL     1      40.785 -11.941   4.728  1.00  0.00    -0.387 OA
BRANCH  29  30
HETATM   30  C   UNL     1      40.796 -12.391   6.087  1.00  0.00     0.113 C 
HETATM   31  C   UNL     1      39.389 -12.567   6.651  1.00  0.00     0.039 C 
HETATM   32  C   UNL     1      41.549 -11.336   6.892  1.00  0.00     0.039 C 
ENDBRANCH  29  30
ENDBRANCH  28  29
ENDBRANCH  27  28
ENDBRANCH  26  27
ENDBRANCH   1  26
TORSDOF 8
ENDMDL
MODEL 4
REMARK VINA RESULT:      -8.0      4.145      6.432
REMARK  8 active torsions:
REMARK  status: ('A' for Active; 'I' for Inactive)
REMARK    1  A    between atoms: C_2  and  O_3 
REMARK    2  A    between atoms: O_3  and  C_4 
REMARK    3  A    between atoms: C_4  and  C_5 
REMARK    4  A    between atoms: C_5  and  C_6 
REMARK    5  A    between atoms: C_6  and  N_7 
REMARK    6  A    between atoms: C_12  and  C_13 
REMARK    7  A    between atoms: C_23  and  C_24 
REMARK    8  A    between atoms: C_25  and  O_26 
ROOT
HETATM    1  N   UNL     1      40.750 -15.291   2.573  1.00  0.00    -0.334 N 
HETATM    2  C   UNL     1      41.153 -15.308   1.235  1.00  0.00     0.273 A 
HETATM    3  O   UNL     1      40.749 -14.630   0.307  1.00  0.00    -0.266 OA
HETATM    4  C   UNL     1      42.117 -16.341   1.198  1.00  0.00     0.129 A 
HETATM    5  C   UNL     1      42.312 -16.938   2.409  1.00  0.00     0.034 A 
HETATM    6  C   UNL     1      41.435 -16.301   3.423  1.00  0.00     0.159 A 
HETATM    7  N   UNL     1      42.915 -16.936   0.304  1.00  0.00    -0.272 N 
HETATM    8  H   UNL     1      43.025 -16.744  -0.688  1.00  0.00     0.189 HD
HETATM    9  N   UNL     1      43.649 -17.923   0.878  1.00  0.00    -0.173 NA
HETATM   10  C   UNL     1      43.271 -17.945   2.186  1.00  0.00     0.101 A 
ENDROOT
BRANCH  10  11
HETATM   11  C   UNL     1      43.873 -18.916   3.116  1.00  0.00     0.028 A 
HETATM   12  C   UNL     1      44.049 -20.268   2.758  1.00  0.00     0.078 A 
HETATM   13  C   UNL     1      44.641 -21.184   3.627  1.00  0.00     0.037 A 
HETATM   14  C   UNL     1      45.068 -20.770   4.884  1.00  0.00     0.003 A 
HETATM   15  C   UNL     1      44.894 -19.443   5.270  1.00  0.00     0.001 A 
HETATM   16  C   UNL     1      44.297 -18.527   4.396  1.00  0.00     0.017 A 
BRANCH  12  17
HETATM   17  O   UNL     1      43.653 -20.773   1.544  1.00  0.00    -0.360 OA
HETATM   18  H   UNL     1      43.665 -20.013   0.917  1.00  0.00     0.217 HD
ENDBRANCH  12  17
ENDBRANCH  10  11
BRANCH   6  19
HETATM   19  C   UNL     1      42.287 -15.680   4.510  1.00  0.00    -0.031 A 
HETATM   20  C   UNL     1      42.276 -16.110   5.850  1.00  0.00     0.011 A 
HETATM   21  C   UNL     1      43.092 -15.499   6.807  1.00  0.00     0.024 A 
HETATM   22  C   UNL     1      43.947 -14.467   6.434  1.00  0.00     0.034 A 
HETATM   23 CL   UNL     1      44.953 -13.718   7.611  1.00  0.00    -0.084 Cl
HETATM   24  C   UNL     1      43.998 -14.043   5.109  1.00  0.00     0.024 A 
HETATM   25  C   UNL     1      43.177 -14.649   4.155  1.00  0.00     0.011 A 
ENDBRANCH   6  19
BRANCH   1  26
HETATM   26  C   UNL     1      39.651 -14.482   3.066  1.00  0.00     0.129 C 
BRANCH  26  27
HETATM   27  C   UNL     1      40.018 -13.011   3.275  1.00  0.00     0.046 C 
BRANCH  27  28
HETATM   28  C   UNL     1      39.484 -12.074   2.197  1.00  0.00     0.169 C 
BRANCH  28  29
HETATM   29  O   UNL     1      38.062 -12.180   2.137  1.00  0.00    -0.387 OA
BRANCH  29  30
HETATM   30  C   UNL     1      37.545 -12.353   0.813  1.00  0.00     0.113 C 
HETATM   31  C   UNL     1      36.249 -11.577   0.591  1.00  0.00     0.039 C 
HETATM   32  C   UNL     1      37.292 -13.846   0.632  1.00  0.00     0.039 C 
ENDBRANCH  29  30
ENDBRANCH  28  29
ENDBRANCH  27  28
ENDBRANCH  26  27
ENDBRANCH   1  26
TORSDOF 8
ENDMDL
MODEL 5
REMARK VINA RESULT:      -7.8      4.109      6.237
REMARK  8 active torsions:
REMARK  status: ('A' for Active; 'I' for Inactive)
REMARK    1  A    between atoms: C_2  and  O_3 
REMARK    2  A    between atoms: O_3  and  C_4 
REMARK    3  A    between atoms: C_4  and  C_5 
REMARK    4  A    between atoms: C_5  and  C_6 
REMARK    5  A    between atoms: C_6  and  N_7 
REMARK    6  A    between atoms: C_12  and  C_13 
REMARK    7  A    between atoms: C_23  and  C_24 
REMARK    8  A    between atoms: C_25  and  O_26 
ROOT
HETATM    1  N   UNL     1      40.526 -15.728   1.411  1.00  0.00    -0.334 N 
HETATM    2  C   UNL     1      41.374 -16.039   0.345  1.00  0.00     0.273 A 
HETATM    3  O   UNL     1      41.226 -15.807  -0.842  1.00  0.00    -0.266 OA
HETATM    4  C   UNL     1      42.435 -16.737   0.965  1.00  0.00     0.129 A 
HETATM    5  C   UNL     1      42.278 -16.865   2.314  1.00  0.00     0.034 A 
HETATM    6  C   UNL     1      41.012 -16.212   2.731  1.00  0.00     0.159 A 
HETATM    7  N   UNL     1      43.579 -17.338   0.618  1.00  0.00    -0.272 N 
HETATM    8  H   UNL     1      44.002 -17.433  -0.302  1.00  0.00     0.189 HD
HETATM    9  N   UNL     1      44.204 -17.871   1.698  1.00  0.00    -0.173 NA
HETATM   10  C   UNL     1      43.396 -17.598   2.760  1.00  0.00     0.101 A 
ENDROOT
BRANCH  10  11
HETATM   11  C   UNL     1      43.770 -18.044   4.112  1.00  0.00     0.028 A 
HETATM   12  C   UNL     1      44.237 -19.352   4.353  1.00  0.00     0.078 A 
HETATM   13  C   UNL     1      44.615 -19.770   5.629  1.00  0.00     0.037 A 
HETATM   14  C   UNL     1      44.531 -18.888   6.701  1.00  0.00     0.003 A 
HETATM   15  C   UNL     1      44.061 -17.593   6.494  1.00  0.00     0.001 A 
HETATM   16  C   UNL     1      43.679 -17.178   5.213  1.00  0.00     0.017 A 
BRANCH  12  17
HETATM   17  O   UNL     1      44.346 -20.297   3.364  1.00  0.00    -0.360 OA
HETATM   18  H   UNL     1      44.852 -19.868   2.635  1.00  0.00     0.217 HD
ENDBRANCH  12  17
ENDBRANCH  10  11
BRANCH   6  19
HETATM   19  C   UNL     1      41.318 -15.087   3.697  1.00  0.00    -0.031 A 
HETATM   20  C   UNL     1      42.261 -14.075   3.441  1.00  0.00     0.011 A 
HETATM   21  C   UNL     1      42.493 -13.057   4.371  1.00  0.00     0.024 A 
HETATM   22  C   UNL     1      41.770 -13.024   5.559  1.00  0.00     0.034 A 
HETATM   23 CL   UNL     1      42.054 -11.770   6.702  1.00  0.00    -0.084 Cl
HETATM   24  C   UNL     1      40.811 -13.996   5.823  1.00  0.00     0.024 A 
HETATM   25  C   UNL     1      40.584 -15.017   4.897  1.00  0.00     0.011 A 
ENDBRANCH   6  19
BRANCH   1  26
HETATM   26  C   UNL     1      39.213 -15.133   1.240  1.00  0.00     0.129 C 
BRANCH  26  27
HETATM   27  C   UNL     1      39.251 -13.622   1.000  1.00  0.00     0.046 C 
BRANCH  27  28
HETATM   28  C   UNL     1      37.929 -12.912   1.270  1.00  0.00     0.169 C 
BRANCH  28  29
HETATM   29  O   UNL     1      38.181 -11.674   1.932  1.00  0.00    -0.387 OA
BRANCH  29  30
HETATM   30  C   UNL     1      39.195 -11.746   2.941  1.00  0.00     0.113 C 
HETATM   31  C   UNL     1      38.642 -11.483   4.339  1.00  0.00     0.039 C 
HETATM   32  C   UNL     1      40.240 -10.691   2.589  1.00  0.00     0.039 C 
ENDBRANCH  29  30
ENDBRANCH  28  29
ENDBRANCH  27  28
ENDBRANCH  26  27
ENDBRANCH   1  26
TORSDOF 8
ENDMDL
MODEL 6
REMARK VINA RESULT:      -7.8      4.484      7.471
REMARK  8 active torsions:
REMARK  status: ('A' for Active; 'I' for Inactive)
REMARK    1  A    between atoms: C_2  and  O_3 
REMARK    2  A    between atoms: O_3  and  C_4 
REMARK    3  A    between atoms: C_4  and  C_5 
REMARK    4  A    between atoms: C_5  and  C_6 
REMARK    5  A    between atoms: C_6  and  N_7 
REMARK    6  A    between atoms: C_12  and  C_13 
REMARK    7  A    between atoms: C_23  and  C_24 
REMARK    8  A    between atoms: C_25  and  O_26 
ROOT
HETATM    1  N   UNL     1      40.411 -15.586   1.421  1.00  0.00    -0.334 N 
HETATM    2  C   UNL     1      41.265 -15.870   0.352  1.00  0.00     0.273 A 
HETATM    3  O   UNL     1      41.110 -15.634  -0.833  1.00  0.00    -0.266 OA
HETATM    4  C   UNL     1      42.344 -16.545   0.967  1.00  0.00     0.129 A 
HETATM    5  C   UNL     1      42.192 -16.685   2.315  1.00  0.00     0.034 A 
HETATM    6  C   UNL     1      40.911 -16.066   2.737  1.00  0.00     0.159 A 
HETATM    7  N   UNL     1      43.502 -17.116   0.614  1.00  0.00    -0.272 N 
HETATM    8  H   UNL     1      43.926 -17.194  -0.307  1.00  0.00     0.189 HD
HETATM    9  N   UNL     1      44.141 -17.639   1.691  1.00  0.00    -0.173 NA
HETATM   10  C   UNL     1      43.328 -17.392   2.755  1.00  0.00     0.101 A 
ENDROOT
BRANCH  10  11
HETATM   11  C   UNL     1      43.716 -17.838   4.103  1.00  0.00     0.028 A 
HETATM   12  C   UNL     1      44.178 -19.148   4.343  1.00  0.00     0.078 A 
HETATM   13  C   UNL     1      44.569 -19.565   5.615  1.00  0.00     0.037 A 
HETATM   14  C   UNL     1      44.501 -18.680   6.686  1.00  0.00     0.003 A 
HETATM   15  C   UNL     1      44.035 -17.383   6.481  1.00  0.00     0.001 A 
HETATM   16  C   UNL     1      43.641 -16.969   5.203  1.00  0.00     0.017 A 
BRANCH  12  17
HETATM   17  O   UNL     1      44.272 -20.095   3.354  1.00  0.00    -0.360 OA
HETATM   18  H   UNL     1      43.774 -20.879   3.682  1.00  0.00     0.217 HD
ENDBRANCH  12  17
ENDBRANCH  10  11
BRANCH   6  19
HETATM   19  C   UNL     1      41.190 -14.940   3.710  1.00  0.00    -0.031 A 
HETATM   20  C   UNL     1      42.161 -13.944   3.492  1.00  0.00     0.011 A 
HETATM   21  C   UNL     1      42.367 -12.925   4.426  1.00  0.00     0.024 A 
HETATM   22  C   UNL     1      41.590 -12.872   5.579  1.00  0.00     0.034 A 
HETATM   23 CL   UNL     1      41.841 -11.616   6.727  1.00  0.00    -0.084 Cl
HETATM   24  C   UNL     1      40.604 -13.827   5.804  1.00  0.00     0.024 A 
HETATM   25  C   UNL     1      40.404 -14.850   4.874  1.00  0.00     0.011 A 
ENDBRANCH   6  19
BRANCH   1  26
HETATM   26  C   UNL     1      39.084 -15.022   1.255  1.00  0.00     0.129 C 
BRANCH  26  27
HETATM   27  C   UNL     1      39.078 -13.499   1.114  1.00  0.00     0.046 C 
BRANCH  27  28
HETATM   28  C   UNL     1      38.728 -13.002  -0.285  1.00  0.00     0.169 C 
BRANCH  28  29
HETATM   29  O   UNL     1      38.167 -14.072  -1.043  1.00  0.00    -0.387 OA
BRANCH  29  30
HETATM   30  C   UNL     1      38.039 -13.794  -2.441  1.00  0.00     0.113 C 
HETATM   31  C   UNL     1      37.585 -15.014  -3.237  1.00  0.00     0.039 C 
HETATM   32  C   UNL     1      39.413 -13.341  -2.926  1.00  0.00     0.039 C 
ENDBRANCH  29  30
ENDBRANCH  28  29
ENDBRANCH  27  28
ENDBRANCH  26  27
ENDBRANCH   1  26
TORSDOF 8
ENDMDL
MODEL 7
REMARK VINA RESULT:      -7.7      4.533      8.267
REMARK  8 active torsions:
REMARK  status: ('A' for Active; 'I' for Inactive)
REMARK    1  A    between atoms: C_2  and  O_3 
REMARK    2  A    between atoms: O_3  and  C_4 
REMARK    3  A    between atoms: C_4  and  C_5 
REMARK    4  A    between atoms: C_5  and  C_6 
REMARK    5  A    between atoms: C_6  and  N_7 
REMARK    6  A    between atoms: C_12  and  C_13 
REMARK    7  A    between atoms: C_23  and  C_24 
REMARK    8  A    between atoms: C_25  and  O_26 
ROOT
HETATM    1  N   UNL     1      41.047 -15.226   0.765  1.00  0.00    -0.334 N 
HETATM    2  C   UNL     1      39.830 -14.810   1.310  1.00  0.00     0.273 A 
HETATM    3  O   UNL     1      38.804 -14.491   0.736  1.00  0.00    -0.266 OA
HETATM    4  C   UNL     1      40.083 -14.800   2.702  1.00  0.00     0.129 A 
HETATM    5  C   UNL     1      41.356 -15.174   3.019  1.00  0.00     0.034 A 
HETATM    6  C   UNL     1      42.104 -15.491   1.777  1.00  0.00     0.159 A 
HETATM    7  N   UNL     1      39.435 -14.516   3.837  1.00  0.00    -0.272 N 
HETATM    8  H   UNL     1      38.475 -14.206   3.969  1.00  0.00     0.189 HD
HETATM    9  N   UNL     1      40.235 -14.689   4.918  1.00  0.00    -0.173 NA
HETATM   10  C   UNL     1      41.440 -15.083   4.422  1.00  0.00     0.101 A 
ENDROOT
BRANCH  10  11
HETATM   11  C   UNL     1      42.564 -15.357   5.333  1.00  0.00     0.028 A 
HETATM   12  C   UNL     1      43.078 -14.363   6.189  1.00  0.00     0.078 A 
HETATM   13  C   UNL     1      44.126 -14.627   7.071  1.00  0.00     0.037 A 
HETATM   14  C   UNL     1      44.693 -15.896   7.113  1.00  0.00     0.003 A 
HETATM   15  C   UNL     1      44.214 -16.895   6.268  1.00  0.00     0.001 A 
HETATM   16  C   UNL     1      43.164 -16.625   5.383  1.00  0.00     0.017 A 
BRANCH  12  17
HETATM   17  O   UNL     1      42.592 -13.079   6.214  1.00  0.00    -0.360 OA
HETATM   18  H   UNL     1      41.849 -13.084   6.862  1.00  0.00     0.217 HD
ENDBRANCH  12  17
ENDBRANCH  10  11
BRANCH   6  19
HETATM   19  C   UNL     1      42.544 -16.939   1.807  1.00  0.00    -0.031 A 
HETATM   20  C   UNL     1      41.650 -18.026   1.761  1.00  0.00     0.011 A 
HETATM   21  C   UNL     1      42.119 -19.343   1.785  1.00  0.00     0.024 A 
HETATM   22  C   UNL     1      43.487 -19.593   1.832  1.00  0.00     0.034 A 
HETATM   23 CL   UNL     1      44.063 -21.213   1.858  1.00  0.00    -0.084 Cl
HETATM   24  C   UNL     1      44.392 -18.536   1.849  1.00  0.00     0.024 A 
HETATM   25  C   UNL     1      43.923 -17.220   1.832  1.00  0.00     0.011 A 
ENDBRANCH   6  19
BRANCH   1  26
HETATM   26  C   UNL     1      41.318 -15.245  -0.661  1.00  0.00     0.129 C 
BRANCH  26  27
HETATM   27  C   UNL     1      41.579 -13.858  -1.254  1.00  0.00     0.046 C 
BRANCH  27  28
HETATM   28  C   UNL     1      40.607 -13.458  -2.359  1.00  0.00     0.169 C 
BRANCH  28  29
HETATM   29  O   UNL     1      40.495 -14.522  -3.302  1.00  0.00    -0.387 OA
BRANCH  29  30
HETATM   30  C   UNL     1      39.158 -14.764  -3.754  1.00  0.00     0.113 C 
HETATM   31  C   UNL     1      38.114 -14.386  -2.707  1.00  0.00     0.039 C 
HETATM   32  C   UNL     1      39.064 -16.254  -4.067  1.00  0.00     0.039 C 
ENDBRANCH  29  30
ENDBRANCH  28  29
ENDBRANCH  27  28
ENDBRANCH  26  27
ENDBRANCH   1  26
TORSDOF 8
ENDMDL
MODEL 8
REMARK VINA RESULT:      -7.6      4.818      8.393
REMARK  8 active torsions:
REMARK  status: ('A' for Active; 'I' for Inactive)
REMARK    1  A    between atoms: C_2  and  O_3 
REMARK    2  A    between atoms: O_3  and  C_4 
REMARK    3  A    between atoms: C_4  and  C_5 
REMARK    4  A    between atoms: C_5  and  C_6 
REMARK    5  A    between atoms: C_6  and  N_7 
REMARK    6  A    between atoms: C_12  and  C_13 
REMARK    7  A    between atoms: C_23  and  C_24 
REMARK    8  A    between atoms: C_25  and  O_26 
ROOT
HETATM    1  N   UNL     1      41.746 -16.339   2.258  1.00  0.00    -0.334 N 
HETATM    2  C   UNL     1      41.102 -16.985   1.200  1.00  0.00     0.273 A 
HETATM    3  O   UNL     1      40.675 -18.124   1.147  1.00  0.00    -0.266 OA
HETATM    4  C   UNL     1      41.102 -16.011   0.175  1.00  0.00     0.129 A 
HETATM    5  C   UNL     1      41.700 -14.842   0.545  1.00  0.00     0.034 A 
HETATM    6  C   UNL     1      42.174 -14.948   1.947  1.00  0.00     0.159 A 
HETATM    7  N   UNL     1      40.689 -15.888  -1.091  1.00  0.00    -0.272 N 
HETATM    8  H   UNL     1      40.208 -16.564  -1.679  1.00  0.00     0.189 HD
HETATM    9  N   UNL     1      40.991 -14.663  -1.592  1.00  0.00    -0.173 NA
HETATM   10  C   UNL     1      41.635 -14.007  -0.587  1.00  0.00     0.101 A 
ENDROOT
BRANCH  10  11
HETATM   11  C   UNL     1      42.117 -12.630  -0.791  1.00  0.00     0.028 A 
HETATM   12  C   UNL     1      42.805 -12.256  -1.962  1.00  0.00     0.078 A 
HETATM   13  C   UNL     1      43.242 -10.947  -2.168  1.00  0.00     0.037 A 
HETATM   14  C   UNL     1      43.005  -9.977  -1.200  1.00  0.00     0.003 A 
HETATM   15  C   UNL     1      42.339 -10.322  -0.026  1.00  0.00     0.001 A 
HETATM   16  C   UNL     1      41.905 -11.637   0.179  1.00  0.00     0.017 A 
BRANCH  12  17
HETATM   17  O   UNL     1      43.094 -13.142  -2.970  1.00  0.00    -0.360 OA
HETATM   18  H   UNL     1      42.571 -12.845  -3.750  1.00  0.00     0.217 HD
ENDBRANCH  12  17
ENDBRANCH  10  11
BRANCH   6  19
HETATM   19  C   UNL     1      41.475 -13.910   2.798  1.00  0.00    -0.031 A 
HETATM   20  C   UNL     1      40.078 -13.739   2.828  1.00  0.00     0.011 A 
HETATM   21  C   UNL     1      39.491 -12.765   3.641  1.00  0.00     0.024 A 
HETATM   22  C   UNL     1      40.288 -11.966   4.455  1.00  0.00     0.034 A 
HETATM   23 CL   UNL     1      39.565 -10.771   5.458  1.00  0.00    -0.084 Cl
HETATM   24  C   UNL     1      41.669 -12.136   4.467  1.00  0.00     0.024 A 
HETATM   25  C   UNL     1      42.256 -13.103   3.647  1.00  0.00     0.011 A 
ENDBRANCH   6  19
BRANCH   1  26
HETATM   26  C   UNL     1      42.115 -17.004   3.494  1.00  0.00     0.129 C 
BRANCH  26  27
HETATM   27  C   UNL     1      43.601 -17.359   3.580  1.00  0.00     0.046 C 
BRANCH  27  28
HETATM   28  C   UNL     1      44.105 -18.226   2.431  1.00  0.00     0.169 C 
BRANCH  28  29
HETATM   29  O   UNL     1      43.528 -19.527   2.530  1.00  0.00    -0.387 OA
BRANCH  29  30
HETATM   30  C   UNL     1      44.485 -20.592   2.524  1.00  0.00     0.113 C 
HETATM   31  C   UNL     1      43.972 -21.828   1.789  1.00  0.00     0.039 C 
HETATM   32  C   UNL     1      44.768 -20.936   3.983  1.00  0.00     0.039 C 
ENDBRANCH  29  30
ENDBRANCH  28  29
ENDBRANCH  27  28
ENDBRANCH  26  27
ENDBRANCH   1  26
TORSDOF 8
ENDMDL
MODEL 9
REMARK VINA RESULT:      -7.6      4.649      7.418
REMARK  8 active torsions:
REMARK  status: ('A' for Active; 'I' for Inactive)
REMARK    1  A    between atoms: C_2  and  O_3 
REMARK    2  A    between atoms: O_3  and  C_4 
REMARK    3  A    between atoms: C_4  and  C_5 
REMARK    4  A    between atoms: C_5  and  C_6 
REMARK    5  A    between atoms: C_6  and  N_7 
REMARK    6  A    between atoms: C_12  and  C_13 
REMARK    7  A    between atoms: C_23  and  C_24 
REMARK    8  A    between atoms: C_25  and  O_26 
ROOT
HETATM    1  N   UNL     1      42.159 -16.612   2.255  1.00  0.00    -0.334 N 
HETATM    2  C   UNL     1      41.462 -17.257   1.232  1.00  0.00     0.273 A 
HETATM    3  O   UNL     1      41.095 -18.417   1.171  1.00  0.00    -0.266 OA
HETATM    4  C   UNL     1      41.319 -16.251   0.249  1.00  0.00     0.129 A 
HETATM    5  C   UNL     1      41.882 -15.063   0.612  1.00  0.00     0.034 A 
HETATM    6  C   UNL     1      42.482 -15.189   1.963  1.00  0.00     0.159 A 
HETATM    7  N   UNL     1      40.792 -16.109  -0.972  1.00  0.00    -0.272 N 
HETATM    8  H   UNL     1      40.299 -16.791  -1.543  1.00  0.00     0.189 HD
HETATM    9  N   UNL     1      40.981 -14.853  -1.448  1.00  0.00    -0.173 NA
HETATM   10  C   UNL     1      41.673 -14.194  -0.478  1.00  0.00     0.101 A 
ENDROOT
BRANCH  10  11
HETATM   11  C   UNL     1      42.061 -12.787  -0.668  1.00  0.00     0.028 A 
HETATM   12  C   UNL     1      42.740 -12.359  -1.826  1.00  0.00     0.078 A 
HETATM   13  C   UNL     1      43.087 -11.022  -2.020  1.00  0.00     0.037 A 
HETATM   14  C   UNL     1      42.765 -10.075  -1.052  1.00  0.00     0.003 A 
HETATM   15  C   UNL     1      42.106 -10.472   0.109  1.00  0.00     0.001 A 
HETATM   16  C   UNL     1      41.763 -11.816   0.301  1.00  0.00     0.017 A 
BRANCH  12  17
HETATM   17  O   UNL     1      43.109 -13.218  -2.832  1.00  0.00    -0.360 OA
HETATM   18  H   UNL     1      43.915 -13.682  -2.509  1.00  0.00     0.217 HD
ENDBRANCH  12  17
ENDBRANCH  10  11
BRANCH   6  19
HETATM   19  C   UNL     1      41.804 -14.222   2.910  1.00  0.00    -0.031 A 
HETATM   20  C   UNL     1      40.414 -14.186   3.123  1.00  0.00     0.011 A 
HETATM   21  C   UNL     1      39.847 -13.273   4.018  1.00  0.00     0.024 A 
HETATM   22  C   UNL     1      40.664 -12.401   4.730  1.00  0.00     0.034 A 
HETATM   23 CL   UNL     1      39.968 -11.280   5.833  1.00  0.00    -0.084 Cl
HETATM   24  C   UNL     1      42.045 -12.436   4.560  1.00  0.00     0.024 A 
HETATM   25  C   UNL     1      42.609 -13.343   3.660  1.00  0.00     0.011 A 
ENDBRANCH   6  19
BRANCH   1  26
HETATM   26  C   UNL     1      42.670 -17.296   3.429  1.00  0.00     0.129 C 
BRANCH  26  27
HETATM   27  C   UNL     1      41.645 -17.430   4.556  1.00  0.00     0.046 C 
BRANCH  27  28
HETATM   28  C   UNL     1      42.001 -16.655   5.820  1.00  0.00     0.169 C 
BRANCH  28  29
HETATM   29  O   UNL     1      43.362 -16.233   5.751  1.00  0.00    -0.387 OA
BRANCH  29  30
HETATM   30  C   UNL     1      44.179 -16.716   6.823  1.00  0.00     0.113 C 
HETATM   31  C   UNL     1      45.008 -17.931   6.418  1.00  0.00     0.039 C 
HETATM   32  C   UNL     1      43.234 -17.088   7.961  1.00  0.00     0.039 C 
ENDBRANCH  29  30
ENDBRANCH  28  29
ENDBRANCH  27  28
ENDBRANCH  26  27
ENDBRANCH   1  26
TORSDOF 8
ENDMDL
MODEL 10
REMARK VINA RESULT:      -7.6      3.755      5.675
REMARK  8 active torsions:
REMARK  status: ('A' for Active; 'I' for Inactive)
REMARK    1  A    between atoms: C_2  and  O_3 
REMARK    2  A    between atoms: O_3  and  C_4 
REMARK    3  A    between atoms: C_4  and  C_5 
REMARK    4  A    between atoms: C_5  and  C_6 
REMARK    5  A    between atoms: C_6  and  N_7 
REMARK    6  A    between atoms: C_12  and  C_13 
REMARK    7  A    between atoms: C_23  and  C_24 
REMARK    8  A    between atoms: C_25  and  O_26 
ROOT
HETATM    1  N   UNL     1      40.954 -13.165   4.804  1.00  0.00    -0.334 N 
HETATM    2  C   UNL     1      40.222 -13.723   5.855  1.00  0.00     0.273 A 
HETATM    3  O   UNL     1      39.551 -13.161   6.702  1.00  0.00    -0.266 OA
HETATM    4  C   UNL     1      40.482 -15.108   5.735  1.00  0.00     0.129 A 
HETATM    5  C   UNL     1      41.314 -15.409   4.697  1.00  0.00     0.034 A 
HETATM    6  C   UNL     1      41.697 -14.163   3.988  1.00  0.00     0.159 A 
HETATM    7  N   UNL     1      40.158 -16.247   6.357  1.00  0.00    -0.272 N 
HETATM    8  H   UNL     1      39.560 -16.389   7.167  1.00  0.00     0.189 HD
HETATM    9  N   UNL     1      40.748 -17.316   5.766  1.00  0.00    -0.173 NA
HETATM   10  C   UNL     1      41.484 -16.807   4.740  1.00  0.00     0.101 A 
ENDROOT
BRANCH  10  11
HETATM   11  C   UNL     1      42.273 -17.702   3.877  1.00  0.00     0.028 A 
HETATM   12  C   UNL     1      43.234 -18.584   4.412  1.00  0.00     0.078 A 
HETATM   13  C   UNL     1      43.965 -19.450   3.599  1.00  0.00     0.037 A 
HETATM   14  C   UNL     1      43.757 -19.452   2.224  1.00  0.00     0.003 A 
HETATM   15  C   UNL     1      42.822 -18.582   1.666  1.00  0.00     0.001 A 
HETATM   16  C   UNL     1      42.093 -17.712   2.485  1.00  0.00     0.017 A 
BRANCH  12  17
HETATM   17  O   UNL     1      43.518 -18.648   5.753  1.00  0.00    -0.360 OA
HETATM   18  H   UNL     1      44.378 -18.183   5.870  1.00  0.00     0.217 HD
ENDBRANCH  12  17
ENDBRANCH  10  11
BRANCH   6  19
HETATM   19  C   UNL     1      41.218 -14.229   2.554  1.00  0.00    -0.031 A 
HETATM   20  C   UNL     1      39.959 -14.732   2.175  1.00  0.00     0.011 A 
HETATM   21  C   UNL     1      39.571 -14.759   0.832  1.00  0.00     0.024 A 
HETATM   22  C   UNL     1      40.425 -14.262  -0.148  1.00  0.00     0.034 A 
HETATM   23 CL   UNL     1      39.946 -14.293  -1.800  1.00  0.00    -0.084 Cl
HETATM   24  C   UNL     1      41.662 -13.732   0.203  1.00  0.00     0.024 A 
HETATM   25  C   UNL     1      42.053 -13.712   1.544  1.00  0.00     0.011 A 
ENDBRANCH   6  19
BRANCH   1  26
HETATM   26  C   UNL     1      41.114 -11.735   4.613  1.00  0.00     0.129 C 
BRANCH  26  27
HETATM   27  C   UNL     1      39.830 -11.027   4.174  1.00  0.00     0.046 C 
BRANCH  27  28
HETATM   28  C   UNL     1      39.570 -11.079   2.673  1.00  0.00     0.169 C 
BRANCH  28  29
HETATM   29  O   UNL     1      38.279 -11.637   2.434  1.00  0.00    -0.387 OA
BRANCH  29  30
HETATM   30  C   UNL     1      37.703 -11.262   1.177  1.00  0.00     0.113 C 
HETATM   31  C   UNL     1      36.863 -12.380   0.567  1.00  0.00     0.039 C 
HETATM   32  C   UNL     1      38.864 -10.919   0.248  1.00  0.00     0.039 C 
ENDBRANCH  29  30
ENDBRANCH  28  29
ENDBRANCH  27  28
ENDBRANCH  26  27
ENDBRANCH   1  26
TORSDOF 8
ENDMDL
