MODEL 1
REMARK VINA RESULT:      -9.5      0.000      0.000
REMARK  4 active torsions:
REMARK  status: ('A' for Active; 'I' for Inactive)
REMARK    1  A    between atoms: C_3  and  C_4 
REMARK       I    between atoms: C_4  and  N_5 
REMARK    2  A    between atoms: N_5  and  N_6 
REMARK    3  A    between atoms: C_21  and  C_22 
REMARK    4  A    between atoms: C_25  and  O_26 
ROOT
HETATM    1  C   UNL     1      42.888 -14.850   2.793  1.00  0.00     0.290 C 
HETATM    2  N   UNL     1      42.350 -15.836   3.607  1.00  0.00    -0.241 N 
HETATM    3  O   UNL     1      43.878 -14.185   3.083  1.00  0.00    -0.264 OA
HETATM    4  H   UNL     1      41.535 -16.343   3.310  1.00  0.00     0.192 HD
ENDROOT
BRANCH   1   5
HETATM    5  C   UNL     1      42.148 -14.582   1.580  1.00  0.00     0.127 A 
HETATM    6  C   UNL     1      41.423 -15.341   0.667  1.00  0.00     0.003 A 
HETATM    7  C   UNL     1      41.246 -16.817   0.621  1.00  0.00     0.053 C 
HETATM    8  C   UNL     1      40.916 -14.388  -0.282  1.00  0.00     0.095 A 
HETATM    9  N   UNL     1      41.359 -13.155  -0.004  1.00  0.00    -0.173 NA
HETATM   10  N   UNL     1      42.119 -13.308   1.083  1.00  0.00    -0.272 N 
HETATM   11  H   UNL     1      42.594 -12.498   1.473  1.00  0.00     0.189 HD
BRANCH   8  12
HETATM   12  C   UNL     1      40.056 -14.615  -1.446  1.00  0.00    -0.005 A 
HETATM   13  C   UNL     1      38.753 -14.105  -1.464  1.00  0.00     0.016 A 
HETATM   14  C   UNL     1      37.928 -14.304  -2.575  1.00  0.00     0.037 A 
HETATM   15  C   UNL     1      38.390 -15.013  -3.685  1.00  0.00     0.068 A 
HETATM   16  C   UNL     1      39.679 -15.547  -3.664  1.00  0.00     0.037 A 
HETATM   17  C   UNL     1      40.505 -15.351  -2.548  1.00  0.00     0.016 A 
BRANCH  15  18
HETATM   18  O   UNL     1      37.490 -15.125  -4.708  1.00  0.00    -0.356 OA
HETATM   19  C   UNL     1      36.314 -14.331  -4.617  1.00  0.00     0.210 C 
ENDBRANCH  15  18
ENDBRANCH   8  12
ENDBRANCH   1   5
BRANCH   2  20
HETATM   20  N   UNL     1      43.031 -16.265   4.704  1.00  0.00    -0.165 NA
HETATM   21  C   UNL     1      43.622 -17.417   4.690  1.00  0.00     0.157 A 
HETATM   22  C   UNL     1      44.550 -17.840   5.850  1.00  0.00     0.277 A 
HETATM   23  C   UNL     1      43.641 -18.538   3.739  1.00  0.00     0.027 A 
HETATM   24  O   UNL     1      44.782 -17.216   6.861  1.00  0.00    -0.266 OA
HETATM   25  N   UNL     1      45.066 -19.059   5.477  1.00  0.00    -0.321 N 
HETATM   26  C   UNL     1      44.539 -19.474   4.261  1.00  0.00     0.048 A 
HETATM   27  H   UNL     1      45.708 -19.577   6.058  1.00  0.00     0.169 HD
HETATM   28  C   UNL     1      44.810 -20.669   3.626  1.00  0.00     0.030 A 
HETATM   29  C   UNL     1      44.135 -20.931   2.432  1.00  0.00     0.002 A 
HETATM   30  C   UNL     1      43.203 -20.012   1.916  1.00  0.00     0.001 A 
HETATM   31  C   UNL     1      42.939 -18.806   2.577  1.00  0.00     0.016 A 
ENDBRANCH   2  20
TORSDOF 4
ENDMDL
MODEL 2
REMARK VINA RESULT:      -9.1      2.507      2.888
REMARK  4 active torsions:
REMARK  status: ('A' for Active; 'I' for Inactive)
REMARK    1  A    between atoms: C_3  and  C_4 
REMARK       I    between atoms: C_4  and  N_5 
REMARK    2  A    between atoms: N_5  and  N_6 
REMARK    3  A    between atoms: C_21  and  C_22 
REMARK    4  A    between atoms: C_25  and  O_26 
ROOT
HETATM    1  C   UNL     1      41.876 -16.206   2.454  1.00  0.00     0.290 C 
HETATM    2  N   UNL     1      43.204 -16.461   2.761  1.00  0.00    -0.241 N 
HETATM    3  O   UNL     1      40.936 -16.479   3.194  1.00  0.00    -0.264 OA
HETATM    4  H   UNL     1      43.926 -16.213   2.108  1.00  0.00     0.192 HD
ENDROOT
BRANCH   1   5
HETATM    5  C   UNL     1      41.643 -15.655   1.138  1.00  0.00     0.127 A 
HETATM    6  C   UNL     1      41.682 -14.387   0.567  1.00  0.00     0.003 A 
HETATM    7  C   UNL     1      41.919 -13.078   1.230  1.00  0.00     0.053 C 
HETATM    8  C   UNL     1      41.379 -14.600  -0.822  1.00  0.00     0.095 A 
HETATM    9  N   UNL     1      41.108 -15.891  -1.059  1.00  0.00    -0.173 NA
HETATM   10  N   UNL     1      41.234 -16.485   0.130  1.00  0.00    -0.272 N 
HETATM   11  H   UNL     1      41.048 -17.481   0.207  1.00  0.00     0.189 HD
BRANCH   8  12
HETATM   12  C   UNL     1      41.313 -13.624  -1.911  1.00  0.00    -0.005 A 
HETATM   13  C   UNL     1      42.483 -13.013  -2.377  1.00  0.00     0.016 A 
HETATM   14  C   UNL     1      42.434 -12.090  -3.425  1.00  0.00     0.037 A 
HETATM   15  C   UNL     1      41.217 -11.760  -4.025  1.00  0.00     0.068 A 
HETATM   16  C   UNL     1      40.043 -12.344  -3.549  1.00  0.00     0.037 A 
HETATM   17  C   UNL     1      40.091 -13.268  -2.495  1.00  0.00     0.016 A 
BRANCH  15  18
HETATM   18  O   UNL     1      41.308 -10.855  -5.045  1.00  0.00    -0.356 OA
HETATM   19  C   UNL     1      42.448 -10.005  -5.048  1.00  0.00     0.210 C 
ENDBRANCH  15  18
ENDBRANCH   8  12
ENDBRANCH   1   5
BRANCH   2  20
HETATM   20  N   UNL     1      43.554 -16.852   4.016  1.00  0.00    -0.165 NA
HETATM   21  C   UNL     1      43.921 -18.075   4.235  1.00  0.00     0.157 A 
HETATM   22  C   UNL     1      44.497 -18.491   5.606  1.00  0.00     0.277 A 
HETATM   23  C   UNL     1      43.940 -19.293   3.411  1.00  0.00     0.027 A 
HETATM   24  O   UNL     1      44.619 -17.791   6.586  1.00  0.00    -0.266 OA
HETATM   25  N   UNL     1      44.855 -19.812   5.465  1.00  0.00    -0.321 N 
HETATM   26  C   UNL     1      44.529 -20.285   4.201  1.00  0.00     0.048 A 
HETATM   27  H   UNL     1      45.259 -20.347   6.219  1.00  0.00     0.169 HD
HETATM   28  C   UNL     1      44.710 -21.577   3.748  1.00  0.00     0.030 A 
HETATM   29  C   UNL     1      44.264 -21.875   2.459  1.00  0.00     0.002 A 
HETATM   30  C   UNL     1      43.637 -20.893   1.670  1.00  0.00     0.001 A 
HETATM   31  C   UNL     1      43.460 -19.589   2.148  1.00  0.00     0.016 A 
ENDBRANCH   2  20
TORSDOF 4
ENDMDL
MODEL 3
REMARK VINA RESULT:      -8.6      2.032      2.306
REMARK  4 active torsions:
REMARK  status: ('A' for Active; 'I' for Inactive)
REMARK    1  A    between atoms: C_3  and  C_4 
REMARK       I    between atoms: C_4  and  N_5 
REMARK    2  A    between atoms: N_5  and  N_6 
REMARK    3  A    between atoms: C_21  and  C_22 
REMARK    4  A    between atoms: C_25  and  O_26 
ROOT
HETATM    1  C   UNL     1      41.646 -16.428   2.765  1.00  0.00     0.290 C 
HETATM    2  N   UNL     1      43.018 -16.541   2.928  1.00  0.00    -0.241 N 
HETATM    3  O   UNL     1      40.821 -16.850   3.570  1.00  0.00    -0.264 OA
HETATM    4  H   UNL     1      43.638 -16.174   2.227  1.00  0.00     0.192 HD
ENDROOT
BRANCH   1   5
HETATM    5  C   UNL     1      41.220 -15.838   1.514  1.00  0.00     0.127 A 
HETATM    6  C   UNL     1      40.383 -14.792   1.140  1.00  0.00     0.003 A 
HETATM    7  C   UNL     1      39.525 -13.937   2.001  1.00  0.00     0.053 C 
HETATM    8  C   UNL     1      40.472 -14.746  -0.295  1.00  0.00     0.095 A 
HETATM    9  N   UNL     1      41.251 -15.734  -0.756  1.00  0.00    -0.173 NA
HETATM   10  N   UNL     1      41.648 -16.389   0.337  1.00  0.00    -0.272 N 
HETATM   11  H   UNL     1      42.238 -17.210   0.235  1.00  0.00     0.189 HD
BRANCH   8  12
HETATM   12  C   UNL     1      39.828 -13.821  -1.228  1.00  0.00    -0.005 A 
HETATM   13  C   UNL     1      40.542 -12.728  -1.737  1.00  0.00     0.016 A 
HETATM   14  C   UNL     1      39.941 -11.847  -2.639  1.00  0.00     0.037 A 
HETATM   15  C   UNL     1      38.620 -12.039  -3.049  1.00  0.00     0.068 A 
HETATM   16  C   UNL     1      37.894 -13.109  -2.526  1.00  0.00     0.037 A 
HETATM   17  C   UNL     1      38.495 -13.992  -1.618  1.00  0.00     0.016 A 
BRANCH  15  18
HETATM   18  O   UNL     1      38.157 -11.113  -3.942  1.00  0.00    -0.356 OA
HETATM   19  C   UNL     1      39.119 -10.515  -4.802  1.00  0.00     0.210 C 
ENDBRANCH  15  18
ENDBRANCH   8  12
ENDBRANCH   1   5
BRANCH   2  20
HETATM   20  N   UNL     1      43.534 -16.955   4.116  1.00  0.00    -0.165 NA
HETATM   21  C   UNL     1      43.955 -18.172   4.250  1.00  0.00     0.157 A 
HETATM   22  C   UNL     1      44.711 -18.608   5.525  1.00  0.00     0.277 A 
HETATM   23  C   UNL     1      43.896 -19.368   3.396  1.00  0.00     0.027 A 
HETATM   24  O   UNL     1      44.941 -17.932   6.501  1.00  0.00    -0.266 OA
HETATM   25  N   UNL     1      45.078 -19.915   5.301  1.00  0.00    -0.321 N 
HETATM   26  C   UNL     1      44.604 -20.364   4.075  1.00  0.00     0.048 A 
HETATM   27  H   UNL     1      45.588 -20.459   5.981  1.00  0.00     0.169 HD
HETATM   28  C   UNL     1      44.756 -21.638   3.565  1.00  0.00     0.030 A 
HETATM   29  C   UNL     1      44.155 -21.915   2.336  1.00  0.00     0.002 A 
HETATM   30  C   UNL     1      43.410 -20.930   1.661  1.00  0.00     0.001 A 
HETATM   31  C   UNL     1      43.265 -19.644   2.196  1.00  0.00     0.016 A 
ENDBRANCH   2  20
TORSDOF 4
ENDMDL
MODEL 4
REMARK VINA RESULT:      -8.4      2.994      3.905
REMARK  4 active torsions:
REMARK  status: ('A' for Active; 'I' for Inactive)
REMARK    1  A    between atoms: C_3  and  C_4 
REMARK       I    between atoms: C_4  and  N_5 
REMARK    2  A    between atoms: N_5  and  N_6 
REMARK    3  A    between atoms: C_21  and  C_22 
REMARK    4  A    between atoms: C_25  and  O_26 
ROOT
HETATM    1  C   UNL     1      42.827 -17.308   1.142  1.00  0.00     0.290 C 
HETATM    2  N   UNL     1      42.324 -18.425   1.792  1.00  0.00    -0.241 N 
HETATM    3  O   UNL     1      44.022 -17.113   0.938  1.00  0.00    -0.264 OA
HETATM    4  H   UNL     1      41.333 -18.522   1.929  1.00  0.00     0.192 HD
ENDROOT
BRANCH   1   5
HETATM    5  C   UNL     1      41.844 -16.312   0.778  1.00  0.00     0.127 A 
HETATM    6  C   UNL     1      40.890 -15.560   1.456  1.00  0.00     0.003 A 
HETATM    7  C   UNL     1      40.505 -15.625   2.891  1.00  0.00     0.053 C 
HETATM    8  C   UNL     1      40.295 -14.726   0.447  1.00  0.00     0.095 A 
HETATM    9  N   UNL     1      40.802 -15.004  -0.762  1.00  0.00    -0.173 NA
HETATM   10  N   UNL     1      41.690 -15.976  -0.539  1.00  0.00    -0.272 N 
HETATM   11  H   UNL     1      42.193 -16.376  -1.326  1.00  0.00     0.189 HD
BRANCH   8  12
HETATM   12  C   UNL     1      39.254 -13.707   0.590  1.00  0.00    -0.005 A 
HETATM   13  C   UNL     1      39.602 -12.391   0.916  1.00  0.00     0.016 A 
HETATM   14  C   UNL     1      38.618 -11.406   1.042  1.00  0.00     0.037 A 
HETATM   15  C   UNL     1      37.272 -11.719   0.845  1.00  0.00     0.068 A 
HETATM   16  C   UNL     1      36.914 -13.033   0.546  1.00  0.00     0.037 A 
HETATM   17  C   UNL     1      37.900 -14.022   0.423  1.00  0.00     0.016 A 
BRANCH  15  18
HETATM   18  O   UNL     1      36.412 -10.664   0.985  1.00  0.00    -0.356 OA
HETATM   19  C   UNL     1      35.053 -10.895   0.638  1.00  0.00     0.210 C 
ENDBRANCH  15  18
ENDBRANCH   8  12
ENDBRANCH   1   5
BRANCH   2  20
HETATM   20  N   UNL     1      43.135 -19.484   2.061  1.00  0.00    -0.165 NA
HETATM   21  C   UNL     1      43.739 -19.563   3.203  1.00  0.00     0.157 A 
HETATM   22  C   UNL     1      44.512 -20.841   3.599  1.00  0.00     0.277 A 
HETATM   23  C   UNL     1      43.878 -18.647   4.345  1.00  0.00     0.027 A 
HETATM   24  O   UNL     1      44.678 -21.829   2.921  1.00  0.00    -0.266 OA
HETATM   25  N   UNL     1      44.948 -20.619   4.884  1.00  0.00    -0.321 N 
HETATM   26  C   UNL     1      44.592 -19.349   5.320  1.00  0.00     0.048 A 
HETATM   27  H   UNL     1      45.492 -21.297   5.396  1.00  0.00     0.169 HD
HETATM   28  C   UNL     1      44.914 -18.793   6.542  1.00  0.00     0.030 A 
HETATM   29  C   UNL     1      44.513 -17.476   6.775  1.00  0.00     0.002 A 
HETATM   30  C   UNL     1      43.825 -16.748   5.787  1.00  0.00     0.001 A 
HETATM   31  C   UNL     1      43.509 -17.329   4.552  1.00  0.00     0.016 A 
ENDBRANCH   2  20
TORSDOF 4
ENDMDL
MODEL 5
REMARK VINA RESULT:      -8.4      2.172      8.575
REMARK  4 active torsions:
REMARK  status: ('A' for Active; 'I' for Inactive)
REMARK    1  A    between atoms: C_3  and  C_4 
REMARK       I    between atoms: C_4  and  N_5 
REMARK    2  A    between atoms: N_5  and  N_6 
REMARK    3  A    between atoms: C_21  and  C_22 
REMARK    4  A    between atoms: C_25  and  O_26 
ROOT
HETATM    1  C   UNL     1      40.491 -13.983   1.409  1.00  0.00     0.290 C 
HETATM    2  N   UNL     1      40.888 -13.314   0.261  1.00  0.00    -0.241 N 
HETATM    3  O   UNL     1      39.434 -13.773   1.996  1.00  0.00    -0.264 OA
HETATM    4  H   UNL     1      41.769 -13.534  -0.169  1.00  0.00     0.192 HD
ENDROOT
BRANCH   1   5
HETATM    5  C   UNL     1      41.458 -14.917   1.942  1.00  0.00     0.127 A 
HETATM    6  C   UNL     1      41.491 -16.286   2.187  1.00  0.00     0.003 A 
HETATM    7  C   UNL     1      40.399 -17.283   2.031  1.00  0.00     0.053 C 
HETATM    8  C   UNL     1      42.815 -16.538   2.690  1.00  0.00     0.095 A 
HETATM    9  N   UNL     1      43.505 -15.395   2.807  1.00  0.00    -0.173 NA
HETATM   10  N   UNL     1      42.661 -14.447   2.393  1.00  0.00    -0.272 N 
HETATM   11  H   UNL     1      42.959 -13.476   2.417  1.00  0.00     0.189 HD
BRANCH   8  12
HETATM   12  C   UNL     1      43.425 -17.809   3.083  1.00  0.00    -0.005 A 
HETATM   13  C   UNL     1      43.661 -18.084   4.436  1.00  0.00     0.016 A 
HETATM   14  C   UNL     1      44.230 -19.300   4.823  1.00  0.00     0.037 A 
HETATM   15  C   UNL     1      44.574 -20.260   3.870  1.00  0.00     0.068 A 
HETATM   16  C   UNL     1      44.366 -19.983   2.519  1.00  0.00     0.037 A 
HETATM   17  C   UNL     1      43.798 -18.762   2.129  1.00  0.00     0.016 A 
BRANCH  15  18
HETATM   18  O   UNL     1      45.110 -21.410   4.381  1.00  0.00    -0.356 OA
HETATM   19  C   UNL     1      44.721 -22.629   3.762  1.00  0.00     0.210 C 
ENDBRANCH  15  18
ENDBRANCH   8  12
ENDBRANCH   1   5
BRANCH   2  20
HETATM   20  N   UNL     1      40.010 -12.514  -0.403  1.00  0.00    -0.165 NA
HETATM   21  C   UNL     1      39.378 -12.966  -1.439  1.00  0.00     0.157 A 
HETATM   22  C   UNL     1      38.246 -12.143  -2.092  1.00  0.00     0.277 A 
HETATM   23  C   UNL     1      39.470 -14.206  -2.225  1.00  0.00     0.027 A 
HETATM   24  O   UNL     1      37.874 -11.036  -1.772  1.00  0.00    -0.266 OA
HETATM   25  N   UNL     1      37.745 -12.942  -3.093  1.00  0.00    -0.321 N 
HETATM   26  C   UNL     1      38.453 -14.134  -3.182  1.00  0.00     0.048 A 
HETATM   27  H   UNL     1      36.990 -12.648  -3.694  1.00  0.00     0.169 HD
HETATM   28  C   UNL     1      38.239 -15.135  -4.107  1.00  0.00     0.030 A 
HETATM   29  C   UNL     1      39.096 -16.238  -4.072  1.00  0.00     0.002 A 
HETATM   30  C   UNL     1      40.145 -16.303  -3.136  1.00  0.00     0.001 A 
HETATM   31  C   UNL     1      40.347 -15.276  -2.206  1.00  0.00     0.016 A 
ENDBRANCH   2  20
TORSDOF 4
ENDMDL
MODEL 6
REMARK VINA RESULT:      -8.2      2.210      2.375
REMARK  4 active torsions:
REMARK  status: ('A' for Active; 'I' for Inactive)
REMARK    1  A    between atoms: C_3  and  C_4 
REMARK       I    between atoms: C_4  and  N_5 
REMARK    2  A    between atoms: N_5  and  N_6 
REMARK    3  A    between atoms: C_21  and  C_22 
REMARK    4  A    between atoms: C_25  and  O_26 
ROOT
HETATM    1  C   UNL     1      41.023 -15.261   4.227  1.00  0.00     0.290 C 
HETATM    2  N   UNL     1      41.011 -16.627   4.467  1.00  0.00    -0.241 N 
HETATM    3  O   UNL     1      41.380 -14.423   5.050  1.00  0.00    -0.264 OA
HETATM    4  H   UNL     1      40.704 -17.259   3.748  1.00  0.00     0.192 HD
ENDROOT
BRANCH   1   5
HETATM    5  C   UNL     1      40.500 -14.856   2.941  1.00  0.00     0.127 A 
HETATM    6  C   UNL     1      40.948 -14.067   1.886  1.00  0.00     0.003 A 
HETATM    7  C   UNL     1      42.191 -13.257   1.797  1.00  0.00     0.053 C 
HETATM    8  C   UNL     1      39.907 -14.150   0.898  1.00  0.00     0.095 A 
HETATM    9  N   UNL     1      38.876 -14.877   1.350  1.00  0.00    -0.173 NA
HETATM   10  N   UNL     1      39.240 -15.250   2.579  1.00  0.00    -0.272 N 
HETATM   11  H   UNL     1      38.596 -15.799   3.141  1.00  0.00     0.189 HD
BRANCH   8  12
HETATM   12  C   UNL     1      39.851 -13.544  -0.434  1.00  0.00    -0.005 A 
HETATM   13  C   UNL     1      38.959 -12.496  -0.690  1.00  0.00     0.016 A 
HETATM   14  C   UNL     1      38.907 -11.902  -1.954  1.00  0.00     0.037 A 
HETATM   15  C   UNL     1      39.742 -12.343  -2.982  1.00  0.00     0.068 A 
HETATM   16  C   UNL     1      40.615 -13.405  -2.742  1.00  0.00     0.037 A 
HETATM   17  C   UNL     1      40.665 -14.003  -1.476  1.00  0.00     0.016 A 
BRANCH  15  18
HETATM   18  O   UNL     1      39.600 -11.671  -4.164  1.00  0.00    -0.356 OA
HETATM   19  C   UNL     1      39.073 -10.352  -4.092  1.00  0.00     0.210 C 
ENDBRANCH  15  18
ENDBRANCH   8  12
ENDBRANCH   1   5
BRANCH   2  20
HETATM   20  N   UNL     1      41.601 -17.131   5.584  1.00  0.00    -0.165 NA
HETATM   21  C   UNL     1      42.563 -17.991   5.476  1.00  0.00     0.157 A 
HETATM   22  C   UNL     1      43.367 -18.433   6.719  1.00  0.00     0.277 A 
HETATM   23  C   UNL     1      43.153 -18.719   4.343  1.00  0.00     0.027 A 
HETATM   24  O   UNL     1      43.177 -18.096   7.865  1.00  0.00    -0.266 OA
HETATM   25  N   UNL     1      44.347 -19.270   6.239  1.00  0.00    -0.321 N 
HETATM   26  C   UNL     1      44.226 -19.447   4.867  1.00  0.00     0.048 A 
HETATM   27  H   UNL     1      45.023 -19.715   6.842  1.00  0.00     0.169 HD
HETATM   28  C   UNL     1      45.019 -20.260   4.082  1.00  0.00     0.030 A 
HETATM   29  C   UNL     1      44.702 -20.350   2.724  1.00  0.00     0.002 A 
HETATM   30  C   UNL     1      43.603 -19.650   2.194  1.00  0.00     0.001 A 
HETATM   31  C   UNL     1      42.809 -18.832   3.007  1.00  0.00     0.016 A 
ENDBRANCH   2  20
TORSDOF 4
ENDMDL
MODEL 7
REMARK VINA RESULT:      -8.1      6.483      9.509
REMARK  4 active torsions:
REMARK  status: ('A' for Active; 'I' for Inactive)
REMARK    1  A    between atoms: C_3  and  C_4 
REMARK       I    between atoms: C_4  and  N_5 
REMARK    2  A    between atoms: N_5  and  N_6 
REMARK    3  A    between atoms: C_21  and  C_22 
REMARK    4  A    between atoms: C_25  and  O_26 
ROOT
HETATM    1  C   UNL     1      40.965 -11.828   6.421  1.00  0.00     0.290 C 
HETATM    2  N   UNL     1      41.131 -11.392   7.727  1.00  0.00    -0.241 N 
HETATM    3  O   UNL     1      40.160 -11.341   5.632  1.00  0.00    -0.264 OA
HETATM    4  H   UNL     1      41.808 -11.837   8.322  1.00  0.00     0.192 HD
ENDROOT
BRANCH   1   5
HETATM    5  C   UNL     1      41.760 -12.977   6.049  1.00  0.00     0.127 A 
HETATM    6  C   UNL     1      41.540 -14.152   5.336  1.00  0.00     0.003 A 
HETATM    7  C   UNL     1      40.269 -14.661   4.756  1.00  0.00     0.053 C 
HETATM    8  C   UNL     1      42.814 -14.818   5.325  1.00  0.00     0.095 A 
HETATM    9  N   UNL     1      43.718 -14.132   6.039  1.00  0.00    -0.173 NA
HETATM   10  N   UNL     1      43.052 -13.065   6.488  1.00  0.00    -0.272 N 
HETATM   11  H   UNL     1      43.533 -12.399   7.086  1.00  0.00     0.189 HD
BRANCH   8  12
HETATM   12  C   UNL     1      43.187 -16.083   4.690  1.00  0.00    -0.005 A 
HETATM   13  C   UNL     1      43.441 -17.214   5.476  1.00  0.00     0.016 A 
HETATM   14  C   UNL     1      43.784 -18.430   4.879  1.00  0.00     0.037 A 
HETATM   15  C   UNL     1      43.880 -18.539   3.490  1.00  0.00     0.068 A 
HETATM   16  C   UNL     1      43.655 -17.410   2.702  1.00  0.00     0.037 A 
HETATM   17  C   UNL     1      43.313 -16.189   3.300  1.00  0.00     0.016 A 
BRANCH  15  18
HETATM   18  O   UNL     1      44.211 -19.785   3.034  1.00  0.00    -0.356 OA
HETATM   19  C   UNL     1      43.478 -20.274   1.918  1.00  0.00     0.210 C 
ENDBRANCH  15  18
ENDBRANCH   8  12
ENDBRANCH   1   5
BRANCH   2  20
HETATM   20  N   UNL     1      40.538 -10.242   8.146  1.00  0.00    -0.165 NA
HETATM   21  C   UNL     1      40.965  -9.645   9.213  1.00  0.00     0.157 A 
HETATM   22  C   UNL     1      40.431  -8.248   9.600  1.00  0.00     0.277 A 
HETATM   23  C   UNL     1      41.944  -9.997  10.252  1.00  0.00     0.027 A 
HETATM   24  O   UNL     1      39.577  -7.611   9.026  1.00  0.00    -0.266 OA
HETATM   25  N   UNL     1      41.146  -7.882  10.717  1.00  0.00    -0.321 N 
HETATM   26  C   UNL     1      42.018  -8.891  11.105  1.00  0.00     0.048 A 
HETATM   27  H   UNL     1      40.997  -7.004  11.192  1.00  0.00     0.169 HD
HETATM   28  C   UNL     1      42.846  -8.866  12.209  1.00  0.00     0.030 A 
HETATM   29  C   UNL     1      43.610 -10.006  12.466  1.00  0.00     0.002 A 
HETATM   30  C   UNL     1      43.517 -11.137  11.634  1.00  0.00     0.001 A 
HETATM   31  C   UNL     1      42.669 -11.144  10.520  1.00  0.00     0.016 A 
ENDBRANCH   2  20
TORSDOF 4
ENDMDL
MODEL 8
REMARK VINA RESULT:      -7.9      3.967      8.643
REMARK  4 active torsions:
REMARK  status: ('A' for Active; 'I' for Inactive)
REMARK    1  A    between atoms: C_3  and  C_4 
REMARK       I    between atoms: C_4  and  N_5 
REMARK    2  A    between atoms: N_5  and  N_6 
REMARK    3  A    between atoms: C_21  and  C_22 
REMARK    4  A    between atoms: C_25  and  O_26 
ROOT
HETATM    1  C   UNL     1      40.271 -13.949   1.403  1.00  0.00     0.290 C 
HETATM    2  N   UNL     1      39.015 -13.741   1.952  1.00  0.00    -0.241 N 
HETATM    3  O   UNL     1      40.837 -13.150   0.662  1.00  0.00    -0.264 OA
HETATM    4  H   UNL     1      38.607 -14.439   2.550  1.00  0.00     0.192 HD
ENDROOT
BRANCH   1   5
HETATM    5  C   UNL     1      40.865 -15.235   1.693  1.00  0.00     0.127 A 
HETATM    6  C   UNL     1      41.955 -15.685   2.433  1.00  0.00     0.003 A 
HETATM    7  C   UNL     1      42.983 -14.885   3.150  1.00  0.00     0.053 C 
HETATM    8  C   UNL     1      41.916 -17.117   2.309  1.00  0.00     0.095 A 
HETATM    9  N   UNL     1      40.920 -17.499   1.498  1.00  0.00    -0.173 NA
HETATM   10  N   UNL     1      40.339 -16.359   1.117  1.00  0.00    -0.272 N 
HETATM   11  H   UNL     1      39.559 -16.394   0.467  1.00  0.00     0.189 HD
BRANCH   8  12
HETATM   12  C   UNL     1      42.801 -18.117   2.908  1.00  0.00    -0.005 A 
HETATM   13  C   UNL     1      43.573 -18.949   2.089  1.00  0.00     0.016 A 
HETATM   14  C   UNL     1      44.432 -19.899   2.650  1.00  0.00     0.037 A 
HETATM   15  C   UNL     1      44.534 -20.034   4.036  1.00  0.00     0.068 A 
HETATM   16  C   UNL     1      43.748 -19.227   4.859  1.00  0.00     0.037 A 
HETATM   17  C   UNL     1      42.884 -18.276   4.296  1.00  0.00     0.016 A 
BRANCH  15  18
HETATM   18  O   UNL     1      45.417 -20.990   4.455  1.00  0.00    -0.356 OA
HETATM   19  C   UNL     1      44.868 -22.132   5.098  1.00  0.00     0.210 C 
ENDBRANCH  15  18
ENDBRANCH   8  12
ENDBRANCH   1   5
BRANCH   2  20
HETATM   20  N   UNL     1      38.419 -12.522   1.858  1.00  0.00    -0.165 NA
HETATM   21  C   UNL     1      38.527 -11.672   2.829  1.00  0.00     0.157 A 
HETATM   22  C   UNL     1      38.019 -10.222   2.666  1.00  0.00     0.277 A 
HETATM   23  C   UNL     1      39.084 -11.746   4.188  1.00  0.00     0.027 A 
HETATM   24  O   UNL     1      37.454  -9.753   1.704  1.00  0.00    -0.266 OA
HETATM   25  N   UNL     1      38.363  -9.582   3.834  1.00  0.00    -0.321 N 
HETATM   26  C   UNL     1      38.972 -10.459   4.723  1.00  0.00     0.048 A 
HETATM   27  H   UNL     1      38.145  -8.612   4.005  1.00  0.00     0.169 HD
HETATM   28  C   UNL     1      39.398 -10.152   6.000  1.00  0.00     0.030 A 
HETATM   29  C   UNL     1      39.937 -11.188   6.765  1.00  0.00     0.002 A 
HETATM   30  C   UNL     1      40.021 -12.495   6.249  1.00  0.00     0.001 A 
HETATM   31  C   UNL     1      39.582 -12.787   4.951  1.00  0.00     0.016 A 
ENDBRANCH   2  20
TORSDOF 4
ENDMDL
MODEL 9
REMARK VINA RESULT:      -7.8      2.632      9.022
REMARK  4 active torsions:
REMARK  status: ('A' for Active; 'I' for Inactive)
REMARK    1  A    between atoms: C_3  and  C_4 
REMARK       I    between atoms: C_4  and  N_5 
REMARK    2  A    between atoms: N_5  and  N_6 
REMARK    3  A    between atoms: C_21  and  C_22 
REMARK    4  A    between atoms: C_25  and  O_26 
ROOT
HETATM    1  C   UNL     1      39.673 -13.665   1.615  1.00  0.00     0.290 C 
HETATM    2  N   UNL     1      40.010 -13.122   0.384  1.00  0.00    -0.241 N 
HETATM    3  O   UNL     1      38.978 -13.094   2.450  1.00  0.00    -0.264 OA
HETATM    4  H   UNL     1      40.586 -13.643  -0.253  1.00  0.00     0.192 HD
ENDROOT
BRANCH   1   5
HETATM    5  C   UNL     1      40.272 -14.949   1.906  1.00  0.00     0.127 A 
HETATM    6  C   UNL     1      41.540 -15.399   2.262  1.00  0.00     0.003 A 
HETATM    7  C   UNL     1      42.801 -14.622   2.380  1.00  0.00     0.053 C 
HETATM    8  C   UNL     1      41.388 -16.818   2.439  1.00  0.00     0.095 A 
HETATM    9  N   UNL     1      40.140 -17.206   2.144  1.00  0.00    -0.173 NA
HETATM   10  N   UNL     1      39.512 -16.081   1.794  1.00  0.00    -0.272 N 
HETATM   11  H   UNL     1      38.541 -16.128   1.497  1.00  0.00     0.189 HD
BRANCH   8  12
HETATM   12  C   UNL     1      42.387 -17.807   2.849  1.00  0.00    -0.005 A 
HETATM   13  C   UNL     1      42.688 -17.979   4.205  1.00  0.00     0.016 A 
HETATM   14  C   UNL     1      43.630 -18.930   4.608  1.00  0.00     0.037 A 
HETATM   15  C   UNL     1      44.287 -19.723   3.666  1.00  0.00     0.068 A 
HETATM   16  C   UNL     1      44.014 -19.539   2.311  1.00  0.00     0.037 A 
HETATM   17  C   UNL     1      43.071 -18.583   1.906  1.00  0.00     0.016 A 
BRANCH  15  18
HETATM   18  O   UNL     1      45.174 -20.621   4.192  1.00  0.00    -0.356 OA
HETATM   19  C   UNL     1      44.723 -21.395   5.296  1.00  0.00     0.210 C 
ENDBRANCH  15  18
ENDBRANCH   8  12
ENDBRANCH   1   5
BRANCH   2  20
HETATM   20  N   UNL     1      39.402 -11.986  -0.052  1.00  0.00    -0.165 NA
HETATM   21  C   UNL     1      38.618 -12.025  -1.082  1.00  0.00     0.157 A 
HETATM   22  C   UNL     1      37.777 -10.792  -1.479  1.00  0.00     0.277 A 
HETATM   23  C   UNL     1      38.283 -13.066  -2.065  1.00  0.00     0.027 A 
HETATM   24  O   UNL     1      37.786  -9.704  -0.948  1.00  0.00    -0.266 OA
HETATM   25  N   UNL     1      37.010 -11.202  -2.545  1.00  0.00    -0.321 N 
HETATM   26  C   UNL     1      37.303 -12.514  -2.895  1.00  0.00     0.048 A 
HETATM   27  H   UNL     1      36.362 -10.588  -3.014  1.00  0.00     0.169 HD
HETATM   28  C   UNL     1      36.747 -13.214  -3.947  1.00  0.00     0.030 A 
HETATM   29  C   UNL     1      37.214 -14.511  -4.175  1.00  0.00     0.002 A 
HETATM   30  C   UNL     1      38.226 -15.063  -3.368  1.00  0.00     0.001 A 
HETATM   31  C   UNL     1      38.779 -14.335  -2.307  1.00  0.00     0.016 A 
ENDBRANCH   2  20
TORSDOF 4
ENDMDL
MODEL 10
REMARK VINA RESULT:      -7.8      3.085      8.919
REMARK  4 active torsions:
REMARK  status: ('A' for Active; 'I' for Inactive)
REMARK    1  A    between atoms: C_3  and  C_4 
REMARK       I    between atoms: C_4  and  N_5 
REMARK    2  A    between atoms: N_5  and  N_6 
REMARK    3  A    between atoms: C_21  and  C_22 
REMARK    4  A    between atoms: C_25  and  O_26 
ROOT
HETATM    1  C   UNL     1      40.986 -14.605   0.217  1.00  0.00     0.290 C 
HETATM    2  N   UNL     1      39.616 -14.736   0.386  1.00  0.00    -0.241 N 
HETATM    3  O   UNL     1      41.508 -13.930  -0.665  1.00  0.00    -0.264 OA
HETATM    4  H   UNL     1      39.254 -15.307   1.129  1.00  0.00     0.192 HD
ENDROOT
BRANCH   1   5
HETATM    5  C   UNL     1      41.795 -15.398   1.116  1.00  0.00     0.127 A 
HETATM    6  C   UNL     1      41.885 -16.745   1.451  1.00  0.00     0.003 A 
HETATM    7  C   UNL     1      41.029 -17.873   0.996  1.00  0.00     0.053 C 
HETATM    8  C   UNL     1      42.964 -16.817   2.399  1.00  0.00     0.095 A 
HETATM    9  N   UNL     1      43.444 -15.596   2.669  1.00  0.00    -0.173 NA
HETATM   10  N   UNL     1      42.705 -14.771   1.923  1.00  0.00    -0.272 N 
HETATM   11  H   UNL     1      42.871 -13.770   1.981  1.00  0.00     0.189 HD
BRANCH   8  12
HETATM   12  C   UNL     1      43.526 -17.993   3.066  1.00  0.00    -0.005 A 
HETATM   13  C   UNL     1      43.558 -18.056   4.464  1.00  0.00     0.016 A 
HETATM   14  C   UNL     1      44.080 -19.179   5.112  1.00  0.00     0.037 A 
HETATM   15  C   UNL     1      44.580 -20.255   4.377  1.00  0.00     0.068 A 
HETATM   16  C   UNL     1      44.577 -20.189   2.983  1.00  0.00     0.037 A 
HETATM   17  C   UNL     1      44.056 -19.061   2.333  1.00  0.00     0.016 A 
BRANCH  15  18
HETATM   18  O   UNL     1      45.050 -21.295   5.130  1.00  0.00    -0.356 OA
HETATM   19  C   UNL     1      44.801 -22.606   4.639  1.00  0.00     0.210 C 
ENDBRANCH  15  18
ENDBRANCH   8  12
ENDBRANCH   1   5
BRANCH   2  20
HETATM   20  N   UNL     1      38.761 -13.939  -0.311  1.00  0.00    -0.165 NA
HETATM   21  C   UNL     1      38.334 -12.835   0.212  1.00  0.00     0.157 A 
HETATM   22  C   UNL     1      37.515 -11.830  -0.629  1.00  0.00     0.277 A 
HETATM   23  C   UNL     1      38.455 -12.227   1.546  1.00  0.00     0.027 A 
HETATM   24  O   UNL     1      37.157 -11.965  -1.778  1.00  0.00    -0.266 OA
HETATM   25  N   UNL     1      37.302 -10.752   0.198  1.00  0.00    -0.321 N 
HETATM   26  C   UNL     1      37.836 -10.977   1.460  1.00  0.00     0.048 A 
HETATM   27  H   UNL     1      36.782  -9.939  -0.096  1.00  0.00     0.169 HD
HETATM   28  C   UNL     1      37.756 -10.118   2.537  1.00  0.00     0.030 A 
HETATM   29  C   UNL     1      38.308 -10.549   3.746  1.00  0.00     0.002 A 
HETATM   30  C   UNL     1      38.902 -11.820   3.852  1.00  0.00     0.001 A 
HETATM   31  C   UNL     1      38.971 -12.679   2.748  1.00  0.00     0.016 A 
ENDBRANCH   2  20
TORSDOF 4
ENDMDL
