MODEL 1
REMARK VINA RESULT:      -8.4      0.000      0.000
REMARK  6 active torsions:
REMARK  status: ('A' for Active; 'I' for Inactive)
REMARK    1  A    between atoms: C_4  and  C_5 
REMARK    2  A    between atoms: C_6  and  O_7 
REMARK    3  A    between atoms: O_7  and  C_8 
REMARK    4  A    between atoms: C_8  and  C_9 
REMARK       I    between atoms: C_9  and  N_10 
REMARK    5  A    between atoms: N_10  and  N_11 
REMARK    6  A    between atoms: C_12  and  C_13 
ROOT
HETATM    1  O   UNL     1      43.846 -18.137   4.626  1.00  0.00    -0.341 OA
ENDROOT
BRANCH   1   2
HETATM    2  C   UNL     1      44.015 -19.288   3.894  1.00  0.00     0.080 A 
HETATM    3  C   UNL     1      43.409 -19.370   2.625  1.00  0.00     0.007 A 
HETATM    4  C   UNL     1      43.543 -20.573   1.910  1.00  0.00     0.015 A 
HETATM    5  C   UNL     1      44.243 -21.659   2.443  1.00  0.00     0.001 A 
HETATM    6  C   UNL     1      44.816 -21.565   3.709  1.00  0.00     0.003 A 
HETATM    7  C   UNL     1      44.696 -20.382   4.438  1.00  0.00     0.037 A 
BRANCH   3   8
HETATM    8  C   UNL     1      42.663 -18.247   2.029  1.00  0.00    -0.023 A 
HETATM    9  C   UNL     1      43.255 -17.412   1.065  1.00  0.00     0.012 A 
HETATM   10  C   UNL     1      42.542 -16.356   0.494  1.00  0.00     0.001 A 
HETATM   11  C   UNL     1      41.222 -16.121   0.869  1.00  0.00     0.000 A 
HETATM   12  C   UNL     1      40.616 -16.939   1.819  1.00  0.00     0.001 A 
HETATM   13  C   UNL     1      41.332 -17.993   2.395  1.00  0.00     0.012 A 
ENDBRANCH   3   8
ENDBRANCH   1   2
BRANCH   1  14
HETATM   14  C   UNL     1      42.922 -18.305   5.706  1.00  0.00     0.280 C 
BRANCH  14  15
HETATM   15  C   UNL     1      43.298 -17.415   6.888  1.00  0.00     0.261 C 
HETATM   16  N   UNL     1      43.919 -16.236   6.507  1.00  0.00    -0.246 N 
HETATM   17  H   UNL     1      44.115 -16.086   5.519  1.00  0.00     0.192 HD
HETATM   18  O   UNL     1      43.037 -17.742   8.044  1.00  0.00    -0.269 OA
BRANCH  16  19
HETATM   19  N   UNL     1      44.290 -15.319   7.442  1.00  0.00    -0.182 NA
HETATM   20  C   UNL     1      44.399 -14.102   7.018  1.00  0.00     0.168 C 
BRANCH  20  21
HETATM   21  C   UNL     1      44.787 -13.070   7.940  1.00  0.00     0.051 A 
HETATM   22  N   UNL     1      43.895 -12.411   8.757  1.00  0.00    -0.365 N 
HETATM   23  H   UNL     1      42.900 -12.601   8.769  1.00  0.00     0.165 HD
HETATM   24  C   UNL     1      44.558 -11.492   9.527  1.00  0.00     0.088 A 
HETATM   25  C   UNL     1      45.892 -11.546   9.195  1.00  0.00     0.019 A 
HETATM   26  C   UNL     1      46.039 -12.541   8.196  1.00  0.00     0.032 A 
ENDBRANCH  20  21
ENDBRANCH  16  19
ENDBRANCH  14  15
ENDBRANCH   1  14
TORSDOF 6
ENDMDL
MODEL 2
REMARK VINA RESULT:      -8.3      1.054      3.469
REMARK  6 active torsions:
REMARK  status: ('A' for Active; 'I' for Inactive)
REMARK    1  A    between atoms: C_4  and  C_5 
REMARK    2  A    between atoms: C_6  and  O_7 
REMARK    3  A    between atoms: O_7  and  C_8 
REMARK    4  A    between atoms: C_8  and  C_9 
REMARK       I    between atoms: C_9  and  N_10 
REMARK    5  A    between atoms: N_10  and  N_11 
REMARK    6  A    between atoms: C_12  and  C_13 
ROOT
HETATM    1  O   UNL     1      43.949 -17.777   4.998  1.00  0.00    -0.341 OA
ENDROOT
BRANCH   1   2
HETATM    2  C   UNL     1      43.605 -17.391   3.724  1.00  0.00     0.080 A 
HETATM    3  C   UNL     1      43.656 -18.353   2.696  1.00  0.00     0.007 A 
HETATM    4  C   UNL     1      43.355 -17.933   1.388  1.00  0.00     0.015 A 
HETATM    5  C   UNL     1      43.030 -16.602   1.111  1.00  0.00     0.001 A 
HETATM    6  C   UNL     1      43.009 -15.662   2.138  1.00  0.00     0.003 A 
HETATM    7  C   UNL     1      43.303 -16.055   3.444  1.00  0.00     0.037 A 
BRANCH   3   8
HETATM    8  C   UNL     1      43.994 -19.766   2.949  1.00  0.00    -0.023 A 
HETATM    9  C   UNL     1      43.737 -20.757   1.986  1.00  0.00     0.012 A 
HETATM   10  C   UNL     1      44.069 -22.092   2.223  1.00  0.00     0.001 A 
HETATM   11  C   UNL     1      44.672 -22.459   3.424  1.00  0.00     0.000 A 
HETATM   12  C   UNL     1      44.939 -21.491   4.389  1.00  0.00     0.001 A 
HETATM   13  C   UNL     1      44.601 -20.155   4.153  1.00  0.00     0.012 A 
ENDBRANCH   3   8
ENDBRANCH   1   2
BRANCH   1  14
HETATM   14  C   UNL     1      42.857 -17.672   5.917  1.00  0.00     0.280 C 
BRANCH  14  15
HETATM   15  C   UNL     1      43.276 -16.916   7.175  1.00  0.00     0.261 C 
HETATM   16  N   UNL     1      43.779 -15.652   6.911  1.00  0.00    -0.246 N 
HETATM   17  H   UNL     1      43.876 -15.359   5.940  1.00  0.00     0.192 HD
HETATM   18  O   UNL     1      43.142 -17.410   8.293  1.00  0.00    -0.269 OA
BRANCH  16  19
HETATM   19  N   UNL     1      44.169 -14.838   7.931  1.00  0.00    -0.182 NA
HETATM   20  C   UNL     1      44.436 -13.616   7.599  1.00  0.00     0.168 C 
BRANCH  20  21
HETATM   21  C   UNL     1      44.856 -12.690   8.614  1.00  0.00     0.051 A 
HETATM   22  N   UNL     1      44.180 -12.511   9.801  1.00  0.00    -0.365 N 
HETATM   23  H   UNL     1      43.336 -13.014  10.047  1.00  0.00     0.165 HD
HETATM   24  C   UNL     1      44.820 -11.573  10.566  1.00  0.00     0.088 A 
HETATM   25  C   UNL     1      45.916 -11.130   9.862  1.00  0.00     0.019 A 
HETATM   26  C   UNL     1      45.941 -11.833   8.632  1.00  0.00     0.032 A 
ENDBRANCH  20  21
ENDBRANCH  16  19
ENDBRANCH  14  15
ENDBRANCH   1  14
TORSDOF 6
ENDMDL
MODEL 3
REMARK VINA RESULT:      -8.3      3.005      3.180
REMARK  6 active torsions:
REMARK  status: ('A' for Active; 'I' for Inactive)
REMARK    1  A    between atoms: C_4  and  C_5 
REMARK    2  A    between atoms: C_6  and  O_7 
REMARK    3  A    between atoms: O_7  and  C_8 
REMARK    4  A    between atoms: C_8  and  C_9 
REMARK       I    between atoms: C_9  and  N_10 
REMARK    5  A    between atoms: N_10  and  N_11 
REMARK    6  A    between atoms: C_12  and  C_13 
ROOT
HETATM    1  O   UNL     1      44.359 -18.845   4.783  1.00  0.00    -0.341 OA
ENDROOT
BRANCH   1   2
HETATM    2  C   UNL     1      44.334 -19.917   3.924  1.00  0.00     0.080 A 
HETATM    3  C   UNL     1      43.733 -19.749   2.661  1.00  0.00     0.007 A 
HETATM    4  C   UNL     1      43.664 -20.869   1.812  1.00  0.00     0.015 A 
HETATM    5  C   UNL     1      44.161 -22.112   2.212  1.00  0.00     0.001 A 
HETATM    6  C   UNL     1      44.730 -22.262   3.474  1.00  0.00     0.003 A 
HETATM    7  C   UNL     1      44.810 -21.166   4.333  1.00  0.00     0.037 A 
BRANCH   3   8
HETATM    8  C   UNL     1      43.198 -18.454   2.204  1.00  0.00    -0.023 A 
HETATM    9  C   UNL     1      44.055 -17.403   1.833  1.00  0.00     0.012 A 
HETATM   10  C   UNL     1      43.545 -16.182   1.389  1.00  0.00     0.001 A 
HETATM   11  C   UNL     1      42.168 -15.991   1.300  1.00  0.00     0.000 A 
HETATM   12  C   UNL     1      41.302 -17.021   1.658  1.00  0.00     0.001 A 
HETATM   13  C   UNL     1      41.813 -18.242   2.107  1.00  0.00     0.012 A 
ENDBRANCH   3   8
ENDBRANCH   1   2
BRANCH   1  14
HETATM   14  C   UNL     1      43.559 -19.058   5.951  1.00  0.00     0.280 C 
BRANCH  14  15
HETATM   15  C   UNL     1      42.916 -17.754   6.416  1.00  0.00     0.261 C 
HETATM   16  N   UNL     1      42.740 -16.837   5.392  1.00  0.00    -0.246 N 
HETATM   17  H   UNL     1      43.086 -17.071   4.463  1.00  0.00     0.192 HD
HETATM   18  O   UNL     1      42.583 -17.587   7.587  1.00  0.00    -0.269 OA
BRANCH  16  19
HETATM   19  N   UNL     1      42.150 -15.634   5.637  1.00  0.00    -0.182 NA
HETATM   20  C   UNL     1      40.963 -15.484   5.145  1.00  0.00     0.168 C 
BRANCH  20  21
HETATM   21  C   UNL     1      40.269 -14.244   5.356  1.00  0.00     0.051 A 
HETATM   22  N   UNL     1      39.919 -13.776   6.604  1.00  0.00    -0.365 N 
HETATM   23  H   UNL     1      40.121 -14.270   7.465  1.00  0.00     0.165 HD
HETATM   24  C   UNL     1      39.277 -12.571   6.488  1.00  0.00     0.088 A 
HETATM   25  C   UNL     1      39.199 -12.261   5.149  1.00  0.00     0.019 A 
HETATM   26  C   UNL     1      39.824 -13.313   4.435  1.00  0.00     0.032 A 
ENDBRANCH  20  21
ENDBRANCH  16  19
ENDBRANCH  14  15
ENDBRANCH   1  14
TORSDOF 6
ENDMDL
MODEL 4
REMARK VINA RESULT:      -8.0      3.486      7.216
REMARK  6 active torsions:
REMARK  status: ('A' for Active; 'I' for Inactive)
REMARK    1  A    between atoms: C_4  and  C_5 
REMARK    2  A    between atoms: C_6  and  O_7 
REMARK    3  A    between atoms: O_7  and  C_8 
REMARK    4  A    between atoms: C_8  and  C_9 
REMARK       I    between atoms: C_9  and  N_10 
REMARK    5  A    between atoms: N_10  and  N_11 
REMARK    6  A    between atoms: C_12  and  C_13 
ROOT
HETATM    1  O   UNL     1      41.944 -18.070   4.255  1.00  0.00    -0.341 OA
ENDROOT
BRANCH   1   2
HETATM    2  C   UNL     1      43.053 -17.913   5.051  1.00  0.00     0.080 A 
HETATM    3  C   UNL     1      44.120 -18.821   4.900  1.00  0.00     0.007 A 
HETATM    4  C   UNL     1      45.225 -18.684   5.759  1.00  0.00     0.015 A 
HETATM    5  C   UNL     1      45.262 -17.689   6.740  1.00  0.00     0.001 A 
HETATM    6  C   UNL     1      44.187 -16.816   6.887  1.00  0.00     0.003 A 
HETATM    7  C   UNL     1      43.079 -16.932   6.048  1.00  0.00     0.037 A 
BRANCH   3   8
HETATM    8  C   UNL     1      44.118 -19.883   3.877  1.00  0.00    -0.023 A 
HETATM    9  C   UNL     1      43.682 -19.628   2.566  1.00  0.00     0.012 A 
HETATM   10  C   UNL     1      43.692 -20.632   1.597  1.00  0.00     0.001 A 
HETATM   11  C   UNL     1      44.148 -21.908   1.919  1.00  0.00     0.000 A 
HETATM   12  C   UNL     1      44.590 -22.180   3.211  1.00  0.00     0.001 A 
HETATM   13  C   UNL     1      44.574 -21.175   4.183  1.00  0.00     0.012 A 
ENDBRANCH   3   8
ENDBRANCH   1   2
BRANCH   1  14
HETATM   14  C   UNL     1      41.288 -16.829   3.977  1.00  0.00     0.280 C 
BRANCH  14  15
HETATM   15  C   UNL     1      40.956 -16.709   2.492  1.00  0.00     0.261 C 
HETATM   16  N   UNL     1      41.959 -16.097   1.756  1.00  0.00    -0.246 N 
HETATM   17  H   UNL     1      42.778 -15.744   2.248  1.00  0.00     0.192 HD
HETATM   18  O   UNL     1      39.902 -17.145   2.034  1.00  0.00    -0.269 OA
BRANCH  16  19
HETATM   19  N   UNL     1      41.830 -15.942   0.410  1.00  0.00    -0.182 NA
HETATM   20  C   UNL     1      41.259 -14.847   0.026  1.00  0.00     0.168 C 
BRANCH  20  21
HETATM   21  C   UNL     1      41.080 -14.603  -1.379  1.00  0.00     0.051 A 
HETATM   22  N   UNL     1      40.174 -15.290  -2.156  1.00  0.00    -0.365 N 
HETATM   23  H   UNL     1      39.567 -16.019  -1.799  1.00  0.00     0.165 HD
HETATM   24  C   UNL     1      40.226 -14.835  -3.447  1.00  0.00     0.088 A 
HETATM   25  C   UNL     1      41.186 -13.851  -3.510  1.00  0.00     0.019 A 
HETATM   26  C   UNL     1      41.725 -13.703  -2.207  1.00  0.00     0.032 A 
ENDBRANCH  20  21
ENDBRANCH  16  19
ENDBRANCH  14  15
ENDBRANCH   1  14
TORSDOF 6
ENDMDL
MODEL 5
REMARK VINA RESULT:      -8.0      3.710      6.471
REMARK  6 active torsions:
REMARK  status: ('A' for Active; 'I' for Inactive)
REMARK    1  A    between atoms: C_4  and  C_5 
REMARK    2  A    between atoms: C_6  and  O_7 
REMARK    3  A    between atoms: O_7  and  C_8 
REMARK    4  A    between atoms: C_8  and  C_9 
REMARK       I    between atoms: C_9  and  N_10 
REMARK    5  A    between atoms: N_10  and  N_11 
REMARK    6  A    between atoms: C_12  and  C_13 
ROOT
HETATM    1  O   UNL     1      41.332 -17.271   5.351  1.00  0.00    -0.341 OA
ENDROOT
BRANCH   1   2
HETATM    2  C   UNL     1      42.502 -17.509   6.031  1.00  0.00     0.080 A 
HETATM    3  C   UNL     1      43.641 -17.887   5.292  1.00  0.00     0.007 A 
HETATM    4  C   UNL     1      44.817 -18.182   6.005  1.00  0.00     0.015 A 
HETATM    5  C   UNL     1      44.855 -18.117   7.401  1.00  0.00     0.001 A 
HETATM    6  C   UNL     1      43.712 -17.764   8.112  1.00  0.00     0.003 A 
HETATM    7  C   UNL     1      42.533 -17.466   7.428  1.00  0.00     0.037 A 
BRANCH   3   8
HETATM    8  C   UNL     1      43.641 -17.966   3.821  1.00  0.00    -0.023 A 
HETATM    9  C   UNL     1      43.489 -19.197   3.159  1.00  0.00     0.012 A 
HETATM   10  C   UNL     1      43.478 -19.267   1.765  1.00  0.00     0.001 A 
HETATM   11  C   UNL     1      43.609 -18.107   1.007  1.00  0.00     0.000 A 
HETATM   12  C   UNL     1      43.756 -16.876   1.642  1.00  0.00     0.001 A 
HETATM   13  C   UNL     1      43.773 -16.807   3.038  1.00  0.00     0.012 A 
ENDBRANCH   3   8
ENDBRANCH   1   2
BRANCH   1  14
HETATM   14  C   UNL     1      40.802 -15.967   5.611  1.00  0.00     0.280 C 
BRANCH  14  15
HETATM   15  C   UNL     1      40.860 -15.096   4.360  1.00  0.00     0.261 C 
HETATM   16  N   UNL     1      39.984 -15.506   3.367  1.00  0.00    -0.246 N 
HETATM   17  H   UNL     1      39.434 -16.349   3.521  1.00  0.00     0.192 HD
HETATM   18  O   UNL     1      41.609 -14.123   4.291  1.00  0.00    -0.269 OA
BRANCH  16  19
HETATM   19  N   UNL     1      39.893 -14.814   2.198  1.00  0.00    -0.182 NA
HETATM   20  C   UNL     1      40.458 -15.369   1.175  1.00  0.00     0.168 C 
BRANCH  20  21
HETATM   21  C   UNL     1      40.411 -14.705  -0.099  1.00  0.00     0.051 A 
HETATM   22  N   UNL     1      39.239 -14.458  -0.779  1.00  0.00    -0.365 N 
HETATM   23  H   UNL     1      38.324 -14.728  -0.437  1.00  0.00     0.165 HD
HETATM   24  C   UNL     1      39.508 -13.807  -1.953  1.00  0.00     0.088 A 
HETATM   25  C   UNL     1      40.872 -13.641  -2.041  1.00  0.00     0.019 A 
HETATM   26  C   UNL     1      41.442 -14.205  -0.872  1.00  0.00     0.032 A 
ENDBRANCH  20  21
ENDBRANCH  16  19
ENDBRANCH  14  15
ENDBRANCH   1  14
TORSDOF 6
ENDMDL
MODEL 6
REMARK VINA RESULT:      -8.0      3.981      7.637
REMARK  6 active torsions:
REMARK  status: ('A' for Active; 'I' for Inactive)
REMARK    1  A    between atoms: C_4  and  C_5 
REMARK    2  A    between atoms: C_6  and  O_7 
REMARK    3  A    between atoms: O_7  and  C_8 
REMARK    4  A    between atoms: C_8  and  C_9 
REMARK       I    between atoms: C_9  and  N_10 
REMARK    5  A    between atoms: N_10  and  N_11 
REMARK    6  A    between atoms: C_12  and  C_13 
ROOT
HETATM    1  O   UNL     1      43.263 -18.330   2.581  1.00  0.00    -0.341 OA
ENDROOT
BRANCH   1   2
HETATM    2  C   UNL     1      43.685 -19.624   2.764  1.00  0.00     0.080 A 
HETATM    3  C   UNL     1      44.140 -20.007   4.042  1.00  0.00     0.007 A 
HETATM    4  C   UNL     1      44.622 -21.318   4.202  1.00  0.00     0.015 A 
HETATM    5  C   UNL     1      44.663 -22.212   3.128  1.00  0.00     0.001 A 
HETATM    6  C   UNL     1      44.229 -21.807   1.869  1.00  0.00     0.003 A 
HETATM    7  C   UNL     1      43.747 -20.511   1.684  1.00  0.00     0.037 A 
BRANCH   3   8
HETATM    8  C   UNL     1      44.113 -19.093   5.199  1.00  0.00    -0.023 A 
HETATM    9  C   UNL     1      42.905 -18.760   5.833  1.00  0.00     0.012 A 
HETATM   10  C   UNL     1      42.883 -17.904   6.936  1.00  0.00     0.001 A 
HETATM   11  C   UNL     1      44.072 -17.373   7.429  1.00  0.00     0.000 A 
HETATM   12  C   UNL     1      45.281 -17.694   6.818  1.00  0.00     0.001 A 
HETATM   13  C   UNL     1      45.301 -18.547   5.710  1.00  0.00     0.012 A 
ENDBRANCH   3   8
ENDBRANCH   1   2
BRANCH   1  14
HETATM   14  C   UNL     1      43.289 -17.933   1.207  1.00  0.00     0.280 C 
BRANCH  14  15
HETATM   15  C   UNL     1      42.003 -17.202   0.827  1.00  0.00     0.261 C 
HETATM   16  N   UNL     1      42.228 -16.052   0.086  1.00  0.00    -0.246 N 
HETATM   17  H   UNL     1      43.189 -15.769  -0.094  1.00  0.00     0.192 HD
HETATM   18  O   UNL     1      40.900 -17.638   1.149  1.00  0.00    -0.269 OA
BRANCH  16  19
HETATM   19  N   UNL     1      41.181 -15.303  -0.357  1.00  0.00    -0.182 NA
HETATM   20  C   UNL     1      40.954 -15.359  -1.630  1.00  0.00     0.168 C 
BRANCH  20  21
HETATM   21  C   UNL     1      39.868 -14.596  -2.182  1.00  0.00     0.051 A 
HETATM   22  N   UNL     1      38.810 -14.135  -1.432  1.00  0.00    -0.365 N 
HETATM   23  H   UNL     1      38.714 -14.299  -0.436  1.00  0.00     0.165 HD
HETATM   24  C   UNL     1      37.941 -13.438  -2.228  1.00  0.00     0.088 A 
HETATM   25  C   UNL     1      38.435 -13.459  -3.512  1.00  0.00     0.019 A 
HETATM   26  C   UNL     1      39.650 -14.188  -3.485  1.00  0.00     0.032 A 
ENDBRANCH  20  21
ENDBRANCH  16  19
ENDBRANCH  14  15
ENDBRANCH   1  14
TORSDOF 6
ENDMDL
MODEL 7
REMARK VINA RESULT:      -8.0      3.203      4.800
REMARK  6 active torsions:
REMARK  status: ('A' for Active; 'I' for Inactive)
REMARK    1  A    between atoms: C_4  and  C_5 
REMARK    2  A    between atoms: C_6  and  O_7 
REMARK    3  A    between atoms: O_7  and  C_8 
REMARK    4  A    between atoms: C_8  and  C_9 
REMARK       I    between atoms: C_9  and  N_10 
REMARK    5  A    between atoms: N_10  and  N_11 
REMARK    6  A    between atoms: C_12  and  C_13 
ROOT
HETATM    1  O   UNL     1      43.668 -18.394   2.479  1.00  0.00    -0.341 OA
ENDROOT
BRANCH   1   2
HETATM    2  C   UNL     1      43.935 -19.705   2.793  1.00  0.00     0.080 A 
HETATM    3  C   UNL     1      44.173 -20.036   4.142  1.00  0.00     0.007 A 
HETATM    4  C   UNL     1      44.500 -21.370   4.443  1.00  0.00     0.015 A 
HETATM    5  C   UNL     1      44.601 -22.336   3.438  1.00  0.00     0.001 A 
HETATM    6  C   UNL     1      44.384 -21.984   2.109  1.00  0.00     0.003 A 
HETATM    7  C   UNL     1      44.058 -20.667   1.785  1.00  0.00     0.037 A 
BRANCH   3   8
HETATM    8  C   UNL     1      44.076 -19.046   5.230  1.00  0.00    -0.023 A 
HETATM    9  C   UNL     1      45.229 -18.495   5.816  1.00  0.00     0.012 A 
HETATM   10  C   UNL     1      45.134 -17.549   6.838  1.00  0.00     0.001 A 
HETATM   11  C   UNL     1      43.884 -17.129   7.286  1.00  0.00     0.000 A 
HETATM   12  C   UNL     1      42.730 -17.658   6.715  1.00  0.00     0.001 A 
HETATM   13  C   UNL     1      42.826 -18.610   5.696  1.00  0.00     0.012 A 
ENDBRANCH   3   8
ENDBRANCH   1   2
BRANCH   1  14
HETATM   14  C   UNL     1      42.352 -18.215   1.947  1.00  0.00     0.280 C 
BRANCH  14  15
HETATM   15  C   UNL     1      41.840 -16.804   2.225  1.00  0.00     0.261 C 
HETATM   16  N   UNL     1      40.918 -16.751   3.258  1.00  0.00    -0.246 N 
HETATM   17  H   UNL     1      40.627 -17.623   3.696  1.00  0.00     0.192 HD
HETATM   18  O   UNL     1      42.250 -15.837   1.586  1.00  0.00    -0.269 OA
BRANCH  16  19
HETATM   19  N   UNL     1      40.389 -15.559   3.650  1.00  0.00    -0.182 NA
HETATM   20  C   UNL     1      40.730 -15.159   4.832  1.00  0.00     0.168 C 
BRANCH  20  21
HETATM   21  C   UNL     1      40.214 -13.911   5.325  1.00  0.00     0.051 A 
HETATM   22  N   UNL     1      39.773 -13.733   6.618  1.00  0.00    -0.365 N 
HETATM   23  H   UNL     1      39.775 -14.467   7.317  1.00  0.00     0.165 HD
HETATM   24  C   UNL     1      39.350 -12.443   6.794  1.00  0.00     0.088 A 
HETATM   25  C   UNL     1      39.507 -11.780   5.598  1.00  0.00     0.019 A 
HETATM   26  C   UNL     1      40.052 -12.703   4.671  1.00  0.00     0.032 A 
ENDBRANCH  20  21
ENDBRANCH  16  19
ENDBRANCH  14  15
ENDBRANCH   1  14
TORSDOF 6
ENDMDL
MODEL 8
REMARK VINA RESULT:      -7.9      3.967      8.056
REMARK  6 active torsions:
REMARK  status: ('A' for Active; 'I' for Inactive)
REMARK    1  A    between atoms: C_4  and  C_5 
REMARK    2  A    between atoms: C_6  and  O_7 
REMARK    3  A    between atoms: O_7  and  C_8 
REMARK    4  A    between atoms: C_8  and  C_9 
REMARK       I    between atoms: C_9  and  N_10 
REMARK    5  A    between atoms: N_10  and  N_11 
REMARK    6  A    between atoms: C_12  and  C_13 
ROOT
HETATM    1  O   UNL     1      43.600 -16.294   3.040  1.00  0.00    -0.341 OA
ENDROOT
BRANCH   1   2
HETATM    2  C   UNL     1      43.278 -16.551   4.351  1.00  0.00     0.080 A 
HETATM    3  C   UNL     1      43.226 -17.893   4.777  1.00  0.00     0.007 A 
HETATM    4  C   UNL     1      42.841 -18.146   6.106  1.00  0.00     0.015 A 
HETATM    5  C   UNL     1      42.507 -17.103   6.975  1.00  0.00     0.001 A 
HETATM    6  C   UNL     1      42.544 -15.785   6.527  1.00  0.00     0.003 A 
HETATM    7  C   UNL     1      42.922 -15.509   5.213  1.00  0.00     0.037 A 
BRANCH   3   8
HETATM    8  C   UNL     1      43.570 -19.020   3.891  1.00  0.00    -0.023 A 
HETATM    9  C   UNL     1      44.494 -20.001   4.289  1.00  0.00     0.012 A 
HETATM   10  C   UNL     1      44.810 -21.073   3.453  1.00  0.00     0.001 A 
HETATM   11  C   UNL     1      44.200 -21.188   2.206  1.00  0.00     0.000 A 
HETATM   12  C   UNL     1      43.278 -20.229   1.794  1.00  0.00     0.001 A 
HETATM   13  C   UNL     1      42.967 -19.153   2.630  1.00  0.00     0.012 A 
ENDBRANCH   3   8
ENDBRANCH   1   2
BRANCH   1  14
HETATM   14  C   UNL     1      42.872 -15.185   2.504  1.00  0.00     0.280 C 
BRANCH  14  15
HETATM   15  C   UNL     1      41.811 -15.659   1.513  1.00  0.00     0.261 C 
HETATM   16  N   UNL     1      42.130 -15.377   0.195  1.00  0.00    -0.246 N 
HETATM   17  H   UNL     1      42.982 -14.853   0.001  1.00  0.00     0.192 HD
HETATM   18  O   UNL     1      40.800 -16.248   1.891  1.00  0.00    -0.269 OA
BRANCH  16  19
HETATM   19  N   UNL     1      41.301 -15.762  -0.814  1.00  0.00    -0.182 NA
HETATM   20  C   UNL     1      40.595 -14.819  -1.348  1.00  0.00     0.168 C 
BRANCH  20  21
HETATM   21  C   UNL     1      39.691 -15.139  -2.418  1.00  0.00     0.051 A 
HETATM   22  N   UNL     1      38.395 -14.677  -2.476  1.00  0.00    -0.365 N 
HETATM   23  H   UNL     1      37.979 -14.082  -1.770  1.00  0.00     0.165 HD
HETATM   24  C   UNL     1      37.784 -15.141  -3.612  1.00  0.00     0.088 A 
HETATM   25  C   UNL     1      38.692 -15.921  -4.291  1.00  0.00     0.019 A 
HETATM   26  C   UNL     1      39.894 -15.920  -3.541  1.00  0.00     0.032 A 
ENDBRANCH  20  21
ENDBRANCH  16  19
ENDBRANCH  14  15
ENDBRANCH   1  14
TORSDOF 6
ENDMDL
MODEL 9
REMARK VINA RESULT:      -7.7      3.743      6.331
REMARK  6 active torsions:
REMARK  status: ('A' for Active; 'I' for Inactive)
REMARK    1  A    between atoms: C_4  and  C_5 
REMARK    2  A    between atoms: C_6  and  O_7 
REMARK    3  A    between atoms: O_7  and  C_8 
REMARK    4  A    between atoms: C_8  and  C_9 
REMARK       I    between atoms: C_9  and  N_10 
REMARK    5  A    between atoms: N_10  and  N_11 
REMARK    6  A    between atoms: C_12  and  C_13 
ROOT
HETATM    1  O   UNL     1      43.378 -18.344   2.446  1.00  0.00    -0.341 OA
ENDROOT
BRANCH   1   2
HETATM    2  C   UNL     1      43.744 -19.637   2.730  1.00  0.00     0.080 A 
HETATM    3  C   UNL     1      44.097 -19.957   4.057  1.00  0.00     0.007 A 
HETATM    4  C   UNL     1      44.524 -21.270   4.324  1.00  0.00     0.015 A 
HETATM    5  C   UNL     1      44.609 -22.226   3.307  1.00  0.00     0.001 A 
HETATM    6  C   UNL     1      44.277 -21.882   2.000  1.00  0.00     0.003 A 
HETATM    7  C   UNL     1      43.851 -20.586   1.709  1.00  0.00     0.037 A 
BRANCH   3   8
HETATM    8  C   UNL     1      44.020 -18.977   5.155  1.00  0.00    -0.023 A 
HETATM    9  C   UNL     1      42.781 -18.535   5.649  1.00  0.00     0.012 A 
HETATM   10  C   UNL     1      42.711 -17.616   6.697  1.00  0.00     0.001 A 
HETATM   11  C   UNL     1      43.880 -17.129   7.277  1.00  0.00     0.000 A 
HETATM   12  C   UNL     1      45.118 -17.558   6.806  1.00  0.00     0.001 A 
HETATM   13  C   UNL     1      45.187 -18.474   5.752  1.00  0.00     0.012 A 
ENDBRANCH   3   8
ENDBRANCH   1   2
BRANCH   1  14
HETATM   14  C   UNL     1      42.077 -18.259   1.856  1.00  0.00     0.280 C 
BRANCH  14  15
HETATM   15  C   UNL     1      41.369 -16.975   2.281  1.00  0.00     0.261 C 
HETATM   16  N   UNL     1      40.184 -16.753   1.597  1.00  0.00    -0.246 N 
HETATM   17  H   UNL     1      39.917 -17.404   0.861  1.00  0.00     0.192 HD
HETATM   18  O   UNL     1      41.828 -16.253   3.163  1.00  0.00    -0.269 OA
BRANCH  16  19
HETATM   19  N   UNL     1      39.417 -15.665   1.882  1.00  0.00    -0.182 NA
HETATM   20  C   UNL     1      39.474 -14.700   1.023  1.00  0.00     0.168 C 
BRANCH  20  21
HETATM   21  C   UNL     1      38.696 -13.513   1.248  1.00  0.00     0.051 A 
HETATM   22  N   UNL     1      39.041 -12.546   2.166  1.00  0.00    -0.365 N 
HETATM   23  H   UNL     1      39.865 -12.599   2.753  1.00  0.00     0.165 HD
HETATM   24  C   UNL     1      38.117 -11.535   2.150  1.00  0.00     0.088 A 
HETATM   25  C   UNL     1      37.155 -11.857   1.219  1.00  0.00     0.019 A 
HETATM   26  C   UNL     1      37.519 -13.103   0.649  1.00  0.00     0.032 A 
ENDBRANCH  20  21
ENDBRANCH  16  19
ENDBRANCH  14  15
ENDBRANCH   1  14
TORSDOF 6
ENDMDL
MODEL 10
REMARK VINA RESULT:      -7.0      3.226      5.330
REMARK  6 active torsions:
REMARK  status: ('A' for Active; 'I' for Inactive)
REMARK    1  A    between atoms: C_4  and  C_5 
REMARK    2  A    between atoms: C_6  and  O_7 
REMARK    3  A    between atoms: O_7  and  C_8 
REMARK    4  A    between atoms: C_8  and  C_9 
REMARK       I    between atoms: C_9  and  N_10 
REMARK    5  A    between atoms: N_10  and  N_11 
REMARK    6  A    between atoms: C_12  and  C_13 
ROOT
HETATM    1  O   UNL     1      42.027 -17.544   5.353  1.00  0.00    -0.341 OA
ENDROOT
BRANCH   1   2
HETATM    2  C   UNL     1      42.975 -18.509   5.111  1.00  0.00     0.080 A 
HETATM    3  C   UNL     1      43.383 -18.729   3.781  1.00  0.00     0.007 A 
HETATM    4  C   UNL     1      44.312 -19.758   3.541  1.00  0.00     0.015 A 
HETATM    5  C   UNL     1      44.805 -20.547   4.584  1.00  0.00     0.001 A 
HETATM    6  C   UNL     1      44.371 -20.328   5.888  1.00  0.00     0.003 A 
HETATM    7  C   UNL     1      43.451 -19.313   6.152  1.00  0.00     0.037 A 
BRANCH   3   8
HETATM    8  C   UNL     1      42.886 -17.919   2.655  1.00  0.00    -0.023 A 
HETATM    9  C   UNL     1      43.582 -16.779   2.217  1.00  0.00     0.012 A 
HETATM   10  C   UNL     1      43.115 -16.020   1.143  1.00  0.00     0.001 A 
HETATM   11  C   UNL     1      41.948 -16.391   0.481  1.00  0.00     0.000 A 
HETATM   12  C   UNL     1      41.245 -17.520   0.896  1.00  0.00     0.001 A 
HETATM   13  C   UNL     1      41.711 -18.277   1.975  1.00  0.00     0.012 A 
ENDBRANCH   3   8
ENDBRANCH   1   2
BRANCH   1  14
HETATM   14  C   UNL     1      42.596 -16.331   5.857  1.00  0.00     0.280 C 
BRANCH  14  15
HETATM   15  C   UNL     1      41.869 -15.113   5.292  1.00  0.00     0.261 C 
HETATM   16  N   UNL     1      41.146 -15.393   4.143  1.00  0.00    -0.246 N 
HETATM   17  H   UNL     1      41.196 -16.333   3.753  1.00  0.00     0.192 HD
HETATM   18  O   UNL     1      41.928 -14.018   5.847  1.00  0.00    -0.269 OA
BRANCH  16  19
HETATM   19  N   UNL     1      40.416 -14.419   3.533  1.00  0.00    -0.182 NA
HETATM   20  C   UNL     1      39.540 -14.833   2.676  1.00  0.00     0.168 C 
BRANCH  20  21
HETATM   21  C   UNL     1      38.726 -13.870   1.985  1.00  0.00     0.051 A 
HETATM   22  N   UNL     1      38.674 -12.537   2.331  1.00  0.00    -0.365 N 
HETATM   23  H   UNL     1      39.201 -12.136   3.097  1.00  0.00     0.165 HD
HETATM   24  C   UNL     1      37.823 -11.870   1.490  1.00  0.00     0.088 A 
HETATM   25  C   UNL     1      37.308 -12.782   0.598  1.00  0.00     0.019 A 
HETATM   26  C   UNL     1      37.877 -14.043   0.908  1.00  0.00     0.032 A 
ENDBRANCH  20  21
ENDBRANCH  16  19
ENDBRANCH  14  15
ENDBRANCH   1  14
TORSDOF 6
ENDMDL
