MODEL 1
REMARK VINA RESULT:      -9.8      0.000      0.000
REMARK  7 active torsions:
REMARK  status: ('A' for Active; 'I' for Inactive)
REMARK    1  A    between atoms: C_8  and  C_9 
REMARK    2  A    between atoms: C_9  and  N_10 
REMARK    3  A    between atoms: C_14  and  C_15 
REMARK    4  A    between atoms: C_15  and  C_16 
REMARK    5  A    between atoms: C_16  and  C_17 
REMARK    6  A    between atoms: N_27  and  C_28 
REMARK    7  A    between atoms: C_28  and  C_29 
ROOT
HETATM    1  C   UNL     1      42.595 -16.926   2.661  1.00  0.00     0.123 C 
HETATM    2  N   UNL     1      42.791 -15.482   2.664  1.00  0.00    -0.324 N 
HETATM    3  C   UNL     1      42.838 -14.984   3.953  1.00  0.00     0.326 C 
HETATM    4  O   UNL     1      43.199 -13.845   4.189  1.00  0.00    -0.247 OA
HETATM    5  N   UNL     1      42.437 -15.948   4.817  1.00  0.00    -0.268 N 
HETATM    6  C   UNL     1      42.197 -17.114   4.146  1.00  0.00     0.257 C 
HETATM    7  O   UNL     1      41.751 -18.144   4.627  1.00  0.00    -0.270 OA
HETATM    8  H   UNL     1      43.412 -14.994   2.026  1.00  0.00     0.165 HD
ENDROOT
BRANCH   1   9
HETATM    9  C   UNL     1      41.443 -17.372   1.701  1.00  0.00     0.027 C 
HETATM   10  C   UNL     1      41.655 -17.028   0.216  1.00  0.00     0.035 C 
HETATM   11  C   UNL     1      41.405 -15.567  -0.141  1.00  0.00     0.235 C 
HETATM   12  N   UNL     1      40.049 -15.112   0.330  1.00  0.00    -0.067 N 
HETATM   13  H   UNL     1      39.344 -15.609  -0.234  1.00  0.00     0.280 HD
HETATM   14  C   UNL     1      39.761 -15.416   1.778  1.00  0.00     0.235 C 
HETATM   15  C   UNL     1      40.031 -16.880   2.091  1.00  0.00     0.035 C 
BRANCH  12  16
HETATM   16  C   UNL     1      39.819 -13.630   0.060  1.00  0.00     0.278 C 
BRANCH  16  17
HETATM   17  C   UNL     1      40.125 -13.210  -1.323  1.00  0.00     0.034 A 
HETATM   18  C   UNL     1      39.386 -13.475  -2.513  1.00  0.00     0.062 A 
HETATM   19  C   UNL     1      38.112 -14.225  -2.672  1.00  0.00     0.073 C 
HETATM   20  N   UNL     1      39.963 -12.928  -3.588  1.00  0.00    -0.176 NA
HETATM   21  N   UNL     1      41.098 -12.369  -3.124  1.00  0.00    -0.262 N 
HETATM   22  C   UNL     1      42.020 -11.756  -4.053  1.00  0.00     0.181 C 
HETATM   23  C   UNL     1      41.204 -12.487  -1.771  1.00  0.00     0.131 A 
HETATM   24 CL   UNL     1      42.511 -11.810  -0.920  1.00  0.00    -0.062 Cl
ENDBRANCH  16  17
ENDBRANCH  12  16
ENDBRANCH   1   9
BRANCH   1  25
HETATM   25  C   UNL     1      43.978 -17.597   2.415  1.00  0.00     0.080 C 
BRANCH  25  26
HETATM   26  C   UNL     1      44.076 -19.089   2.612  1.00  0.00    -0.052 A 
HETATM   27  C   UNL     1      44.684 -19.637   3.747  1.00  0.00     0.049 A 
HETATM   28  C   UNL     1      44.746 -21.020   3.905  1.00  0.00     0.116 A 
HETATM   29  F   UNL     1      45.337 -21.525   4.995  1.00  0.00    -0.206 F 
HETATM   30  C   UNL     1      44.205 -21.879   2.958  1.00  0.00     0.042 A 
HETATM   31  C   UNL     1      43.589 -21.346   1.829  1.00  0.00     0.003 A 
HETATM   32  C   UNL     1      43.524 -19.961   1.659  1.00  0.00     0.007 A 
ENDBRANCH  25  26
ENDBRANCH   1  25
BRANCH   5  33
HETATM   33  C   UNL     1      42.356 -15.788   6.260  1.00  0.00     0.140 C 
BRANCH  33  34
HETATM   34  C   UNL     1      43.659 -16.078   7.028  1.00  0.00    -0.004 C 
HETATM   35  C   UNL     1      44.418 -14.807   7.405  1.00  0.00     0.011 C 
HETATM   36  C   UNL     1      43.438 -16.953   8.261  1.00  0.00     0.011 C 
ENDBRANCH  33  34
ENDBRANCH   5  33
TORSDOF 7
ENDMDL
MODEL 2
REMARK VINA RESULT:      -9.4      1.708      2.221
REMARK  7 active torsions:
REMARK  status: ('A' for Active; 'I' for Inactive)
REMARK    1  A    between atoms: C_8  and  C_9 
REMARK    2  A    between atoms: C_9  and  N_10 
REMARK    3  A    between atoms: C_14  and  C_15 
REMARK    4  A    between atoms: C_15  and  C_16 
REMARK    5  A    between atoms: C_16  and  C_17 
REMARK    6  A    between atoms: N_27  and  C_28 
REMARK    7  A    between atoms: C_28  and  C_29 
ROOT
HETATM    1  C   UNL     1      42.553 -16.962   2.874  1.00  0.00     0.123 C 
HETATM    2  N   UNL     1      42.715 -15.514   2.841  1.00  0.00    -0.324 N 
HETATM    3  C   UNL     1      42.803 -14.988   4.117  1.00  0.00     0.326 C 
HETATM    4  O   UNL     1      43.146 -13.837   4.315  1.00  0.00    -0.247 OA
HETATM    5  N   UNL     1      42.460 -15.943   5.016  1.00  0.00    -0.268 N 
HETATM    6  C   UNL     1      42.221 -17.128   4.377  1.00  0.00     0.257 C 
HETATM    7  O   UNL     1      41.819 -18.157   4.897  1.00  0.00    -0.270 OA
HETATM    8  H   UNL     1      43.298 -15.025   2.169  1.00  0.00     0.165 HD
ENDROOT
BRANCH   1   9
HETATM    9  C   UNL     1      41.374 -17.453   1.972  1.00  0.00     0.027 C 
HETATM   10  C   UNL     1      41.650 -17.425   0.458  1.00  0.00     0.035 C 
HETATM   11  C   UNL     1      41.576 -16.041  -0.177  1.00  0.00     0.235 C 
HETATM   12  N   UNL     1      40.274 -15.358   0.147  1.00  0.00    -0.067 N 
HETATM   13  H   UNL     1      39.526 -15.872  -0.340  1.00  0.00     0.280 HD
HETATM   14  C   UNL     1      39.928 -15.345   1.614  1.00  0.00     0.235 C 
HETATM   15  C   UNL     1      40.022 -16.743   2.207  1.00  0.00     0.035 C 
BRANCH  12  16
HETATM   16  C   UNL     1      40.222 -13.939  -0.405  1.00  0.00     0.278 C 
BRANCH  16  17
HETATM   17  C   UNL     1      39.114 -13.697  -1.354  1.00  0.00     0.034 A 
HETATM   18  C   UNL     1      38.062 -12.740  -1.262  1.00  0.00     0.062 A 
HETATM   19  C   UNL     1      37.814 -11.726  -0.203  1.00  0.00     0.073 C 
HETATM   20  N   UNL     1      37.240 -12.804  -2.314  1.00  0.00    -0.176 NA
HETATM   21  N   UNL     1      37.703 -13.831  -3.053  1.00  0.00    -0.262 N 
HETATM   22  C   UNL     1      36.981 -14.237  -4.237  1.00  0.00     0.181 C 
HETATM   23  C   UNL     1      38.843 -14.359  -2.527  1.00  0.00     0.131 A 
HETATM   24 CL   UNL     1      39.673 -15.626  -3.299  1.00  0.00    -0.062 Cl
ENDBRANCH  16  17
ENDBRANCH  12  16
ENDBRANCH   1   9
BRANCH   1  25
HETATM   25  C   UNL     1      43.941 -17.605   2.585  1.00  0.00     0.080 C 
BRANCH  25  26
HETATM   26  C   UNL     1      44.080 -19.091   2.801  1.00  0.00    -0.052 A 
HETATM   27  C   UNL     1      43.717 -20.010   1.811  1.00  0.00     0.049 A 
HETATM   28  C   UNL     1      43.871 -21.377   2.038  1.00  0.00     0.116 A 
HETATM   29  F   UNL     1      43.512 -22.241   1.080  1.00  0.00    -0.206 F 
HETATM   30  C   UNL     1      44.391 -21.855   3.233  1.00  0.00     0.042 A 
HETATM   31  C   UNL     1      44.766 -20.950   4.223  1.00  0.00     0.003 A 
HETATM   32  C   UNL     1      44.613 -19.578   4.008  1.00  0.00     0.007 A 
ENDBRANCH  25  26
ENDBRANCH   1  25
BRANCH   5  33
HETATM   33  C   UNL     1      42.434 -15.755   6.457  1.00  0.00     0.140 C 
BRANCH  33  34
HETATM   34  C   UNL     1      43.799 -15.881   7.161  1.00  0.00    -0.004 C 
HETATM   35  C   UNL     1      44.668 -16.988   6.567  1.00  0.00     0.011 C 
HETATM   36  C   UNL     1      44.568 -14.562   7.200  1.00  0.00     0.011 C 
ENDBRANCH  33  34
ENDBRANCH   5  33
TORSDOF 7
ENDMDL
MODEL 3
REMARK VINA RESULT:      -8.9      1.912      2.673
REMARK  7 active torsions:
REMARK  status: ('A' for Active; 'I' for Inactive)
REMARK    1  A    between atoms: C_8  and  C_9 
REMARK    2  A    between atoms: C_9  and  N_10 
REMARK    3  A    between atoms: C_14  and  C_15 
REMARK    4  A    between atoms: C_15  and  C_16 
REMARK    5  A    between atoms: C_16  and  C_17 
REMARK    6  A    between atoms: N_27  and  C_28 
REMARK    7  A    between atoms: C_28  and  C_29 
ROOT
HETATM    1  C   UNL     1      42.635 -16.457   2.504  1.00  0.00     0.123 C 
HETATM    2  N   UNL     1      42.837 -15.038   2.240  1.00  0.00    -0.324 N 
HETATM    3  C   UNL     1      43.034 -14.330   3.411  1.00  0.00     0.326 C 
HETATM    4  O   UNL     1      43.425 -13.177   3.408  1.00  0.00    -0.247 OA
HETATM    5  N   UNL     1      42.731 -15.125   4.466  1.00  0.00    -0.268 N 
HETATM    6  C   UNL     1      42.410 -16.382   4.034  1.00  0.00     0.257 C 
HETATM    7  O   UNL     1      42.018 -17.305   4.732  1.00  0.00    -0.270 OA
HETATM    8  H   UNL     1      43.382 -14.679   1.462  1.00  0.00     0.165 HD
ENDROOT
BRANCH   1   9
HETATM    9  C   UNL     1      41.379 -17.030   1.770  1.00  0.00     0.027 C 
HETATM   10  C   UNL     1      41.483 -17.087   0.236  1.00  0.00     0.035 C 
HETATM   11  C   UNL     1      41.296 -15.745  -0.465  1.00  0.00     0.235 C 
HETATM   12  N   UNL     1      40.018 -15.076  -0.034  1.00  0.00    -0.067 N 
HETATM   13  H   UNL     1      39.236 -15.637  -0.404  1.00  0.00     0.280 HD
HETATM   14  C   UNL     1      39.837 -14.984   1.459  1.00  0.00     0.235 C 
HETATM   15  C   UNL     1      40.040 -16.341   2.116  1.00  0.00     0.035 C 
BRANCH  12  16
HETATM   16  C   UNL     1      39.860 -13.695  -0.657  1.00  0.00     0.278 C 
BRANCH  16  17
HETATM   17  C   UNL     1      39.661 -12.606   0.322  1.00  0.00     0.034 A 
HETATM   18  C   UNL     1      40.637 -11.736   0.890  1.00  0.00     0.062 A 
HETATM   19  C   UNL     1      42.101 -11.684   0.634  1.00  0.00     0.073 C 
HETATM   20  N   UNL     1      40.088 -10.862   1.739  1.00  0.00    -0.176 NA
HETATM   21  N   UNL     1      38.782 -11.194   1.782  1.00  0.00    -0.262 N 
HETATM   22  C   UNL     1      37.900 -10.493   2.687  1.00  0.00     0.181 C 
HETATM   23  C   UNL     1      38.489 -12.205   0.918  1.00  0.00     0.131 A 
HETATM   24 CL   UNL     1      36.899 -12.775   0.725  1.00  0.00    -0.062 Cl
ENDBRANCH  16  17
ENDBRANCH  12  16
ENDBRANCH   1   9
BRANCH   1  25
HETATM   25  C   UNL     1      43.978 -17.192   2.222  1.00  0.00     0.080 C 
BRANCH  25  26
HETATM   26  C   UNL     1      44.045 -18.666   2.529  1.00  0.00    -0.052 A 
HETATM   27  C   UNL     1      44.571 -19.137   3.737  1.00  0.00     0.049 A 
HETATM   28  C   UNL     1      44.606 -20.507   3.995  1.00  0.00     0.116 A 
HETATM   29  F   UNL     1      45.119 -20.938   5.155  1.00  0.00    -0.206 F 
HETATM   30  C   UNL     1      44.119 -21.426   3.077  1.00  0.00     0.042 A 
HETATM   31  C   UNL     1      43.584 -20.970   1.875  1.00  0.00     0.003 A 
HETATM   32  C   UNL     1      43.546 -19.600   1.604  1.00  0.00     0.007 A 
ENDBRANCH  25  26
ENDBRANCH   1  25
BRANCH   5  33
HETATM   33  C   UNL     1      42.817 -14.723   5.861  1.00  0.00     0.140 C 
BRANCH  33  34
HETATM   34  C   UNL     1      44.108 -15.146   6.588  1.00  0.00    -0.004 C 
HETATM   35  C   UNL     1      44.793 -13.980   7.300  1.00  0.00     0.011 C 
HETATM   36  C   UNL     1      43.888 -16.307   7.557  1.00  0.00     0.011 C 
ENDBRANCH  33  34
ENDBRANCH   5  33
TORSDOF 7
ENDMDL
MODEL 4
REMARK VINA RESULT:      -8.4      3.780      6.783
REMARK  7 active torsions:
REMARK  status: ('A' for Active; 'I' for Inactive)
REMARK    1  A    between atoms: C_8  and  C_9 
REMARK    2  A    between atoms: C_9  and  N_10 
REMARK    3  A    between atoms: C_14  and  C_15 
REMARK    4  A    between atoms: C_15  and  C_16 
REMARK    5  A    between atoms: C_16  and  C_17 
REMARK    6  A    between atoms: N_27  and  C_28 
REMARK    7  A    between atoms: C_28  and  C_29 
ROOT
HETATM    1  C   UNL     1      42.516 -16.253   3.765  1.00  0.00     0.123 C 
HETATM    2  N   UNL     1      43.614 -16.068   2.826  1.00  0.00    -0.324 N 
HETATM    3  C   UNL     1      43.870 -17.226   2.115  1.00  0.00     0.326 C 
HETATM    4  O   UNL     1      44.599 -17.234   1.141  1.00  0.00    -0.247 OA
HETATM    5  N   UNL     1      43.192 -18.253   2.682  1.00  0.00    -0.268 N 
HETATM    6  C   UNL     1      42.420 -17.798   3.714  1.00  0.00     0.257 C 
HETATM    7  O   UNL     1      41.751 -18.484   4.472  1.00  0.00    -0.270 OA
HETATM    8  H   UNL     1      43.752 -15.225   2.275  1.00  0.00     0.165 HD
ENDROOT
BRANCH   1   9
HETATM    9  C   UNL     1      42.869 -15.751   5.204  1.00  0.00     0.027 C 
HETATM   10  C   UNL     1      41.710 -15.793   6.217  1.00  0.00     0.035 C 
HETATM   11  C   UNL     1      40.689 -14.670   6.062  1.00  0.00     0.235 C 
HETATM   12  N   UNL     1      41.355 -13.320   6.058  1.00  0.00    -0.067 N 
HETATM   13  H   UNL     1      41.730 -13.159   7.004  1.00  0.00     0.280 HD
HETATM   14  C   UNL     1      42.506 -13.199   5.093  1.00  0.00     0.235 C 
HETATM   15  C   UNL     1      43.494 -14.341   5.277  1.00  0.00     0.035 C 
BRANCH  12  16
HETATM   16  C   UNL     1      40.359 -12.194   5.814  1.00  0.00     0.278 C 
BRANCH  16  17
HETATM   17  C   UNL     1      40.951 -10.840   5.850  1.00  0.00     0.034 A 
HETATM   18  C   UNL     1      41.438 -10.115   6.976  1.00  0.00     0.062 A 
HETATM   19  C   UNL     1      41.495 -10.535   8.401  1.00  0.00     0.073 C 
HETATM   20  N   UNL     1      41.913  -8.916   6.627  1.00  0.00    -0.176 NA
HETATM   21  N   UNL     1      41.681  -8.824   5.302  1.00  0.00    -0.262 N 
HETATM   22  C   UNL     1      41.997  -7.597   4.608  1.00  0.00     0.181 C 
HETATM   23  C   UNL     1      41.143  -9.971   4.802  1.00  0.00     0.131 A 
HETATM   24 CL   UNL     1      40.813 -10.148   3.144  1.00  0.00    -0.062 Cl
ENDBRANCH  16  17
ENDBRANCH  12  16
ENDBRANCH   1   9
BRANCH   1  25
HETATM   25  C   UNL     1      41.234 -15.640   3.131  1.00  0.00     0.080 C 
BRANCH  25  26
HETATM   26  C   UNL     1      41.354 -15.041   1.752  1.00  0.00    -0.052 A 
HETATM   27  C   UNL     1      41.106 -15.799   0.602  1.00  0.00     0.049 A 
HETATM   28  C   UNL     1      41.213 -15.211  -0.657  1.00  0.00     0.116 A 
HETATM   29  F   UNL     1      40.977 -15.955  -1.745  1.00  0.00    -0.206 F 
HETATM   30  C   UNL     1      41.556 -13.874  -0.801  1.00  0.00     0.042 A 
HETATM   31  C   UNL     1      41.796 -13.106   0.335  1.00  0.00     0.003 A 
HETATM   32  C   UNL     1      41.695 -13.686   1.602  1.00  0.00     0.007 A 
ENDBRANCH  25  26
ENDBRANCH   1  25
BRANCH   5  33
HETATM   33  C   UNL     1      43.218 -19.628   2.208  1.00  0.00     0.140 C 
BRANCH  33  34
HETATM   34  C   UNL     1      44.494 -20.418   2.554  1.00  0.00    -0.004 C 
HETATM   35  C   UNL     1      44.811 -20.401   4.049  1.00  0.00     0.011 C 
HETATM   36  C   UNL     1      44.461 -21.854   2.032  1.00  0.00     0.011 C 
ENDBRANCH  33  34
ENDBRANCH   5  33
TORSDOF 7
ENDMDL
MODEL 5
REMARK VINA RESULT:      -8.4      2.447      4.468
REMARK  7 active torsions:
REMARK  status: ('A' for Active; 'I' for Inactive)
REMARK    1  A    between atoms: C_8  and  C_9 
REMARK    2  A    between atoms: C_9  and  N_10 
REMARK    3  A    between atoms: C_14  and  C_15 
REMARK    4  A    between atoms: C_15  and  C_16 
REMARK    5  A    between atoms: C_16  and  C_17 
REMARK    6  A    between atoms: N_27  and  C_28 
REMARK    7  A    between atoms: C_28  and  C_29 
ROOT
HETATM    1  C   UNL     1      42.645 -17.200   3.028  1.00  0.00     0.123 C 
HETATM    2  N   UNL     1      41.936 -17.257   4.300  1.00  0.00    -0.324 N 
HETATM    3  C   UNL     1      42.641 -17.989   5.237  1.00  0.00     0.326 C 
HETATM    4  O   UNL     1      42.336 -17.989   6.416  1.00  0.00    -0.247 OA
HETATM    5  N   UNL     1      43.656 -18.642   4.619  1.00  0.00    -0.268 N 
HETATM    6  C   UNL     1      43.699 -18.303   3.295  1.00  0.00     0.257 C 
HETATM    7  O   UNL     1      44.447 -18.777   2.454  1.00  0.00    -0.270 OA
HETATM    8  H   UNL     1      41.435 -16.472   4.704  1.00  0.00     0.165 HD
ENDROOT
BRANCH   1   9
HETATM    9  C   UNL     1      41.729 -17.569   1.815  1.00  0.00     0.027 C 
HETATM   10  C   UNL     1      42.073 -16.859   0.493  1.00  0.00     0.035 C 
HETATM   11  C   UNL     1      41.616 -15.406   0.413  1.00  0.00     0.235 C 
HETATM   12  N   UNL     1      40.151 -15.274   0.732  1.00  0.00    -0.067 N 
HETATM   13  H   UNL     1      39.627 -15.721  -0.035  1.00  0.00     0.280 HD
HETATM   14  C   UNL     1      39.731 -15.947   2.013  1.00  0.00     0.235 C 
HETATM   15  C   UNL     1      40.213 -17.389   2.054  1.00  0.00     0.035 C 
BRANCH  12  16
HETATM   16  C   UNL     1      39.699 -13.819   0.743  1.00  0.00     0.278 C 
BRANCH  16  17
HETATM   17  C   UNL     1      40.095 -13.050  -0.455  1.00  0.00     0.034 A 
HETATM   18  C   UNL     1      41.107 -12.054  -0.574  1.00  0.00     0.062 A 
HETATM   19  C   UNL     1      42.039 -11.543   0.466  1.00  0.00     0.073 C 
HETATM   20  N   UNL     1      41.189 -11.577  -1.820  1.00  0.00    -0.176 NA
HETATM   21  N   UNL     1      40.202 -12.199  -2.495  1.00  0.00    -0.262 N 
HETATM   22  C   UNL     1      39.950 -11.844  -3.873  1.00  0.00     0.181 C 
HETATM   23  C   UNL     1      39.556 -13.113  -1.719  1.00  0.00     0.131 A 
HETATM   24 CL   UNL     1      38.310 -14.086  -2.342  1.00  0.00    -0.062 Cl
ENDBRANCH  16  17
ENDBRANCH  12  16
ENDBRANCH   1   9
BRANCH   1  25
HETATM   25  C   UNL     1      43.361 -15.821   2.941  1.00  0.00     0.080 C 
BRANCH  25  26
HETATM   26  C   UNL     1      42.985 -14.773   3.958  1.00  0.00    -0.052 A 
HETATM   27  C   UNL     1      43.681 -14.644   5.165  1.00  0.00     0.049 A 
HETATM   28  C   UNL     1      43.317 -13.656   6.078  1.00  0.00     0.116 A 
HETATM   29  F   UNL     1      43.991 -13.553   7.230  1.00  0.00    -0.206 F 
HETATM   30  C   UNL     1      42.273 -12.779   5.813  1.00  0.00     0.042 A 
HETATM   31  C   UNL     1      41.580 -12.890   4.611  1.00  0.00     0.003 A 
HETATM   32  C   UNL     1      41.934 -13.879   3.690  1.00  0.00     0.007 A 
ENDBRANCH  25  26
ENDBRANCH   1  25
BRANCH   5  33
HETATM   33  C   UNL     1      44.611 -19.513   5.285  1.00  0.00     0.140 C 
BRANCH  33  34
HETATM   34  C   UNL     1      44.105 -20.936   5.586  1.00  0.00    -0.004 C 
HETATM   35  C   UNL     1      45.078 -22.019   5.124  1.00  0.00     0.011 C 
HETATM   36  C   UNL     1      43.743 -21.136   7.057  1.00  0.00     0.011 C 
ENDBRANCH  33  34
ENDBRANCH   5  33
TORSDOF 7
ENDMDL
MODEL 6
REMARK VINA RESULT:      -8.3      2.084      3.145
REMARK  7 active torsions:
REMARK  status: ('A' for Active; 'I' for Inactive)
REMARK    1  A    between atoms: C_8  and  C_9 
REMARK    2  A    between atoms: C_9  and  N_10 
REMARK    3  A    between atoms: C_14  and  C_15 
REMARK    4  A    between atoms: C_15  and  C_16 
REMARK    5  A    between atoms: C_16  and  C_17 
REMARK    6  A    between atoms: N_27  and  C_28 
REMARK    7  A    between atoms: C_28  and  C_29 
ROOT
HETATM    1  C   UNL     1      40.561 -14.486   2.892  1.00  0.00     0.123 C 
HETATM    2  N   UNL     1      41.868 -13.988   2.484  1.00  0.00    -0.324 N 
HETATM    3  C   UNL     1      42.797 -14.122   3.499  1.00  0.00     0.326 C 
HETATM    4  O   UNL     1      43.989 -13.964   3.305  1.00  0.00    -0.247 OA
HETATM    5  N   UNL     1      42.155 -14.444   4.649  1.00  0.00    -0.268 N 
HETATM    6  C   UNL     1      40.819 -14.608   4.413  1.00  0.00     0.257 C 
HETATM    7  O   UNL     1      39.961 -14.825   5.255  1.00  0.00    -0.270 OA
HETATM    8  H   UNL     1      42.265 -14.130   1.560  1.00  0.00     0.165 HD
ENDROOT
BRANCH   1   9
HETATM    9  C   UNL     1      39.411 -13.470   2.588  1.00  0.00     0.027 C 
HETATM   10  C   UNL     1      38.368 -13.945   1.560  1.00  0.00     0.035 C 
HETATM   11  C   UNL     1      38.829 -13.877   0.108  1.00  0.00     0.235 C 
HETATM   12  N   UNL     1      39.344 -12.507  -0.240  1.00  0.00    -0.067 N 
HETATM   13  H   UNL     1      38.540 -11.862  -0.226  1.00  0.00     0.280 HD
HETATM   14  C   UNL     1      40.370 -11.966   0.722  1.00  0.00     0.235 C 
HETATM   15  C   UNL     1      39.873 -12.060   2.157  1.00  0.00     0.035 C 
BRANCH  12  16
HETATM   16  C   UNL     1      39.891 -12.447  -1.661  1.00  0.00     0.278 C 
BRANCH  16  17
HETATM   17  C   UNL     1      39.246 -13.390  -2.600  1.00  0.00     0.034 A 
HETATM   18  C   UNL     1      37.952 -13.308  -3.189  1.00  0.00     0.062 A 
HETATM   19  C   UNL     1      36.921 -12.248  -3.030  1.00  0.00     0.073 C 
HETATM   20  N   UNL     1      37.708 -14.343  -3.999  1.00  0.00    -0.176 NA
HETATM   21  N   UNL     1      38.798 -15.129  -3.892  1.00  0.00    -0.262 N 
HETATM   22  C   UNL     1      38.828 -16.399  -4.582  1.00  0.00     0.181 C 
HETATM   23  C   UNL     1      39.750 -14.570  -3.095  1.00  0.00     0.131 A 
HETATM   24 CL   UNL     1      41.252 -15.323  -2.843  1.00  0.00    -0.062 Cl
ENDBRANCH  16  17
ENDBRANCH  12  16
ENDBRANCH   1   9
BRANCH   1  25
HETATM   25  C   UNL     1      40.382 -15.910   2.289  1.00  0.00     0.080 C 
BRANCH  25  26
HETATM   26  C   UNL     1      41.604 -16.788   2.196  1.00  0.00    -0.052 A 
HETATM   27  C   UNL     1      41.957 -17.659   3.233  1.00  0.00     0.049 A 
HETATM   28  C   UNL     1      43.086 -18.468   3.110  1.00  0.00     0.116 A 
HETATM   29  F   UNL     1      43.410 -19.290   4.115  1.00  0.00    -0.206 F 
HETATM   30  C   UNL     1      43.874 -18.436   1.967  1.00  0.00     0.042 A 
HETATM   31  C   UNL     1      43.528 -17.581   0.925  1.00  0.00     0.003 A 
HETATM   32  C   UNL     1      42.400 -16.764   1.038  1.00  0.00     0.007 A 
ENDBRANCH  25  26
ENDBRANCH   1  25
BRANCH   5  33
HETATM   33  C   UNL     1      42.807 -14.665   5.929  1.00  0.00     0.140 C 
BRANCH  33  34
HETATM   34  C   UNL     1      43.280 -16.108   6.185  1.00  0.00    -0.004 C 
HETATM   35  C   UNL     1      44.636 -16.169   6.887  1.00  0.00     0.011 C 
HETATM   36  C   UNL     1      42.249 -16.943   6.944  1.00  0.00     0.011 C 
ENDBRANCH  33  34
ENDBRANCH   5  33
TORSDOF 7
ENDMDL
MODEL 7
REMARK VINA RESULT:      -8.3      3.507      8.403
REMARK  7 active torsions:
REMARK  status: ('A' for Active; 'I' for Inactive)
REMARK    1  A    between atoms: C_8  and  C_9 
REMARK    2  A    between atoms: C_9  and  N_10 
REMARK    3  A    between atoms: C_14  and  C_15 
REMARK    4  A    between atoms: C_15  and  C_16 
REMARK    5  A    between atoms: C_16  and  C_17 
REMARK    6  A    between atoms: N_27  and  C_28 
REMARK    7  A    between atoms: C_28  and  C_29 
ROOT
HETATM    1  C   UNL     1      40.524 -14.763   0.862  1.00  0.00     0.123 C 
HETATM    2  N   UNL     1      41.585 -13.925   1.405  1.00  0.00    -0.324 N 
HETATM    3  C   UNL     1      41.731 -12.761   0.674  1.00  0.00     0.326 C 
HETATM    4  O   UNL     1      42.412 -11.833   1.072  1.00  0.00    -0.247 OA
HETATM    5  N   UNL     1      41.017 -12.864  -0.473  1.00  0.00    -0.268 N 
HETATM    6  C   UNL     1      40.326 -14.044  -0.495  1.00  0.00     0.257 C 
HETATM    7  O   UNL     1      39.652 -14.467  -1.421  1.00  0.00    -0.270 OA
HETATM    8  H   UNL     1      41.751 -13.794   2.398  1.00  0.00     0.165 HD
ENDROOT
BRANCH   1   9
HETATM    9  C   UNL     1      40.976 -16.247   0.660  1.00  0.00     0.027 C 
HETATM   10  C   UNL     1      40.459 -17.242   1.714  1.00  0.00     0.035 C 
HETATM   11  C   UNL     1      41.189 -17.188   3.052  1.00  0.00     0.235 C 
HETATM   12  N   UNL     1      42.677 -17.320   2.869  1.00  0.00    -0.067 N 
HETATM   13  H   UNL     1      42.864 -18.280   2.546  1.00  0.00     0.280 HD
HETATM   14  C   UNL     1      43.264 -16.380   1.848  1.00  0.00     0.235 C 
HETATM   15  C   UNL     1      42.501 -16.461   0.534  1.00  0.00     0.035 C 
BRANCH  12  16
HETATM   16  C   UNL     1      43.428 -17.179   4.188  1.00  0.00     0.278 C 
BRANCH  16  17
HETATM   17  C   UNL     1      43.731 -18.463   4.855  1.00  0.00     0.034 A 
HETATM   18  C   UNL     1      43.563 -18.810   6.227  1.00  0.00     0.062 A 
HETATM   19  C   UNL     1      43.024 -17.982   7.338  1.00  0.00     0.073 C 
HETATM   20  N   UNL     1      43.939 -20.069   6.470  1.00  0.00    -0.176 NA
HETATM   21  N   UNL     1      44.410 -20.523   5.291  1.00  0.00    -0.262 N 
HETATM   22  C   UNL     1      44.988 -21.845   5.219  1.00  0.00     0.181 C 
HETATM   23  C   UNL     1      44.264 -19.602   4.299  1.00  0.00     0.131 A 
HETATM   24 CL   UNL     1      44.718 -19.942   2.697  1.00  0.00    -0.062 Cl
ENDBRANCH  16  17
ENDBRANCH  12  16
ENDBRANCH   1   9
BRANCH   1  25
HETATM   25  C   UNL     1      39.255 -14.557   1.739  1.00  0.00     0.080 C 
BRANCH  25  26
HETATM   26  C   UNL     1      39.348 -13.581   2.885  1.00  0.00    -0.052 A 
HETATM   27  C   UNL     1      39.906 -13.949   4.114  1.00  0.00     0.049 A 
HETATM   28  C   UNL     1      39.990 -13.018   5.148  1.00  0.00     0.116 A 
HETATM   29  F   UNL     1      40.522 -13.391   6.318  1.00  0.00    -0.206 F 
HETATM   30  C   UNL     1      39.536 -11.716   4.985  1.00  0.00     0.042 A 
HETATM   31  C   UNL     1      38.988 -11.335   3.763  1.00  0.00     0.003 A 
HETATM   32  C   UNL     1      38.896 -12.260   2.721  1.00  0.00     0.007 A 
ENDBRANCH  25  26
ENDBRANCH   1  25
BRANCH   5  33
HETATM   33  C   UNL     1      40.932 -11.833  -1.494  1.00  0.00     0.140 C 
BRANCH  33  34
HETATM   34  C   UNL     1      42.112 -11.788  -2.483  1.00  0.00    -0.004 C 
HETATM   35  C   UNL     1      43.079 -10.640  -2.197  1.00  0.00     0.011 C 
HETATM   36  C   UNL     1      42.867 -13.114  -2.564  1.00  0.00     0.011 C 
ENDBRANCH  33  34
ENDBRANCH   5  33
TORSDOF 7
ENDMDL
MODEL 8
REMARK VINA RESULT:      -8.1      3.992      6.804
REMARK  7 active torsions:
REMARK  status: ('A' for Active; 'I' for Inactive)
REMARK    1  A    between atoms: C_8  and  C_9 
REMARK    2  A    between atoms: C_9  and  N_10 
REMARK    3  A    between atoms: C_14  and  C_15 
REMARK    4  A    between atoms: C_15  and  C_16 
REMARK    5  A    between atoms: C_16  and  C_17 
REMARK    6  A    between atoms: N_27  and  C_28 
REMARK    7  A    between atoms: C_28  and  C_29 
ROOT
HETATM    1  C   UNL     1      41.681 -16.118   3.445  1.00  0.00     0.123 C 
HETATM    2  N   UNL     1      40.361 -15.520   3.292  1.00  0.00    -0.324 N 
HETATM    3  C   UNL     1      39.994 -15.445   1.962  1.00  0.00     0.326 C 
HETATM    4  O   UNL     1      38.856 -15.174   1.623  1.00  0.00    -0.247 OA
HETATM    5  N   UNL     1      41.072 -15.717   1.187  1.00  0.00    -0.268 N 
HETATM    6  C   UNL     1      42.142 -16.054   1.969  1.00  0.00     0.257 C 
HETATM    7  O   UNL     1      43.277 -16.278   1.578  1.00  0.00    -0.270 OA
HETATM    8  H   UNL     1      39.578 -15.710   3.910  1.00  0.00     0.165 HD
ENDROOT
BRANCH   1   9
HETATM    9  C   UNL     1      42.617 -15.273   4.372  1.00  0.00     0.027 C 
HETATM   10  C   UNL     1      42.069 -14.996   5.783  1.00  0.00     0.035 C 
HETATM   11  C   UNL     1      41.002 -13.909   5.849  1.00  0.00     0.235 C 
HETATM   12  N   UNL     1      41.472 -12.638   5.194  1.00  0.00    -0.067 N 
HETATM   13  H   UNL     1      42.228 -12.252   5.778  1.00  0.00     0.280 HD
HETATM   14  C   UNL     1      42.029 -12.825   3.806  1.00  0.00     0.235 C 
HETATM   15  C   UNL     1      43.083 -13.922   3.785  1.00  0.00     0.035 C 
BRANCH  12  16
HETATM   16  C   UNL     1      40.385 -11.571   5.172  1.00  0.00     0.278 C 
BRANCH  16  17
HETATM   17  C   UNL     1      40.521 -10.544   6.226  1.00  0.00     0.034 A 
HETATM   18  C   UNL     1      41.147  -9.267   6.143  1.00  0.00     0.062 A 
HETATM   19  C   UNL     1      41.807  -8.627   4.974  1.00  0.00     0.073 C 
HETATM   20  N   UNL     1      41.072  -8.600   7.299  1.00  0.00    -0.176 NA
HETATM   21  N   UNL     1      40.466  -9.452   8.150  1.00  0.00    -0.262 N 
HETATM   22  C   UNL     1      40.302  -9.076   9.536  1.00  0.00     0.181 C 
HETATM   23  C   UNL     1      40.091 -10.605   7.530  1.00  0.00     0.131 A 
HETATM   24 CL   UNL     1      39.247 -11.826   8.360  1.00  0.00    -0.062 Cl
ENDBRANCH  16  17
ENDBRANCH  12  16
ENDBRANCH   1   9
BRANCH   1  25
HETATM   25  C   UNL     1      41.488 -17.607   3.855  1.00  0.00     0.080 C 
BRANCH  25  26
HETATM   26  C   UNL     1      42.727 -18.424   4.124  1.00  0.00    -0.052 A 
HETATM   27  C   UNL     1      43.322 -19.198   3.123  1.00  0.00     0.049 A 
HETATM   28  C   UNL     1      44.474 -19.932   3.401  1.00  0.00     0.116 A 
HETATM   29  F   UNL     1      45.025 -20.671   2.430  1.00  0.00    -0.206 F 
HETATM   30  C   UNL     1      45.059 -19.906   4.659  1.00  0.00     0.042 A 
HETATM   31  C   UNL     1      44.482 -19.131   5.662  1.00  0.00     0.003 A 
HETATM   32  C   UNL     1      43.325 -18.395   5.396  1.00  0.00     0.007 A 
ENDBRANCH  25  26
ENDBRANCH   1  25
BRANCH   5  33
HETATM   33  C   UNL     1      41.068 -15.731  -0.267  1.00  0.00     0.140 C 
BRANCH  33  34
HETATM   34  C   UNL     1      40.919 -14.352  -0.937  1.00  0.00    -0.004 C 
HETATM   35  C   UNL     1      41.876 -13.310  -0.361  1.00  0.00     0.011 C 
HETATM   36  C   UNL     1      41.050 -14.415  -2.458  1.00  0.00     0.011 C 
ENDBRANCH  33  34
ENDBRANCH   5  33
TORSDOF 7
ENDMDL
MODEL 9
REMARK VINA RESULT:      -8.1      3.544      6.255
REMARK  7 active torsions:
REMARK  status: ('A' for Active; 'I' for Inactive)
REMARK    1  A    between atoms: C_8  and  C_9 
REMARK    2  A    between atoms: C_9  and  N_10 
REMARK    3  A    between atoms: C_14  and  C_15 
REMARK    4  A    between atoms: C_15  and  C_16 
REMARK    5  A    between atoms: C_16  and  C_17 
REMARK    6  A    between atoms: N_27  and  C_28 
REMARK    7  A    between atoms: C_28  and  C_29 
ROOT
HETATM    1  C   UNL     1      41.553 -16.202   3.271  1.00  0.00     0.123 C 
HETATM    2  N   UNL     1      40.227 -15.598   3.276  1.00  0.00    -0.324 N 
HETATM    3  C   UNL     1      39.837 -15.229   2.002  1.00  0.00     0.326 C 
HETATM    4  O   UNL     1      38.692 -14.900   1.750  1.00  0.00    -0.247 OA
HETATM    5  N   UNL     1      40.904 -15.308   1.170  1.00  0.00    -0.268 N 
HETATM    6  C   UNL     1      41.989 -15.801   1.840  1.00  0.00     0.257 C 
HETATM    7  O   UNL     1      43.119 -15.920   1.392  1.00  0.00    -0.270 OA
HETATM    8  H   UNL     1      39.455 -15.932   3.846  1.00  0.00     0.165 HD
ENDROOT
BRANCH   1   9
HETATM    9  C   UNL     1      42.498 -15.579   4.350  1.00  0.00     0.027 C 
HETATM   10  C   UNL     1      41.918 -15.516   5.775  1.00  0.00     0.035 C 
HETATM   11  C   UNL     1      40.904 -14.400   6.000  1.00  0.00     0.235 C 
HETATM   12  N   UNL     1      41.457 -13.064   5.584  1.00  0.00    -0.067 N 
HETATM   13  H   UNL     1      42.211 -12.823   6.243  1.00  0.00     0.280 HD
HETATM   14  C   UNL     1      42.049 -13.042   4.198  1.00  0.00     0.235 C 
HETATM   15  C   UNL     1      43.048 -14.174   4.015  1.00  0.00     0.035 C 
BRANCH  12  16
HETATM   16  C   UNL     1      40.425 -11.952   5.719  1.00  0.00     0.278 C 
BRANCH  16  17
HETATM   17  C   UNL     1      41.002 -10.594   5.805  1.00  0.00     0.034 A 
HETATM   18  C   UNL     1      41.520  -9.922   6.950  1.00  0.00     0.062 A 
HETATM   19  C   UNL     1      41.631 -10.414   8.349  1.00  0.00     0.073 C 
HETATM   20  N   UNL     1      41.968  -8.699   6.649  1.00  0.00    -0.176 NA
HETATM   21  N   UNL     1      41.689  -8.542   5.339  1.00  0.00    -0.262 N 
HETATM   22  C   UNL     1      41.967  -7.276   4.700  1.00  0.00     0.181 C 
HETATM   23  C   UNL     1      41.148  -9.669   4.798  1.00  0.00     0.131 A 
HETATM   24 CL   UNL     1      40.762  -9.764   3.146  1.00  0.00    -0.062 Cl
ENDBRANCH  16  17
ENDBRANCH  12  16
ENDBRANCH   1   9
BRANCH   1  25
HETATM   25  C   UNL     1      41.377 -17.747   3.337  1.00  0.00     0.080 C 
BRANCH  25  26
HETATM   26  C   UNL     1      42.614 -18.583   3.541  1.00  0.00    -0.052 A 
HETATM   27  C   UNL     1      43.159 -18.783   4.814  1.00  0.00     0.049 A 
HETATM   28  C   UNL     1      44.297 -19.573   4.969  1.00  0.00     0.116 A 
HETATM   29  F   UNL     1      44.806 -19.747   6.195  1.00  0.00    -0.206 F 
HETATM   30  C   UNL     1      44.906 -20.182   3.881  1.00  0.00     0.042 A 
HETATM   31  C   UNL     1      44.368 -19.999   2.610  1.00  0.00     0.003 A 
HETATM   32  C   UNL     1      43.230 -19.207   2.441  1.00  0.00     0.007 A 
ENDBRANCH  25  26
ENDBRANCH   1  25
BRANCH   5  33
HETATM   33  C   UNL     1      40.877 -14.993  -0.249  1.00  0.00     0.140 C 
BRANCH  33  34
HETATM   34  C   UNL     1      41.202 -13.530  -0.604  1.00  0.00    -0.004 C 
HETATM   35  C   UNL     1      42.025 -13.404  -1.885  1.00  0.00     0.011 C 
HETATM   36  C   UNL     1      39.957 -12.649  -0.681  1.00  0.00     0.011 C 
ENDBRANCH  33  34
ENDBRANCH   5  33
TORSDOF 7
ENDMDL
MODEL 10
REMARK VINA RESULT:      -8.0      2.720      5.144
REMARK  7 active torsions:
REMARK  status: ('A' for Active; 'I' for Inactive)
REMARK    1  A    between atoms: C_8  and  C_9 
REMARK    2  A    between atoms: C_9  and  N_10 
REMARK    3  A    between atoms: C_14  and  C_15 
REMARK    4  A    between atoms: C_15  and  C_16 
REMARK    5  A    between atoms: C_16  and  C_17 
REMARK    6  A    between atoms: N_27  and  C_28 
REMARK    7  A    between atoms: C_28  and  C_29 
ROOT
HETATM    1  C   UNL     1      42.460 -17.137   2.484  1.00  0.00     0.123 C 
HETATM    2  N   UNL     1      42.048 -17.509   3.831  1.00  0.00    -0.324 N 
HETATM    3  C   UNL     1      42.860 -18.499   4.351  1.00  0.00     0.326 C 
HETATM    4  O   UNL     1      42.824 -18.808   5.528  1.00  0.00    -0.247 OA
HETATM    5  N   UNL     1      43.638 -19.001   3.361  1.00  0.00    -0.268 N 
HETATM    6  C   UNL     1      43.424 -18.315   2.198  1.00  0.00     0.257 C 
HETATM    7  O   UNL     1      43.912 -18.573   1.109  1.00  0.00    -0.270 OA
HETATM    8  H   UNL     1      41.734 -16.843   4.531  1.00  0.00     0.165 HD
ENDROOT
BRANCH   1   9
HETATM    9  C   UNL     1      41.265 -17.119   1.474  1.00  0.00     0.027 C 
HETATM   10  C   UNL     1      41.562 -16.460   0.115  1.00  0.00     0.035 C 
HETATM   11  C   UNL     1      41.582 -14.936   0.138  1.00  0.00     0.235 C 
HETATM   12  N   UNL     1      40.320 -14.381   0.743  1.00  0.00    -0.067 N 
HETATM   13  H   UNL     1      39.549 -14.589   0.093  1.00  0.00     0.280 HD
HETATM   14  C   UNL     1      39.957 -14.978   2.078  1.00  0.00     0.235 C 
HETATM   15  C   UNL     1      39.957 -16.498   2.011  1.00  0.00     0.035 C 
BRANCH  12  16
HETATM   16  C   UNL     1      40.362 -12.862   0.855  1.00  0.00     0.278 C 
BRANCH  16  17
HETATM   17  C   UNL     1      39.043 -12.231   1.071  1.00  0.00     0.034 A 
HETATM   18  C   UNL     1      38.581 -11.510   2.210  1.00  0.00     0.062 A 
HETATM   19  C   UNL     1      39.308 -11.187   3.466  1.00  0.00     0.073 C 
HETATM   20  N   UNL     1      37.328 -11.076   2.048  1.00  0.00    -0.176 NA
HETATM   21  N   UNL     1      36.946 -11.561   0.850  1.00  0.00    -0.262 N 
HETATM   22  C   UNL     1      35.590 -11.349   0.396  1.00  0.00     0.181 C 
HETATM   23  C   UNL     1      37.959 -12.222   0.225  1.00  0.00     0.131 A 
HETATM   24 CL   UNL     1      37.766 -12.878  -1.331  1.00  0.00    -0.062 Cl
ENDBRANCH  16  17
ENDBRANCH  12  16
ENDBRANCH   1   9
BRANCH   1  25
HETATM   25  C   UNL     1      43.282 -15.818   2.582  1.00  0.00     0.080 C 
BRANCH  25  26
HETATM   26  C   UNL     1      43.146 -15.002   3.842  1.00  0.00    -0.052 A 
HETATM   27  C   UNL     1      43.898 -15.292   4.985  1.00  0.00     0.049 A 
HETATM   28  C   UNL     1      43.758 -14.509   6.130  1.00  0.00     0.116 A 
HETATM   29  F   UNL     1      44.482 -14.807   7.216  1.00  0.00    -0.206 F 
HETATM   30  C   UNL     1      42.886 -13.430   6.162  1.00  0.00     0.042 A 
HETATM   31  C   UNL     1      42.139 -13.124   5.028  1.00  0.00     0.003 A 
HETATM   32  C   UNL     1      42.269 -13.904   3.876  1.00  0.00     0.007 A 
ENDBRANCH  25  26
ENDBRANCH   1  25
BRANCH   5  33
HETATM   33  C   UNL     1      44.618 -20.061   3.531  1.00  0.00     0.140 C 
BRANCH  33  34
HETATM   34  C   UNL     1      44.111 -21.482   3.222  1.00  0.00    -0.004 C 
HETATM   35  C   UNL     1      44.396 -21.910   1.783  1.00  0.00     0.011 C 
HETATM   36  C   UNL     1      44.639 -22.526   4.203  1.00  0.00     0.011 C 
ENDBRANCH  33  34
ENDBRANCH   5  33
TORSDOF 7
ENDMDL
