MODEL 1
REMARK VINA RESULT:      -8.8      0.000      0.000
REMARK  6 active torsions:
REMARK  status: ('A' for Active; 'I' for Inactive)
REMARK    1  A    between atoms: N_6  and  C_7 
REMARK    2  A    between atoms: C_10  and  N_11 
REMARK    3  A    between atoms: N_11  and  C_12 
REMARK    4  A    between atoms: C_12  and  N_13 
REMARK       I    between atoms: N_13  and  C_14 
REMARK    5  A    between atoms: C_14  and  C_15 
REMARK    6  A    between atoms: C_16  and  O_17 
ROOT
HETATM    1  C   UNL     1      43.750 -14.254   6.609  1.00  0.00     0.179 C 
HETATM    2  S   UNL     1      45.129 -13.607   7.299  1.00  0.00    -0.040 SA
ENDROOT
BRANCH   1   3
HETATM    3  N   UNL     1      42.610 -13.521   6.604  1.00  0.00    -0.333 N 
HETATM    4  H   UNL     1      42.230 -13.331   7.525  1.00  0.00     0.168 HD
BRANCH   3   5
HETATM    5  C   UNL     1      41.802 -13.142   5.517  1.00  0.00     0.034 C 
HETATM    6  C   UNL     1      42.419 -12.720   4.342  1.00  0.00     0.032 C 
HETATM    7  C   UNL     1      41.653 -12.448   3.196  1.00  0.00     0.031 C 
HETATM    8  C   UNL     1      40.260 -12.597   3.201  1.00  0.00     0.030 C 
HETATM    9  C   UNL     1      39.659 -12.872   4.438  1.00  0.00     0.031 C 
HETATM   10  C   UNL     1      40.415 -13.137   5.580  1.00  0.00     0.032 C 
BRANCH   8  11
HETATM   11  N   UNL     1      39.453 -12.509   2.059  1.00  0.00    -0.378 N 
HETATM   12  C   UNL     1      38.797 -13.792   1.698  1.00  0.00     0.150 C 
HETATM   13  C   UNL     1      39.721 -14.641   0.799  1.00  0.00     0.254 C 
HETATM   14  N   UNL     1      40.086 -13.846  -0.458  1.00  0.00    -0.072 N 
HETATM   15  C   UNL     1      40.918 -14.651  -1.408  1.00  0.00     0.269 C 
HETATM   16  H   UNL     1      39.202 -13.616  -0.931  1.00  0.00     0.279 HD
HETATM   17  C   UNL     1      40.757 -12.524  -0.089  1.00  0.00     0.254 C 
HETATM   18  C   UNL     1      39.888 -11.711   0.899  1.00  0.00     0.150 C 
ENDBRANCH   8  11
ENDBRANCH   3   5
ENDBRANCH   1   3
BRANCH   1  19
HETATM   19  N   UNL     1      43.842 -15.484   6.020  1.00  0.00    -0.299 N 
HETATM   20  C   UNL     1      43.182 -16.669   6.338  1.00  0.00     0.260 C 
HETATM   21  O   UNL     1      42.401 -16.880   7.258  1.00  0.00    -0.267 OA
HETATM   22  H   UNL     1      44.197 -15.428   5.072  1.00  0.00     0.171 HD
BRANCH  20  23
HETATM   23  C   UNL     1      43.396 -17.749   5.358  1.00  0.00     0.068 A 
HETATM   24  C   UNL     1      43.229 -17.539   3.990  1.00  0.00     0.102 A 
HETATM   25  C   UNL     1      43.581 -18.564   3.092  1.00  0.00     0.056 A 
HETATM   26 BR   UNL     1      43.526 -18.200   1.209  1.00  0.00    -0.047 Br
HETATM   27  C   UNL     1      44.018 -19.836   3.565  1.00  0.00    -0.006 A 
HETATM   28  C   UNL     1      44.134 -20.028   4.968  1.00  0.00    -0.024 A 
HETATM   29  C   UNL     1      44.355 -20.937   2.737  1.00  0.00     0.014 A 
HETATM   30  C   UNL     1      43.839 -18.980   5.846  1.00  0.00     0.032 A 
HETATM   31  C   UNL     1      44.562 -21.261   5.485  1.00  0.00     0.012 A 
HETATM   32  C   UNL     1      44.878 -22.321   4.640  1.00  0.00     0.001 A 
HETATM   33  C   UNL     1      44.776 -22.159   3.265  1.00  0.00     0.001 A 
BRANCH  24  34
HETATM   34  O   UNL     1      42.795 -16.311   3.558  1.00  0.00    -0.353 OA
HETATM   35  C   UNL     1      41.367 -16.251   3.475  1.00  0.00     0.210 C 
ENDBRANCH  24  34
ENDBRANCH  20  23
ENDBRANCH   1  19
TORSDOF 6
ENDMDL
MODEL 2
REMARK VINA RESULT:      -8.7      2.646      4.200
REMARK  6 active torsions:
REMARK  status: ('A' for Active; 'I' for Inactive)
REMARK    1  A    between atoms: N_6  and  C_7 
REMARK    2  A    between atoms: C_10  and  N_11 
REMARK    3  A    between atoms: N_11  and  C_12 
REMARK    4  A    between atoms: C_12  and  N_13 
REMARK       I    between atoms: N_13  and  C_14 
REMARK    5  A    between atoms: C_14  and  C_15 
REMARK    6  A    between atoms: C_16  and  O_17 
ROOT
HETATM    1  C   UNL     1      40.532 -14.838   3.878  1.00  0.00     0.179 C 
HETATM    2  S   UNL     1      40.965 -13.464   4.726  1.00  0.00    -0.040 SA
ENDROOT
BRANCH   1   3
HETATM    3  N   UNL     1      39.466 -14.789   3.043  1.00  0.00    -0.333 N 
HETATM    4  H   UNL     1      38.579 -15.013   3.482  1.00  0.00     0.168 HD
BRANCH   3   5
HETATM    5  C   UNL     1      39.439 -14.644   1.644  1.00  0.00     0.034 C 
HETATM    6  C   UNL     1      38.260 -14.216   1.040  1.00  0.00     0.032 C 
HETATM    7  C   UNL     1      38.225 -13.943  -0.337  1.00  0.00     0.031 C 
HETATM    8  C   UNL     1      39.367 -14.087  -1.135  1.00  0.00     0.030 C 
HETATM    9  C   UNL     1      40.491 -14.666  -0.529  1.00  0.00     0.031 C 
HETATM   10  C   UNL     1      40.529 -14.944   0.838  1.00  0.00     0.032 C 
BRANCH   8  11
HETATM   11  N   UNL     1      39.453 -13.675  -2.472  1.00  0.00    -0.378 N 
HETATM   12  C   UNL     1      38.632 -12.475  -2.775  1.00  0.00     0.150 C 
HETATM   13  C   UNL     1      37.191 -12.883  -3.146  1.00  0.00     0.254 C 
HETATM   14  N   UNL     1      37.219 -13.836  -4.345  1.00  0.00    -0.072 N 
HETATM   15  C   UNL     1      35.842 -14.203  -4.802  1.00  0.00     0.269 C 
HETATM   16  H   UNL     1      37.683 -13.333  -5.113  1.00  0.00     0.279 HD
HETATM   17  C   UNL     1      38.068 -15.069  -4.037  1.00  0.00     0.254 C 
HETATM   18  C   UNL     1      39.483 -14.671  -3.558  1.00  0.00     0.150 C 
ENDBRANCH   8  11
ENDBRANCH   3   5
ENDBRANCH   1   3
BRANCH   1  19
HETATM   19  N   UNL     1      41.312 -15.952   4.018  1.00  0.00    -0.299 N 
HETATM   20  C   UNL     1      42.617 -16.180   3.586  1.00  0.00     0.260 C 
HETATM   21  O   UNL     1      43.341 -15.438   2.936  1.00  0.00    -0.267 OA
HETATM   22  H   UNL     1      41.000 -16.543   4.780  1.00  0.00     0.171 HD
BRANCH  20  23
HETATM   23  C   UNL     1      43.196 -17.440   4.085  1.00  0.00     0.068 A 
HETATM   24  C   UNL     1      43.417 -17.655   5.446  1.00  0.00     0.102 A 
HETATM   25  C   UNL     1      43.840 -18.925   5.878  1.00  0.00     0.056 A 
HETATM   26 BR   UNL     1      43.959 -19.267   7.762  1.00  0.00    -0.047 Br
HETATM   27  C   UNL     1      44.132 -19.960   4.941  1.00  0.00    -0.006 A 
HETATM   28  C   UNL     1      43.937 -19.690   3.560  1.00  0.00    -0.024 A 
HETATM   29  C   UNL     1      44.600 -21.254   5.283  1.00  0.00     0.014 A 
HETATM   30  C   UNL     1      43.457 -18.442   3.149  1.00  0.00     0.032 A 
HETATM   31  C   UNL     1      44.207 -20.676   2.597  1.00  0.00     0.012 A 
HETATM   32  C   UNL     1      44.672 -21.934   2.971  1.00  0.00     0.001 A 
HETATM   33  C   UNL     1      44.867 -22.224   4.313  1.00  0.00     0.001 A 
BRANCH  24  34
HETATM   34  O   UNL     1      43.141 -16.641   6.329  1.00  0.00    -0.353 OA
HETATM   35  C   UNL     1      44.313 -15.880   6.645  1.00  0.00     0.210 C 
ENDBRANCH  24  34
ENDBRANCH  20  23
ENDBRANCH   1  19
TORSDOF 6
ENDMDL
MODEL 3
REMARK VINA RESULT:      -8.7      2.519      4.117
REMARK  6 active torsions:
REMARK  status: ('A' for Active; 'I' for Inactive)
REMARK    1  A    between atoms: N_6  and  C_7 
REMARK    2  A    between atoms: C_10  and  N_11 
REMARK    3  A    between atoms: N_11  and  C_12 
REMARK    4  A    between atoms: C_12  and  N_13 
REMARK       I    between atoms: N_13  and  C_14 
REMARK    5  A    between atoms: C_14  and  C_15 
REMARK    6  A    between atoms: C_16  and  O_17 
ROOT
HETATM    1  C   UNL     1      40.530 -15.018   3.629  1.00  0.00     0.179 C 
HETATM    2  S   UNL     1      40.989 -13.618   4.420  1.00  0.00    -0.040 SA
ENDROOT
BRANCH   1   3
HETATM    3  N   UNL     1      39.442 -14.991   2.821  1.00  0.00    -0.333 N 
HETATM    4  H   UNL     1      38.607 -15.397   3.230  1.00  0.00     0.168 HD
BRANCH   3   5
HETATM    5  C   UNL     1      39.354 -14.646   1.460  1.00  0.00     0.034 C 
HETATM    6  C   UNL     1      40.452 -14.885   0.638  1.00  0.00     0.032 C 
HETATM    7  C   UNL     1      40.364 -14.666  -0.746  1.00  0.00     0.031 C 
HETATM    8  C   UNL     1      39.177 -14.212  -1.336  1.00  0.00     0.030 C 
HETATM    9  C   UNL     1      38.144 -13.835  -0.465  1.00  0.00     0.031 C 
HETATM   10  C   UNL     1      38.230 -14.044   0.912  1.00  0.00     0.032 C 
BRANCH   8  11
HETATM   11  N   UNL     1      38.962 -14.134  -2.719  1.00  0.00    -0.378 N 
HETATM   12  C   UNL     1      40.217 -14.157  -3.514  1.00  0.00     0.150 C 
HETATM   13  C   UNL     1      40.787 -12.731  -3.670  1.00  0.00     0.254 C 
HETATM   14  N   UNL     1      39.742 -11.829  -4.333  1.00  0.00    -0.072 N 
HETATM   15  C   UNL     1      40.269 -10.451  -4.584  1.00  0.00     0.269 C 
HETATM   16  H   UNL     1      39.520 -12.252  -5.243  1.00  0.00     0.279 HD
HETATM   17  C   UNL     1      38.448 -11.809  -3.519  1.00  0.00     0.254 C 
HETATM   18  C   UNL     1      37.924 -13.240  -3.262  1.00  0.00     0.150 C 
ENDBRANCH   8  11
ENDBRANCH   3   5
ENDBRANCH   1   3
BRANCH   1  19
HETATM   19  N   UNL     1      41.310 -16.130   3.784  1.00  0.00    -0.299 N 
HETATM   20  C   UNL     1      42.618 -16.360   3.362  1.00  0.00     0.260 C 
HETATM   21  O   UNL     1      43.346 -15.622   2.711  1.00  0.00    -0.267 OA
HETATM   22  H   UNL     1      40.993 -16.714   4.549  1.00  0.00     0.171 HD
BRANCH  20  23
HETATM   23  C   UNL     1      43.195 -17.615   3.877  1.00  0.00     0.068 A 
HETATM   24  C   UNL     1      43.395 -17.822   5.241  1.00  0.00     0.102 A 
HETATM   25  C   UNL     1      43.818 -19.089   5.686  1.00  0.00     0.056 A 
HETATM   26 BR   UNL     1      43.909 -19.421   7.573  1.00  0.00    -0.047 Br
HETATM   27  C   UNL     1      44.128 -20.127   4.758  1.00  0.00    -0.006 A 
HETATM   28  C   UNL     1      43.955 -19.864   3.373  1.00  0.00    -0.024 A 
HETATM   29  C   UNL     1      44.597 -21.417   5.114  1.00  0.00     0.014 A 
HETATM   30  C   UNL     1      43.475 -18.620   2.950  1.00  0.00     0.032 A 
HETATM   31  C   UNL     1      44.244 -20.853   2.420  1.00  0.00     0.012 A 
HETATM   32  C   UNL     1      44.709 -22.107   2.806  1.00  0.00     0.001 A 
HETATM   33  C   UNL     1      44.884 -22.390   4.154  1.00  0.00     0.001 A 
BRANCH  24  34
HETATM   34  O   UNL     1      43.101 -16.805   6.115  1.00  0.00    -0.353 OA
HETATM   35  C   UNL     1      44.269 -16.056   6.469  1.00  0.00     0.210 C 
ENDBRANCH  24  34
ENDBRANCH  20  23
ENDBRANCH   1  19
TORSDOF 6
ENDMDL
MODEL 4
REMARK VINA RESULT:      -8.3      3.166      5.120
REMARK  6 active torsions:
REMARK  status: ('A' for Active; 'I' for Inactive)
REMARK    1  A    between atoms: N_6  and  C_7 
REMARK    2  A    between atoms: C_10  and  N_11 
REMARK    3  A    between atoms: N_11  and  C_12 
REMARK    4  A    between atoms: C_12  and  N_13 
REMARK       I    between atoms: N_13  and  C_14 
REMARK    5  A    between atoms: C_14  and  C_15 
REMARK    6  A    between atoms: C_16  and  O_17 
ROOT
HETATM    1  C   UNL     1      40.605 -16.153   1.185  1.00  0.00     0.179 C 
HETATM    2  S   UNL     1      39.590 -15.240   2.151  1.00  0.00    -0.040 SA
ENDROOT
BRANCH   1   3
HETATM    3  N   UNL     1      40.610 -15.939  -0.153  1.00  0.00    -0.333 N 
HETATM    4  H   UNL     1      40.422 -16.766  -0.710  1.00  0.00     0.168 HD
BRANCH   3   5
HETATM    5  C   UNL     1      41.001 -14.793  -0.869  1.00  0.00     0.034 C 
HETATM    6  C   UNL     1      41.671 -13.779  -0.190  1.00  0.00     0.032 C 
HETATM    7  C   UNL     1      42.184 -12.675  -0.890  1.00  0.00     0.031 C 
HETATM    8  C   UNL     1      42.043 -12.565  -2.279  1.00  0.00     0.030 C 
HETATM    9  C   UNL     1      41.231 -13.521  -2.908  1.00  0.00     0.031 C 
HETATM   10  C   UNL     1      40.715 -14.617  -2.215  1.00  0.00     0.032 C 
BRANCH   8  11
HETATM   11  N   UNL     1      42.669 -11.586  -3.062  1.00  0.00    -0.378 N 
HETATM   12  C   UNL     1      42.910 -10.313  -2.335  1.00  0.00     0.150 C 
HETATM   13  C   UNL     1      41.677  -9.391  -2.430  1.00  0.00     0.254 C 
HETATM   14  N   UNL     1      41.350  -9.121  -3.902  1.00  0.00    -0.072 N 
HETATM   15  C   UNL     1      40.209  -8.164  -4.057  1.00  0.00     0.269 C 
HETATM   16  H   UNL     1      42.185  -8.685  -4.316  1.00  0.00     0.279 HD
HETATM   17  C   UNL     1      41.107 -10.430  -4.653  1.00  0.00     0.254 C 
HETATM   18  C   UNL     1      42.291 -11.407  -4.475  1.00  0.00     0.150 C 
ENDBRANCH   8  11
ENDBRANCH   3   5
ENDBRANCH   1   3
BRANCH   1  19
HETATM   19  N   UNL     1      41.440 -17.047   1.795  1.00  0.00    -0.299 N 
HETATM   20  C   UNL     1      42.815 -17.217   1.648  1.00  0.00     0.260 C 
HETATM   21  O   UNL     1      43.577 -16.623   0.896  1.00  0.00    -0.267 OA
HETATM   22  H   UNL     1      41.050 -17.406   2.658  1.00  0.00     0.171 HD
BRANCH  20  23
HETATM   23  C   UNL     1      43.403 -18.163   2.614  1.00  0.00     0.068 A 
HETATM   24  C   UNL     1      43.704 -17.781   3.921  1.00  0.00     0.102 A 
HETATM   25  C   UNL     1      44.132 -18.760   4.838  1.00  0.00     0.056 A 
HETATM   26 BR   UNL     1      44.361 -18.263   6.677  1.00  0.00    -0.047 Br
HETATM   27  C   UNL     1      44.346 -20.108   4.426  1.00  0.00    -0.006 A 
HETATM   28  C   UNL     1      44.071 -20.450   3.075  1.00  0.00    -0.024 A 
HETATM   29  C   UNL     1      44.812 -21.149   5.270  1.00  0.00     0.014 A 
HETATM   30  C   UNL     1      43.588 -19.480   2.190  1.00  0.00     0.032 A 
HETATM   31  C   UNL     1      44.264 -21.764   2.620  1.00  0.00     0.012 A 
HETATM   32  C   UNL     1      44.729 -22.758   3.476  1.00  0.00     0.001 A 
HETATM   33  C   UNL     1      45.003 -22.451   4.802  1.00  0.00     0.001 A 
BRANCH  24  34
HETATM   34  O   UNL     1      43.501 -16.476   4.292  1.00  0.00    -0.353 OA
HETATM   35  C   UNL     1      42.255 -16.307   4.978  1.00  0.00     0.210 C 
ENDBRANCH  24  34
ENDBRANCH  20  23
ENDBRANCH   1  19
TORSDOF 6
ENDMDL
MODEL 5
REMARK VINA RESULT:      -8.2      3.298      5.661
REMARK  6 active torsions:
REMARK  status: ('A' for Active; 'I' for Inactive)
REMARK    1  A    between atoms: N_6  and  C_7 
REMARK    2  A    between atoms: C_10  and  N_11 
REMARK    3  A    between atoms: N_11  and  C_12 
REMARK    4  A    between atoms: C_12  and  N_13 
REMARK       I    between atoms: N_13  and  C_14 
REMARK    5  A    between atoms: C_14  and  C_15 
REMARK    6  A    between atoms: C_16  and  O_17 
ROOT
HETATM    1  C   UNL     1      40.368 -14.131   2.722  1.00  0.00     0.179 C 
HETATM    2  S   UNL     1      39.012 -14.561   1.844  1.00  0.00    -0.040 SA
ENDROOT
BRANCH   1   3
HETATM    3  N   UNL     1      40.570 -12.826   3.026  1.00  0.00    -0.333 N 
HETATM    4  H   UNL     1      40.938 -12.269   2.261  1.00  0.00     0.168 HD
BRANCH   3   5
HETATM    5  C   UNL     1      40.505 -12.184   4.276  1.00  0.00     0.034 C 
HETATM    6  C   UNL     1      41.356 -11.109   4.519  1.00  0.00     0.032 C 
HETATM    7  C   UNL     1      41.241 -10.366   5.705  1.00  0.00     0.031 C 
HETATM    8  C   UNL     1      40.272 -10.678   6.667  1.00  0.00     0.030 C 
HETATM    9  C   UNL     1      39.539 -11.856   6.464  1.00  0.00     0.031 C 
HETATM   10  C   UNL     1      39.654 -12.601   5.289  1.00  0.00     0.032 C 
BRANCH   8  11
HETATM   11  N   UNL     1      39.988  -9.886   7.788  1.00  0.00    -0.378 N 
HETATM   12  C   UNL     1      41.149  -9.087   8.256  1.00  0.00     0.150 C 
HETATM   13  C   UNL     1      42.012  -9.907   9.238  1.00  0.00     0.254 C 
HETATM   14  N   UNL     1      41.153 -10.360  10.422  1.00  0.00    -0.072 N 
HETATM   15  C   UNL     1      41.958 -11.093  11.450  1.00  0.00     0.269 C 
HETATM   16  H   UNL     1      40.781  -9.508  10.862  1.00  0.00     0.279 HD
HETATM   17  C   UNL     1      39.955 -11.179   9.941  1.00  0.00     0.254 C 
HETATM   18  C   UNL     1      39.142 -10.409   8.875  1.00  0.00     0.150 C 
ENDBRANCH   8  11
ENDBRANCH   3   5
ENDBRANCH   1   3
BRANCH   1  19
HETATM   19  N   UNL     1      41.199 -15.127   3.151  1.00  0.00    -0.299 N 
HETATM   20  C   UNL     1      42.591 -15.152   3.221  1.00  0.00     0.260 C 
HETATM   21  O   UNL     1      43.384 -14.291   2.863  1.00  0.00    -0.267 OA
HETATM   22  H   UNL     1      40.725 -15.784   3.760  1.00  0.00     0.171 HD
BRANCH  20  23
HETATM   23  C   UNL     1      43.129 -16.335   3.917  1.00  0.00     0.068 A 
HETATM   24  C   UNL     1      43.216 -16.388   5.308  1.00  0.00     0.102 A 
HETATM   25  C   UNL     1      43.606 -17.593   5.923  1.00  0.00     0.056 A 
HETATM   26 BR   UNL     1      43.540 -17.715   7.836  1.00  0.00    -0.047 Br
HETATM   27  C   UNL     1      43.999 -18.721   5.144  1.00  0.00    -0.006 A 
HETATM   28  C   UNL     1      43.940 -18.614   3.729  1.00  0.00    -0.024 A 
HETATM   29  C   UNL     1      44.443 -19.958   5.677  1.00  0.00     0.014 A 
HETATM   30  C   UNL     1      43.492 -17.431   3.132  1.00  0.00     0.032 A 
HETATM   31  C   UNL     1      44.314 -19.697   2.917  1.00  0.00     0.012 A 
HETATM   32  C   UNL     1      44.752 -20.894   3.477  1.00  0.00     0.001 A 
HETATM   33  C   UNL     1      44.815 -21.026   4.857  1.00  0.00     0.001 A 
BRANCH  24  34
HETATM   34  O   UNL     1      42.844 -15.287   6.037  1.00  0.00    -0.353 OA
HETATM   35  C   UNL     1      43.969 -14.462   6.361  1.00  0.00     0.210 C 
ENDBRANCH  24  34
ENDBRANCH  20  23
ENDBRANCH   1  19
TORSDOF 6
ENDMDL
MODEL 6
REMARK VINA RESULT:      -8.0      2.699      4.370
REMARK  6 active torsions:
REMARK  status: ('A' for Active; 'I' for Inactive)
REMARK    1  A    between atoms: N_6  and  C_7 
REMARK    2  A    between atoms: C_10  and  N_11 
REMARK    3  A    between atoms: N_11  and  C_12 
REMARK    4  A    between atoms: C_12  and  N_13 
REMARK       I    between atoms: N_13  and  C_14 
REMARK    5  A    between atoms: C_14  and  C_15 
REMARK    6  A    between atoms: C_16  and  O_17 
ROOT
HETATM    1  C   UNL     1      39.829 -15.126   2.959  1.00  0.00     0.179 C 
HETATM    2  S   UNL     1      39.967 -13.824   3.998  1.00  0.00    -0.040 SA
ENDROOT
BRANCH   1   3
HETATM    3  N   UNL     1      38.852 -15.119   2.020  1.00  0.00    -0.333 N 
HETATM    4  H   UNL     1      38.154 -15.847   2.136  1.00  0.00     0.168 HD
BRANCH   3   5
HETATM    5  C   UNL     1      38.765 -14.370   0.832  1.00  0.00     0.034 C 
HETATM    6  C   UNL     1      37.622 -13.608   0.607  1.00  0.00     0.032 C 
HETATM    7  C   UNL     1      37.546 -12.753  -0.506  1.00  0.00     0.031 C 
HETATM    8  C   UNL     1      38.611 -12.640  -1.409  1.00  0.00     0.030 C 
HETATM    9  C   UNL     1      39.679 -13.533  -1.239  1.00  0.00     0.031 C 
HETATM   10  C   UNL     1      39.756 -14.388  -0.139  1.00  0.00     0.032 C 
BRANCH   8  11
HETATM   11  N   UNL     1      38.676 -11.692  -2.438  1.00  0.00    -0.378 N 
HETATM   12  C   UNL     1      39.433 -12.161  -3.628  1.00  0.00     0.150 C 
HETATM   13  C   UNL     1      40.939 -11.868  -3.463  1.00  0.00     0.254 C 
HETATM   14  N   UNL     1      41.149 -10.366  -3.243  1.00  0.00    -0.072 N 
HETATM   15  C   UNL     1      42.601 -10.011  -3.157  1.00  0.00     0.269 C 
HETATM   16  H   UNL     1      40.757  -9.889  -4.065  1.00  0.00     0.279 HD
HETATM   17  C   UNL     1      40.367  -9.881  -2.023  1.00  0.00     0.254 C 
HETATM   18  C   UNL     1      38.873 -10.265  -2.126  1.00  0.00     0.150 C 
ENDBRANCH   8  11
ENDBRANCH   3   5
ENDBRANCH   1   3
BRANCH   1  19
HETATM   19  N   UNL     1      40.751 -16.130   3.060  1.00  0.00    -0.299 N 
HETATM   20  C   UNL     1      41.987 -16.265   2.430  1.00  0.00     0.260 C 
HETATM   21  O   UNL     1      42.501 -15.524   1.602  1.00  0.00    -0.267 OA
HETATM   22  H   UNL     1      40.641 -16.665   3.913  1.00  0.00     0.171 HD
BRANCH  20  23
HETATM   23  C   UNL     1      42.788 -17.396   2.932  1.00  0.00     0.068 A 
HETATM   24  C   UNL     1      43.437 -17.342   4.165  1.00  0.00     0.102 A 
HETATM   25  C   UNL     1      44.071 -18.499   4.656  1.00  0.00     0.056 A 
HETATM   26 BR   UNL     1      44.796 -18.471   6.431  1.00  0.00    -0.047 Br
HETATM   27  C   UNL     1      44.135 -19.689   3.872  1.00  0.00    -0.006 A 
HETATM   28  C   UNL     1      43.501 -19.692   2.601  1.00  0.00    -0.024 A 
HETATM   29  C   UNL     1      44.785 -20.886   4.268  1.00  0.00     0.014 A 
HETATM   30  C   UNL     1      42.822 -18.554   2.153  1.00  0.00     0.032 A 
HETATM   31  C   UNL     1      43.533 -20.839   1.792  1.00  0.00     0.012 A 
HETATM   32  C   UNL     1      44.187 -21.994   2.213  1.00  0.00     0.001 A 
HETATM   33  C   UNL     1      44.812 -22.018   3.451  1.00  0.00     0.001 A 
BRANCH  24  34
HETATM   34  O   UNL     1      43.372 -16.183   4.897  1.00  0.00    -0.353 OA
HETATM   35  C   UNL     1      42.418 -16.279   5.960  1.00  0.00     0.210 C 
ENDBRANCH  24  34
ENDBRANCH  20  23
ENDBRANCH   1  19
TORSDOF 6
ENDMDL
MODEL 7
REMARK VINA RESULT:      -8.0      3.047      5.253
REMARK  6 active torsions:
REMARK  status: ('A' for Active; 'I' for Inactive)
REMARK    1  A    between atoms: N_6  and  C_7 
REMARK    2  A    between atoms: C_10  and  N_11 
REMARK    3  A    between atoms: N_11  and  C_12 
REMARK    4  A    between atoms: C_12  and  N_13 
REMARK       I    between atoms: N_13  and  C_14 
REMARK    5  A    between atoms: C_14  and  C_15 
REMARK    6  A    between atoms: C_16  and  O_17 
ROOT
HETATM    1  C   UNL     1      41.272 -13.925   1.518  1.00  0.00     0.179 C 
HETATM    2  S   UNL     1      41.683 -13.592  -0.069  1.00  0.00    -0.040 SA
ENDROOT
BRANCH   1   3
HETATM    3  N   UNL     1      40.352 -13.147   2.138  1.00  0.00    -0.333 N 
HETATM    4  H   UNL     1      39.597 -12.831   1.537  1.00  0.00     0.168 HD
BRANCH   3   5
HETATM    5  C   UNL     1      40.387 -12.584   3.427  1.00  0.00     0.034 C 
HETATM    6  C   UNL     1      39.507 -13.070   4.390  1.00  0.00     0.032 C 
HETATM    7  C   UNL     1      39.590 -12.621   5.718  1.00  0.00     0.031 C 
HETATM    8  C   UNL     1      40.556 -11.685   6.110  1.00  0.00     0.030 C 
HETATM    9  C   UNL     1      41.321 -11.104   5.089  1.00  0.00     0.031 C 
HETATM   10  C   UNL     1      41.238 -11.542   3.766  1.00  0.00     0.032 C 
BRANCH   8  11
HETATM   11  N   UNL     1      40.808 -11.319   7.439  1.00  0.00    -0.378 N 
HETATM   12  C   UNL     1      39.573 -11.126   8.243  1.00  0.00     0.150 C 
HETATM   13  C   UNL     1      39.052  -9.681   8.099  1.00  0.00     0.254 C 
HETATM   14  N   UNL     1      40.141  -8.696   8.534  1.00  0.00    -0.072 N 
HETATM   15  C   UNL     1      39.663  -7.278   8.492  1.00  0.00     0.269 C 
HETATM   16  H   UNL     1      40.373  -8.922   9.510  1.00  0.00     0.279 HD
HETATM   17  C   UNL     1      41.413  -8.897   7.711  1.00  0.00     0.254 C 
HETATM   18  C   UNL     1      41.886 -10.368   7.759  1.00  0.00     0.150 C 
ENDBRANCH   8  11
ENDBRANCH   3   5
ENDBRANCH   1   3
BRANCH   1  19
HETATM   19  N   UNL     1      41.844 -15.014   2.115  1.00  0.00    -0.299 N 
HETATM   20  C   UNL     1      41.291 -16.262   2.396  1.00  0.00     0.260 C 
HETATM   21  O   UNL     1      40.143 -16.642   2.209  1.00  0.00    -0.267 OA
HETATM   22  H   UNL     1      42.855 -14.992   2.060  1.00  0.00     0.171 HD
BRANCH  20  23
HETATM   23  C   UNL     1      42.272 -17.250   2.879  1.00  0.00     0.068 A 
HETATM   24  C   UNL     1      42.983 -17.057   4.063  1.00  0.00     0.102 A 
HETATM   25  C   UNL     1      43.801 -18.094   4.548  1.00  0.00     0.056 A 
HETATM   26 BR   UNL     1      44.624 -17.893   6.269  1.00  0.00    -0.047 Br
HETATM   27  C   UNL     1      43.981 -19.296   3.801  1.00  0.00    -0.006 A 
HETATM   28  C   UNL     1      43.275 -19.439   2.577  1.00  0.00    -0.024 A 
HETATM   29  C   UNL     1      44.814 -20.375   4.192  1.00  0.00     0.014 A 
HETATM   30  C   UNL     1      42.417 -18.424   2.139  1.00  0.00     0.032 A 
HETATM   31  C   UNL     1      43.416 -20.604   1.806  1.00  0.00     0.012 A 
HETATM   32  C   UNL     1      44.249 -21.640   2.219  1.00  0.00     0.001 A 
HETATM   33  C   UNL     1      44.947 -21.527   3.413  1.00  0.00     0.001 A 
BRANCH  24  34
HETATM   34  O   UNL     1      42.803 -15.887   4.759  1.00  0.00    -0.353 OA
HETATM   35  C   UNL     1      41.728 -15.990   5.700  1.00  0.00     0.210 C 
ENDBRANCH  24  34
ENDBRANCH  20  23
ENDBRANCH   1  19
TORSDOF 6
ENDMDL
MODEL 8
REMARK VINA RESULT:      -7.9      3.412      4.861
REMARK  6 active torsions:
REMARK  status: ('A' for Active; 'I' for Inactive)
REMARK    1  A    between atoms: N_6  and  C_7 
REMARK    2  A    between atoms: C_10  and  N_11 
REMARK    3  A    between atoms: N_11  and  C_12 
REMARK    4  A    between atoms: C_12  and  N_13 
REMARK       I    between atoms: N_13  and  C_14 
REMARK    5  A    between atoms: C_14  and  C_15 
REMARK    6  A    between atoms: C_16  and  O_17 
ROOT
HETATM    1  C   UNL     1      39.553 -15.020   2.559  1.00  0.00     0.179 C 
HETATM    2  S   UNL     1      39.586 -13.717   3.606  1.00  0.00    -0.040 SA
ENDROOT
BRANCH   1   3
HETATM    3  N   UNL     1      38.668 -15.020   1.533  1.00  0.00    -0.333 N 
HETATM    4  H   UNL     1      38.224 -15.916   1.362  1.00  0.00     0.168 HD
BRANCH   3   5
HETATM    5  C   UNL     1      38.411 -14.017   0.581  1.00  0.00     0.034 C 
HETATM    6  C   UNL     1      37.230 -13.287   0.684  1.00  0.00     0.032 C 
HETATM    7  C   UNL     1      36.991 -12.199  -0.172  1.00  0.00     0.031 C 
HETATM    8  C   UNL     1      37.928 -11.816  -1.141  1.00  0.00     0.030 C 
HETATM    9  C   UNL     1      39.030 -12.664  -1.320  1.00  0.00     0.031 C 
HETATM   10  C   UNL     1      39.269 -13.750  -0.477  1.00  0.00     0.032 C 
BRANCH   8  11
HETATM   11  N   UNL     1      37.836 -10.649  -1.910  1.00  0.00    -0.378 N 
HETATM   12  C   UNL     1      36.444 -10.153  -2.068  1.00  0.00     0.150 C 
HETATM   13  C   UNL     1      35.761 -10.827  -3.276  1.00  0.00     0.254 C 
HETATM   14  N   UNL     1      36.579 -10.560  -4.544  1.00  0.00    -0.072 N 
HETATM   15  C   UNL     1      35.920 -11.124  -5.765  1.00  0.00     0.269 C 
HETATM   16  H   UNL     1      36.628  -9.540  -4.655  1.00  0.00     0.279 HD
HETATM   17  C   UNL     1      38.012 -11.066  -4.381  1.00  0.00     0.254 C 
HETATM   18  C   UNL     1      38.672 -10.481  -3.112  1.00  0.00     0.150 C 
ENDBRANCH   8  11
ENDBRANCH   3   5
ENDBRANCH   1   3
BRANCH   1  19
HETATM   19  N   UNL     1      40.468 -16.019   2.746  1.00  0.00    -0.299 N 
HETATM   20  C   UNL     1      41.444 -16.500   1.876  1.00  0.00     0.260 C 
HETATM   21  O   UNL     1      41.666 -16.160   0.721  1.00  0.00    -0.267 OA
HETATM   22  H   UNL     1      40.636 -16.203   3.728  1.00  0.00     0.171 HD
BRANCH  20  23
HETATM   23  C   UNL     1      42.372 -17.462   2.498  1.00  0.00     0.068 A 
HETATM   24  C   UNL     1      43.013 -17.184   3.705  1.00  0.00     0.102 A 
HETATM   25  C   UNL     1      43.777 -18.192   4.322  1.00  0.00     0.056 A 
HETATM   26 BR   UNL     1      44.498 -17.864   6.069  1.00  0.00    -0.047 Br
HETATM   27  C   UNL     1      43.975 -19.455   3.689  1.00  0.00    -0.006 A 
HETATM   28  C   UNL     1      43.342 -19.686   2.438  1.00  0.00    -0.024 A 
HETATM   29  C   UNL     1      44.759 -20.512   4.217  1.00  0.00     0.014 A 
HETATM   30  C   UNL     1      42.535 -18.696   1.866  1.00  0.00     0.032 A 
HETATM   31  C   UNL     1      43.503 -20.912   1.775  1.00  0.00     0.012 A 
HETATM   32  C   UNL     1      44.286 -21.925   2.322  1.00  0.00     0.001 A 
HETATM   33  C   UNL     1      44.914 -21.726   3.544  1.00  0.00     0.001 A 
BRANCH  24  34
HETATM   34  O   UNL     1      42.818 -15.958   4.290  1.00  0.00    -0.353 OA
HETATM   35  C   UNL     1      43.691 -14.964   3.743  1.00  0.00     0.210 C 
ENDBRANCH  24  34
ENDBRANCH  20  23
ENDBRANCH   1  19
TORSDOF 6
ENDMDL
MODEL 9
REMARK VINA RESULT:      -7.8      3.883      6.293
REMARK  6 active torsions:
REMARK  status: ('A' for Active; 'I' for Inactive)
REMARK    1  A    between atoms: N_6  and  C_7 
REMARK    2  A    between atoms: C_10  and  N_11 
REMARK    3  A    between atoms: N_11  and  C_12 
REMARK    4  A    between atoms: C_12  and  N_13 
REMARK       I    between atoms: N_13  and  C_14 
REMARK    5  A    between atoms: C_14  and  C_15 
REMARK    6  A    between atoms: C_16  and  O_17 
ROOT
HETATM    1  C   UNL     1      40.820 -13.067   4.656  1.00  0.00     0.179 C 
HETATM    2  S   UNL     1      41.171 -11.909   3.502  1.00  0.00    -0.040 SA
ENDROOT
BRANCH   1   3
HETATM    3  N   UNL     1      39.908 -12.785   5.617  1.00  0.00    -0.333 N 
HETATM    4  H   UNL     1      38.957 -13.049   5.383  1.00  0.00     0.168 HD
BRANCH   3   5
HETATM    5  C   UNL     1      40.063 -12.035   6.798  1.00  0.00     0.034 C 
HETATM    6  C   UNL     1      41.166 -11.192   6.912  1.00  0.00     0.032 C 
HETATM    7  C   UNL     1      41.294 -10.338   8.020  1.00  0.00     0.031 C 
HETATM    8  C   UNL     1      40.323 -10.306   9.029  1.00  0.00     0.030 C 
HETATM    9  C   UNL     1      39.311 -11.274   8.961  1.00  0.00     0.031 C 
HETATM   10  C   UNL     1      39.182 -12.128   7.866  1.00  0.00     0.032 C 
BRANCH   8  11
HETATM   11  N   UNL     1      40.298  -9.368  10.070  1.00  0.00    -0.378 N 
HETATM   12  C   UNL     1      41.635  -8.804  10.391  1.00  0.00     0.150 C 
HETATM   13  C   UNL     1      42.370  -9.698  11.411  1.00  0.00     0.254 C 
HETATM   14  N   UNL     1      41.521  -9.836  12.679  1.00  0.00    -0.072 N 
HETATM   15  C   UNL     1      42.222 -10.628  13.740  1.00  0.00     0.269 C 
HETATM   16  H   UNL     1      41.374  -8.885  13.042  1.00  0.00     0.279 HD
HETATM   17  C   UNL     1      40.144 -10.411  12.350  1.00  0.00     0.254 C 
HETATM   18  C   UNL     1      39.440  -9.585  11.249  1.00  0.00     0.150 C 
ENDBRANCH   8  11
ENDBRANCH   3   5
ENDBRANCH   1   3
BRANCH   1  19
HETATM   19  N   UNL     1      41.431 -14.285   4.550  1.00  0.00    -0.299 N 
HETATM   20  C   UNL     1      41.102 -15.496   5.156  1.00  0.00     0.260 C 
HETATM   21  O   UNL     1      40.209 -15.723   5.963  1.00  0.00    -0.267 OA
HETATM   22  H   UNL     1      41.987 -14.362   3.707  1.00  0.00     0.171 HD
BRANCH  20  23
HETATM   23  C   UNL     1      41.881 -16.642   4.654  1.00  0.00     0.068 A 
HETATM   24  C   UNL     1      42.190 -16.780   3.302  1.00  0.00     0.102 A 
HETATM   25  C   UNL     1      43.054 -17.817   2.899  1.00  0.00     0.056 A 
HETATM   26 BR   UNL     1      43.623 -17.885   1.069  1.00  0.00    -0.047 Br
HETATM   27  C   UNL     1      43.539 -18.774   3.839  1.00  0.00    -0.006 A 
HETATM   28  C   UNL     1      43.167 -18.626   5.202  1.00  0.00    -0.024 A 
HETATM   29  C   UNL     1      44.379 -19.870   3.517  1.00  0.00     0.014 A 
HETATM   30  C   UNL     1      42.358 -17.556   5.596  1.00  0.00     0.032 A 
HETATM   31  C   UNL     1      43.620 -19.540   6.166  1.00  0.00     0.012 A 
HETATM   32  C   UNL     1      44.438 -20.609   5.811  1.00  0.00     0.001 A 
HETATM   33  C   UNL     1      44.819 -20.774   4.487  1.00  0.00     0.001 A 
BRANCH  24  34
HETATM   34  O   UNL     1      41.702 -15.855   2.414  1.00  0.00    -0.353 OA
HETATM   35  C   UNL     1      40.485 -16.297   1.802  1.00  0.00     0.210 C 
ENDBRANCH  24  34
ENDBRANCH  20  23
ENDBRANCH   1  19
TORSDOF 6
ENDMDL
MODEL 10
REMARK VINA RESULT:      -7.7      2.870      8.240
REMARK  6 active torsions:
REMARK  status: ('A' for Active; 'I' for Inactive)
REMARK    1  A    between atoms: N_6  and  C_7 
REMARK    2  A    between atoms: C_10  and  N_11 
REMARK    3  A    between atoms: N_11  and  C_12 
REMARK    4  A    between atoms: C_12  and  N_13 
REMARK       I    between atoms: N_13  and  C_14 
REMARK    5  A    between atoms: C_14  and  C_15 
REMARK    6  A    between atoms: C_16  and  O_17 
ROOT
HETATM    1  C   UNL     1      40.273 -14.001   3.709  1.00  0.00     0.179 C 
HETATM    2  S   UNL     1      39.949 -12.755   4.776  1.00  0.00    -0.040 SA
ENDROOT
BRANCH   1   3
HETATM    3  N   UNL     1      40.137 -15.282   4.130  1.00  0.00    -0.333 N 
HETATM    4  H   UNL     1      39.177 -15.572   4.285  1.00  0.00     0.168 HD
BRANCH   3   5
HETATM    5  C   UNL     1      41.127 -16.193   4.541  1.00  0.00     0.034 C 
HETATM    6  C   UNL     1      42.445 -15.964   4.155  1.00  0.00     0.032 C 
HETATM    7  C   UNL     1      43.479 -16.780   4.642  1.00  0.00     0.031 C 
HETATM    8  C   UNL     1      43.218 -17.835   5.526  1.00  0.00     0.030 C 
HETATM    9  C   UNL     1      41.869 -18.133   5.770  1.00  0.00     0.031 C 
HETATM   10  C   UNL     1      40.838 -17.329   5.283  1.00  0.00     0.032 C 
BRANCH   8  11
HETATM   11  N   UNL     1      44.207 -18.579   6.182  1.00  0.00    -0.378 N 
HETATM   12  C   UNL     1      45.367 -18.914   5.314  1.00  0.00     0.150 C 
HETATM   13  C   UNL     1      45.104 -20.222   4.538  1.00  0.00     0.254 C 
HETATM   14  N   UNL     1      44.820 -21.358   5.526  1.00  0.00    -0.072 N 
HETATM   15  C   UNL     1      44.637 -22.672   4.832  1.00  0.00     0.269 C 
HETATM   16  H   UNL     1      45.645 -21.435   6.134  1.00  0.00     0.279 HD
HETATM   17  C   UNL     1      43.631 -21.012   6.422  1.00  0.00     0.254 C 
HETATM   18  C   UNL     1      43.834 -19.650   7.123  1.00  0.00     0.150 C 
ENDBRANCH   8  11
ENDBRANCH   3   5
ENDBRANCH   1   3
BRANCH   1  19
HETATM   19  N   UNL     1      40.611 -13.676   2.425  1.00  0.00    -0.299 N 
HETATM   20  C   UNL     1      41.835 -13.251   1.912  1.00  0.00     0.260 C 
HETATM   21  O   UNL     1      42.875 -13.027   2.517  1.00  0.00    -0.267 OA
HETATM   22  H   UNL     1      39.978 -14.087   1.748  1.00  0.00     0.171 HD
BRANCH  20  23
HETATM   23  C   UNL     1      41.867 -13.175   0.440  1.00  0.00     0.068 A 
HETATM   24  C   UNL     1      41.450 -14.241  -0.356  1.00  0.00     0.102 A 
HETATM   25  C   UNL     1      41.371 -14.064  -1.750  1.00  0.00     0.056 A 
HETATM   26 BR   UNL     1      40.618 -15.469  -2.817  1.00  0.00    -0.047 Br
HETATM   27  C   UNL     1      41.795 -12.847  -2.361  1.00  0.00    -0.006 A 
HETATM   28  C   UNL     1      42.256 -11.799  -1.520  1.00  0.00    -0.024 A 
HETATM   29  C   UNL     1      41.787 -12.595  -3.756  1.00  0.00     0.014 A 
HETATM   30  C   UNL     1      42.272 -11.968  -0.132  1.00  0.00     0.032 A 
HETATM   31  C   UNL     1      42.683 -10.580  -2.072  1.00  0.00     0.012 A 
HETATM   32  C   UNL     1      42.667 -10.372  -3.448  1.00  0.00     0.001 A 
HETATM   33  C   UNL     1      42.218 -11.379  -4.291  1.00  0.00     0.001 A 
BRANCH  24  34
HETATM   34  O   UNL     1      41.057 -15.407   0.252  1.00  0.00    -0.353 OA
HETATM   35  C   UNL     1      42.154 -16.315   0.416  1.00  0.00     0.210 C 
ENDBRANCH  24  34
ENDBRANCH  20  23
ENDBRANCH   1  19
TORSDOF 6
ENDMDL
