MODEL 1
REMARK VINA RESULT:      -7.6      0.000      0.000
REMARK  8 active torsions:
REMARK  status: ('A' for Active; 'I' for Inactive)
REMARK    1  A    between atoms: C_2  and  C_3 
REMARK    2  A    between atoms: C_3  and  S_4 
REMARK    3  A    between atoms: S_4  and  C_5 
REMARK    4  A    between atoms: N_6  and  C_7 
REMARK    5  A    between atoms: C_8  and  O_9 
REMARK    6  A    between atoms: C_15  and  C_16 
REMARK    7  A    between atoms: C_16  and  N_17 
REMARK       I    between atoms: N_17  and  C_18 
REMARK    8  A    between atoms: C_18  and  C_19 
ROOT
HETATM    1  C   UNL     1      41.811 -12.821   0.424  1.00  0.00     0.196 A 
HETATM    2  N   UNL     1      40.974 -13.902   0.214  1.00  0.00    -0.271 N 
HETATM    3  C   UNL     1      40.984 -14.575   1.430  1.00  0.00     0.153 A 
HETATM    4  N   UNL     1      41.772 -13.940   2.280  1.00  0.00    -0.132 NA
HETATM    5  N   UNL     1      42.279 -12.835   1.651  1.00  0.00    -0.122 NA
ENDROOT
BRANCH   3   6
HETATM    6  C   UNL     1      40.325 -15.877   1.706  1.00  0.00     0.204 C 
BRANCH   6   7
HETATM    7  N   UNL     1      41.268 -16.745   2.376  1.00  0.00    -0.350 N 
HETATM    8  C   UNL     1      42.237 -17.414   1.663  1.00  0.00     0.252 C 
HETATM    9  O   UNL     1      42.415 -17.231   0.461  1.00  0.00    -0.268 OA
HETATM   10  H   UNL     1      41.003 -17.069   3.297  1.00  0.00     0.163 HD
BRANCH   8  11
HETATM   11  C   UNL     1      43.059 -18.420   2.397  1.00  0.00     0.032 A 
HETATM   12  C   UNL     1      43.378 -19.678   1.866  1.00  0.00     0.023 A 
HETATM   13  C   UNL     1      44.178 -20.575   2.592  1.00  0.00    -0.061 A 
HETATM   14  C   UNL     1      44.507 -21.929   2.033  1.00  0.00     0.048 C 
HETATM   15  C   UNL     1      44.620 -20.220   3.872  1.00  0.00     0.007 A 
HETATM   16  C   UNL     1      44.288 -18.979   4.415  1.00  0.00     0.002 A 
HETATM   17  C   UNL     1      43.513 -18.082   3.680  1.00  0.00     0.017 A 
ENDBRANCH   8  11
ENDBRANCH   6   7
ENDBRANCH   3   6
BRANCH   2  18
HETATM   18  C   UNL     1      40.210 -14.218  -0.936  1.00  0.00     0.076 A 
HETATM   19  C   UNL     1      38.907 -13.720  -1.096  1.00  0.00     0.095 A 
HETATM   20  C   UNL     1      38.190 -14.064  -2.248  1.00  0.00     0.039 A 
HETATM   21  C   UNL     1      38.754 -14.903  -3.213  1.00  0.00     0.003 A 
HETATM   22  C   UNL     1      40.042 -15.401  -3.042  1.00  0.00     0.002 A 
HETATM   23  C   UNL     1      40.774 -15.061  -1.906  1.00  0.00     0.033 A 
BRANCH  19  24
HETATM   24  O   UNL     1      38.442 -12.822  -0.173  1.00  0.00    -0.354 OA
HETATM   25  C   UNL     1      37.440 -13.312   0.715  1.00  0.00     0.210 C 
ENDBRANCH  19  24
ENDBRANCH   2  18
BRANCH   1  26
HETATM   26  S   UNL     1      42.039 -11.494  -0.672  1.00  0.00    -0.090 SA
BRANCH  26  27
HETATM   27  C   UNL     1      43.107 -12.291  -1.905  1.00  0.00     0.082 C 
BRANCH  27  28
HETATM   28  C   UNL     1      42.469 -12.179  -3.286  1.00  0.00     0.006 C 
HETATM   29  C   UNL     1      41.121 -11.477  -3.215  1.00  0.00     0.006 C 
ENDBRANCH  27  28
ENDBRANCH  26  27
ENDBRANCH   1  26
TORSDOF 8
ENDMDL
MODEL 2
REMARK VINA RESULT:      -7.6      1.937      3.168
REMARK  8 active torsions:
REMARK  status: ('A' for Active; 'I' for Inactive)
REMARK    1  A    between atoms: C_2  and  C_3 
REMARK    2  A    between atoms: C_3  and  S_4 
REMARK    3  A    between atoms: S_4  and  C_5 
REMARK    4  A    between atoms: N_6  and  C_7 
REMARK    5  A    between atoms: C_8  and  O_9 
REMARK    6  A    between atoms: C_15  and  C_16 
REMARK    7  A    between atoms: C_16  and  N_17 
REMARK       I    between atoms: N_17  and  C_18 
REMARK    8  A    between atoms: C_18  and  C_19 
ROOT
HETATM    1  C   UNL     1      39.633 -14.696   1.597  1.00  0.00     0.196 A 
HETATM    2  N   UNL     1      40.844 -14.910   0.963  1.00  0.00    -0.271 N 
HETATM    3  C   UNL     1      41.606 -15.579   1.913  1.00  0.00     0.153 A 
HETATM    4  N   UNL     1      40.898 -15.736   3.017  1.00  0.00    -0.132 NA
HETATM    5  N   UNL     1      39.659 -15.193   2.813  1.00  0.00    -0.122 NA
ENDROOT
BRANCH   3   6
HETATM    6  C   UNL     1      43.038 -15.947   1.771  1.00  0.00     0.204 C 
BRANCH   6   7
HETATM    7  N   UNL     1      43.162 -17.385   1.872  1.00  0.00    -0.350 N 
HETATM    8  C   UNL     1      43.650 -17.971   3.019  1.00  0.00     0.252 C 
HETATM    9  O   UNL     1      43.900 -17.324   4.034  1.00  0.00    -0.268 OA
HETATM   10  H   UNL     1      43.174 -17.896   0.999  1.00  0.00     0.163 HD
BRANCH   8  11
HETATM   11  C   UNL     1      43.910 -19.440   2.984  1.00  0.00     0.032 A 
HETATM   12  C   UNL     1      44.424 -20.149   4.079  1.00  0.00     0.023 A 
HETATM   13  C   UNL     1      44.624 -21.537   3.997  1.00  0.00    -0.061 A 
HETATM   14  C   UNL     1      45.190 -22.297   5.161  1.00  0.00     0.048 C 
HETATM   15  C   UNL     1      44.346 -22.201   2.796  1.00  0.00     0.007 A 
HETATM   16  C   UNL     1      43.854 -21.497   1.697  1.00  0.00     0.002 A 
HETATM   17  C   UNL     1      43.636 -20.123   1.791  1.00  0.00     0.017 A 
ENDBRANCH   8  11
ENDBRANCH   6   7
ENDBRANCH   3   6
BRANCH   2  18
HETATM   18  C   UNL     1      41.209 -14.601  -0.370  1.00  0.00     0.076 A 
HETATM   19  C   UNL     1      41.885 -13.409  -0.676  1.00  0.00     0.095 A 
HETATM   20  C   UNL     1      42.221 -13.147  -2.010  1.00  0.00     0.039 A 
HETATM   21  C   UNL     1      41.872 -14.046  -3.021  1.00  0.00     0.003 A 
HETATM   22  C   UNL     1      41.192 -15.220  -2.711  1.00  0.00     0.002 A 
HETATM   23  C   UNL     1      40.859 -15.502  -1.388  1.00  0.00     0.033 A 
BRANCH  19  24
HETATM   24  O   UNL     1      42.292 -12.615   0.362  1.00  0.00    -0.354 OA
HETATM   25  C   UNL     1      42.134 -11.212   0.165  1.00  0.00     0.210 C 
ENDBRANCH  19  24
ENDBRANCH   2  18
BRANCH   1  26
HETATM   26  S   UNL     1      38.194 -14.083   0.844  1.00  0.00    -0.090 SA
BRANCH  26  27
HETATM   27  C   UNL     1      38.630 -12.323   0.733  1.00  0.00     0.082 C 
BRANCH  27  28
HETATM   28  C   UNL     1      38.300 -11.801  -0.662  1.00  0.00     0.006 C 
HETATM   29  C   UNL     1      38.172 -12.940  -1.661  1.00  0.00     0.006 C 
ENDBRANCH  27  28
ENDBRANCH  26  27
ENDBRANCH   1  26
TORSDOF 8
ENDMDL
MODEL 3
REMARK VINA RESULT:      -7.6      0.773      1.567
REMARK  8 active torsions:
REMARK  status: ('A' for Active; 'I' for Inactive)
REMARK    1  A    between atoms: C_2  and  C_3 
REMARK    2  A    between atoms: C_3  and  S_4 
REMARK    3  A    between atoms: S_4  and  C_5 
REMARK    4  A    between atoms: N_6  and  C_7 
REMARK    5  A    between atoms: C_8  and  O_9 
REMARK    6  A    between atoms: C_15  and  C_16 
REMARK    7  A    between atoms: C_16  and  N_17 
REMARK       I    between atoms: N_17  and  C_18 
REMARK    8  A    between atoms: C_18  and  C_19 
ROOT
HETATM    1  C   UNL     1      41.846 -12.976   0.384  1.00  0.00     0.196 A 
HETATM    2  N   UNL     1      41.214 -14.144  -0.003  1.00  0.00    -0.271 N 
HETATM    3  C   UNL     1      41.466 -15.024   1.042  1.00  0.00     0.153 A 
HETATM    4  N   UNL     1      42.196 -14.420   1.963  1.00  0.00    -0.132 NA
HETATM    5  N   UNL     1      42.422 -13.133   1.555  1.00  0.00    -0.122 NA
ENDROOT
BRANCH   3   6
HETATM    6  C   UNL     1      41.095 -16.462   1.072  1.00  0.00     0.204 C 
BRANCH   6   7
HETATM    7  N   UNL     1      41.879 -17.125   2.091  1.00  0.00    -0.350 N 
HETATM    8  C   UNL     1      43.042 -17.788   1.764  1.00  0.00     0.252 C 
HETATM    9  O   UNL     1      43.519 -17.762   0.632  1.00  0.00    -0.268 OA
HETATM   10  H   UNL     1      41.401 -17.340   2.956  1.00  0.00     0.163 HD
BRANCH   8  11
HETATM   11  C   UNL     1      43.701 -18.590   2.836  1.00  0.00     0.032 A 
HETATM   12  C   UNL     1      44.006 -18.066   4.100  1.00  0.00     0.023 A 
HETATM   13  C   UNL     1      44.603 -18.875   5.081  1.00  0.00    -0.061 A 
HETATM   14  C   UNL     1      44.945 -18.313   6.430  1.00  0.00     0.048 C 
HETATM   15  C   UNL     1      44.932 -20.200   4.770  1.00  0.00     0.007 A 
HETATM   16  C   UNL     1      44.651 -20.720   3.507  1.00  0.00     0.002 A 
HETATM   17  C   UNL     1      44.036 -19.919   2.545  1.00  0.00     0.017 A 
ENDBRANCH   8  11
ENDBRANCH   6   7
ENDBRANCH   3   6
BRANCH   2  18
HETATM   18  C   UNL     1      40.419 -14.378  -1.152  1.00  0.00     0.076 A 
HETATM   19  C   UNL     1      39.058 -14.034  -1.170  1.00  0.00     0.095 A 
HETATM   20  C   UNL     1      38.313 -14.291  -2.328  1.00  0.00     0.039 A 
HETATM   21  C   UNL     1      38.908 -14.895  -3.438  1.00  0.00     0.003 A 
HETATM   22  C   UNL     1      40.255 -15.242  -3.408  1.00  0.00     0.002 A 
HETATM   23  C   UNL     1      41.015 -14.986  -2.268  1.00  0.00     0.033 A 
BRANCH  19  24
HETATM   24  O   UNL     1      38.550 -13.354  -0.096  1.00  0.00    -0.354 OA
HETATM   25  C   UNL     1      37.621 -14.074   0.709  1.00  0.00     0.210 C 
ENDBRANCH  19  24
ENDBRANCH   2  18
BRANCH   1  26
HETATM   26  S   UNL     1      41.713 -11.442  -0.418  1.00  0.00    -0.090 SA
BRANCH  26  27
HETATM   27  C   UNL     1      43.039 -11.621  -1.647  1.00  0.00     0.082 C 
BRANCH  27  28
HETATM   28  C   UNL     1      42.434 -11.708  -3.044  1.00  0.00     0.006 C 
HETATM   29  C   UNL     1      40.977 -11.270  -3.043  1.00  0.00     0.006 C 
ENDBRANCH  27  28
ENDBRANCH  26  27
ENDBRANCH   1  26
TORSDOF 8
ENDMDL
MODEL 4
REMARK VINA RESULT:      -7.3      2.198      3.688
REMARK  8 active torsions:
REMARK  status: ('A' for Active; 'I' for Inactive)
REMARK    1  A    between atoms: C_2  and  C_3 
REMARK    2  A    between atoms: C_3  and  S_4 
REMARK    3  A    between atoms: S_4  and  C_5 
REMARK    4  A    between atoms: N_6  and  C_7 
REMARK    5  A    between atoms: C_8  and  O_9 
REMARK    6  A    between atoms: C_15  and  C_16 
REMARK    7  A    between atoms: C_16  and  N_17 
REMARK       I    between atoms: N_17  and  C_18 
REMARK    8  A    between atoms: C_18  and  C_19 
ROOT
HETATM    1  C   UNL     1      41.564 -13.561  -0.337  1.00  0.00     0.196 A 
HETATM    2  N   UNL     1      41.066 -13.948   0.895  1.00  0.00    -0.271 N 
HETATM    3  C   UNL     1      40.870 -15.317   0.762  1.00  0.00     0.153 A 
HETATM    4  N   UNL     1      41.218 -15.698  -0.454  1.00  0.00    -0.132 NA
HETATM    5  N   UNL     1      41.664 -14.599  -1.136  1.00  0.00    -0.122 NA
ENDROOT
BRANCH   3   6
HETATM    6  C   UNL     1      40.242 -16.205   1.774  1.00  0.00     0.204 C 
BRANCH   6   7
HETATM    7  N   UNL     1      41.126 -17.321   2.029  1.00  0.00    -0.350 N 
HETATM    8  C   UNL     1      41.848 -17.394   3.200  1.00  0.00     0.252 C 
HETATM    9  O   UNL     1      41.703 -16.586   4.115  1.00  0.00    -0.268 OA
HETATM   10  H   UNL     1      41.417 -17.856   1.221  1.00  0.00     0.163 HD
BRANCH   8  11
HETATM   11  C   UNL     1      42.863 -18.481   3.314  1.00  0.00     0.032 A 
HETATM   12  C   UNL     1      42.982 -19.514   2.374  1.00  0.00     0.023 A 
HETATM   13  C   UNL     1      43.975 -20.498   2.519  1.00  0.00    -0.061 A 
HETATM   14  C   UNL     1      44.095 -21.614   1.523  1.00  0.00     0.048 C 
HETATM   15  C   UNL     1      44.818 -20.462   3.636  1.00  0.00     0.007 A 
HETATM   16  C   UNL     1      44.690 -19.449   4.586  1.00  0.00     0.002 A 
HETATM   17  C   UNL     1      43.718 -18.462   4.425  1.00  0.00     0.017 A 
ENDBRANCH   8  11
ENDBRANCH   6   7
ENDBRANCH   3   6
BRANCH   2  18
HETATM   18  C   UNL     1      40.875 -13.161   2.056  1.00  0.00     0.076 A 
HETATM   19  C   UNL     1      41.899 -13.017   3.007  1.00  0.00     0.095 A 
HETATM   20  C   UNL     1      41.661 -12.233   4.142  1.00  0.00     0.039 A 
HETATM   21  C   UNL     1      40.420 -11.619   4.335  1.00  0.00     0.003 A 
HETATM   22  C   UNL     1      39.408 -11.774   3.394  1.00  0.00     0.002 A 
HETATM   23  C   UNL     1      39.630 -12.544   2.253  1.00  0.00     0.033 A 
BRANCH  19  24
HETATM   24  O   UNL     1      43.125 -13.555   2.721  1.00  0.00    -0.354 OA
HETATM   25  C   UNL     1      43.921 -13.914   3.847  1.00  0.00     0.210 C 
ENDBRANCH  19  24
ENDBRANCH   2  18
BRANCH   1  26
HETATM   26  S   UNL     1      42.199 -11.992  -0.721  1.00  0.00    -0.090 SA
BRANCH  26  27
HETATM   27  C   UNL     1      41.558 -11.804  -2.410  1.00  0.00     0.082 C 
BRANCH  27  28
HETATM   28  C   UNL     1      42.409 -10.794  -3.173  1.00  0.00     0.006 C 
HETATM   29  C   UNL     1      42.380 -11.067  -4.669  1.00  0.00     0.006 C 
ENDBRANCH  27  28
ENDBRANCH  26  27
ENDBRANCH   1  26
TORSDOF 8
ENDMDL
MODEL 5
REMARK VINA RESULT:      -7.3      3.006      7.907
REMARK  8 active torsions:
REMARK  status: ('A' for Active; 'I' for Inactive)
REMARK    1  A    between atoms: C_2  and  C_3 
REMARK    2  A    between atoms: C_3  and  S_4 
REMARK    3  A    between atoms: S_4  and  C_5 
REMARK    4  A    between atoms: N_6  and  C_7 
REMARK    5  A    between atoms: C_8  and  O_9 
REMARK    6  A    between atoms: C_15  and  C_16 
REMARK    7  A    between atoms: C_16  and  N_17 
REMARK       I    between atoms: N_17  and  C_18 
REMARK    8  A    between atoms: C_18  and  C_19 
ROOT
HETATM    1  C   UNL     1      43.782 -18.632   3.473  1.00  0.00     0.196 A 
HETATM    2  N   UNL     1      42.630 -17.886   3.300  1.00  0.00    -0.271 N 
HETATM    3  C   UNL     1      42.186 -18.243   2.033  1.00  0.00     0.153 A 
HETATM    4  N   UNL     1      43.019 -19.123   1.504  1.00  0.00    -0.132 NA
HETATM    5  N   UNL     1      44.010 -19.374   2.413  1.00  0.00    -0.122 NA
ENDROOT
BRANCH   3   6
HETATM    6  C   UNL     1      41.033 -17.641   1.316  1.00  0.00     0.204 C 
BRANCH   6   7
HETATM    7  N   UNL     1      41.527 -16.647   0.389  1.00  0.00    -0.350 N 
HETATM    8  C   UNL     1      40.899 -15.427   0.265  1.00  0.00     0.252 C 
HETATM    9  O   UNL     1      39.970 -15.086   0.994  1.00  0.00    -0.268 OA
HETATM   10  H   UNL     1      42.129 -16.983  -0.351  1.00  0.00     0.163 HD
BRANCH   8  11
HETATM   11  C   UNL     1      41.361 -14.524  -0.830  1.00  0.00     0.032 A 
HETATM   12  C   UNL     1      41.988 -13.293  -0.590  1.00  0.00     0.023 A 
HETATM   13  C   UNL     1      42.426 -12.497  -1.660  1.00  0.00    -0.061 A 
HETATM   14  C   UNL     1      43.083 -11.171  -1.407  1.00  0.00     0.048 C 
HETATM   15  C   UNL     1      42.192 -12.923  -2.973  1.00  0.00     0.007 A 
HETATM   16  C   UNL     1      41.549 -14.136  -3.219  1.00  0.00     0.002 A 
HETATM   17  C   UNL     1      41.137 -14.934  -2.152  1.00  0.00     0.017 A 
ENDBRANCH   8  11
ENDBRANCH   6   7
ENDBRANCH   3   6
BRANCH   2  18
HETATM   18  C   UNL     1      41.992 -17.020   4.221  1.00  0.00     0.076 A 
HETATM   19  C   UNL     1      42.158 -15.628   4.138  1.00  0.00     0.095 A 
HETATM   20  C   UNL     1      41.510 -14.814   5.075  1.00  0.00     0.039 A 
HETATM   21  C   UNL     1      40.728 -15.377   6.087  1.00  0.00     0.003 A 
HETATM   22  C   UNL     1      40.577 -16.758   6.169  1.00  0.00     0.002 A 
HETATM   23  C   UNL     1      41.207 -17.583   5.239  1.00  0.00     0.033 A 
BRANCH  19  24
HETATM   24  O   UNL     1      42.849 -15.124   3.069  1.00  0.00    -0.354 OA
HETATM   25  C   UNL     1      42.910 -13.703   2.987  1.00  0.00     0.210 C 
ENDBRANCH  19  24
ENDBRANCH   2  18
BRANCH   1  26
HETATM   26  S   UNL     1      44.681 -18.772   4.952  1.00  0.00    -0.090 SA
BRANCH  26  27
HETATM   27  C   UNL     1      44.609 -20.572   5.186  1.00  0.00     0.082 C 
BRANCH  27  28
HETATM   28  C   UNL     1      43.939 -20.888   6.520  1.00  0.00     0.006 C 
HETATM   29  C   UNL     1      43.655 -19.619   7.309  1.00  0.00     0.006 C 
ENDBRANCH  27  28
ENDBRANCH  26  27
ENDBRANCH   1  26
TORSDOF 8
ENDMDL
MODEL 6
REMARK VINA RESULT:      -7.2      2.188      3.885
REMARK  8 active torsions:
REMARK  status: ('A' for Active; 'I' for Inactive)
REMARK    1  A    between atoms: C_2  and  C_3 
REMARK    2  A    between atoms: C_3  and  S_4 
REMARK    3  A    between atoms: S_4  and  C_5 
REMARK    4  A    between atoms: N_6  and  C_7 
REMARK    5  A    between atoms: C_8  and  O_9 
REMARK    6  A    between atoms: C_15  and  C_16 
REMARK    7  A    between atoms: C_16  and  N_17 
REMARK       I    between atoms: N_17  and  C_18 
REMARK    8  A    between atoms: C_18  and  C_19 
ROOT
HETATM    1  C   UNL     1      40.983 -14.805   0.028  1.00  0.00     0.196 A 
HETATM    2  N   UNL     1      40.840 -14.684   1.399  1.00  0.00    -0.271 N 
HETATM    3  C   UNL     1      41.111 -15.960   1.878  1.00  0.00     0.153 A 
HETATM    4  N   UNL     1      41.383 -16.765   0.866  1.00  0.00    -0.132 NA
HETATM    5  N   UNL     1      41.315 -16.036  -0.291  1.00  0.00    -0.122 NA
ENDROOT
BRANCH   3   6
HETATM    6  C   UNL     1      40.987 -16.399   3.292  1.00  0.00     0.204 C 
BRANCH   6   7
HETATM    7  N   UNL     1      41.630 -17.686   3.439  1.00  0.00    -0.350 N 
HETATM    8  C   UNL     1      42.911 -17.780   3.937  1.00  0.00     0.252 C 
HETATM    9  O   UNL     1      43.521 -16.806   4.371  1.00  0.00    -0.268 OA
HETATM   10  H   UNL     1      41.242 -18.446   2.896  1.00  0.00     0.163 HD
BRANCH   8  11
HETATM   11  C   UNL     1      43.567 -19.119   3.897  1.00  0.00     0.032 A 
HETATM   12  C   UNL     1      43.613 -19.911   2.741  1.00  0.00     0.023 A 
HETATM   13  C   UNL     1      44.268 -21.154   2.756  1.00  0.00    -0.061 A 
HETATM   14  C   UNL     1      44.305 -22.012   1.525  1.00  0.00     0.048 C 
HETATM   15  C   UNL     1      44.839 -21.615   3.948  1.00  0.00     0.007 A 
HETATM   16  C   UNL     1      44.778 -20.841   5.106  1.00  0.00     0.002 A 
HETATM   17  C   UNL     1      44.146 -19.598   5.081  1.00  0.00     0.017 A 
ENDBRANCH   8  11
ENDBRANCH   6   7
ENDBRANCH   3   6
BRANCH   2  18
HETATM   18  C   UNL     1      40.566 -13.521   2.159  1.00  0.00     0.076 A 
HETATM   19  C   UNL     1      41.605 -12.782   2.748  1.00  0.00     0.095 A 
HETATM   20  C   UNL     1      41.283 -11.642   3.494  1.00  0.00     0.039 A 
HETATM   21  C   UNL     1      39.951 -11.256   3.665  1.00  0.00     0.003 A 
HETATM   22  C   UNL     1      38.926 -11.999   3.087  1.00  0.00     0.002 A 
HETATM   23  C   UNL     1      39.229 -13.132   2.332  1.00  0.00     0.033 A 
BRANCH  19  24
HETATM   24  O   UNL     1      42.894 -13.144   2.465  1.00  0.00    -0.354 OA
HETATM   25  C   UNL     1      43.633 -13.698   3.551  1.00  0.00     0.210 C 
ENDBRANCH  19  24
ENDBRANCH   2  18
BRANCH   1  26
HETATM   26  S   UNL     1      40.973 -13.492  -1.108  1.00  0.00    -0.090 SA
BRANCH  26  27
HETATM   27  C   UNL     1      39.617 -14.030  -2.189  1.00  0.00     0.082 C 
BRANCH  27  28
HETATM   28  C   UNL     1      40.188 -14.586  -3.490  1.00  0.00     0.006 C 
HETATM   29  C   UNL     1      39.432 -15.828  -3.937  1.00  0.00     0.006 C 
ENDBRANCH  27  28
ENDBRANCH  26  27
ENDBRANCH   1  26
TORSDOF 8
ENDMDL
MODEL 7
REMARK VINA RESULT:      -7.2      1.915      3.313
REMARK  8 active torsions:
REMARK  status: ('A' for Active; 'I' for Inactive)
REMARK    1  A    between atoms: C_2  and  C_3 
REMARK    2  A    between atoms: C_3  and  S_4 
REMARK    3  A    between atoms: S_4  and  C_5 
REMARK    4  A    between atoms: N_6  and  C_7 
REMARK    5  A    between atoms: C_8  and  O_9 
REMARK    6  A    between atoms: C_15  and  C_16 
REMARK    7  A    between atoms: C_16  and  N_17 
REMARK       I    between atoms: N_17  and  C_18 
REMARK    8  A    between atoms: C_18  and  C_19 
ROOT
HETATM    1  C   UNL     1      40.662 -14.758  -1.212  1.00  0.00     0.196 A 
HETATM    2  N   UNL     1      40.235 -14.596   0.094  1.00  0.00    -0.271 N 
HETATM    3  C   UNL     1      40.760 -15.698   0.758  1.00  0.00     0.153 A 
HETATM    4  N   UNL     1      41.435 -16.448  -0.095  1.00  0.00    -0.132 NA
HETATM    5  N   UNL     1      41.383 -15.851  -1.326  1.00  0.00    -0.122 NA
ENDROOT
BRANCH   3   6
HETATM    6  C   UNL     1      40.501 -16.061   2.175  1.00  0.00     0.204 C 
BRANCH   6   7
HETATM    7  N   UNL     1      41.253 -17.254   2.496  1.00  0.00    -0.350 N 
HETATM    8  C   UNL     1      42.452 -17.169   3.170  1.00  0.00     0.252 C 
HETATM    9  O   UNL     1      42.883 -16.109   3.617  1.00  0.00    -0.268 OA
HETATM   10  H   UNL     1      41.033 -18.081   1.959  1.00  0.00     0.163 HD
BRANCH   8  11
HETATM   11  C   UNL     1      43.250 -18.422   3.313  1.00  0.00     0.032 A 
HETATM   12  C   UNL     1      43.208 -19.463   2.374  1.00  0.00     0.023 A 
HETATM   13  C   UNL     1      44.001 -20.609   2.547  1.00  0.00    -0.061 A 
HETATM   14  C   UNL     1      43.948 -21.732   1.552  1.00  0.00     0.048 C 
HETATM   15  C   UNL     1      44.803 -20.723   3.689  1.00  0.00     0.007 A 
HETATM   16  C   UNL     1      44.832 -19.701   4.637  1.00  0.00     0.002 A 
HETATM   17  C   UNL     1      44.060 -18.555   4.449  1.00  0.00     0.017 A 
ENDBRANCH   8  11
ENDBRANCH   6   7
ENDBRANCH   3   6
BRANCH   2  18
HETATM   18  C   UNL     1      39.504 -13.522   0.657  1.00  0.00     0.076 A 
HETATM   19  C   UNL     1      40.161 -12.447   1.277  1.00  0.00     0.095 A 
HETATM   20  C   UNL     1      39.395 -11.411   1.823  1.00  0.00     0.039 A 
HETATM   21  C   UNL     1      37.999 -11.454   1.769  1.00  0.00     0.003 A 
HETATM   22  C   UNL     1      37.354 -12.527   1.162  1.00  0.00     0.002 A 
HETATM   23  C   UNL     1      38.102 -13.563   0.604  1.00  0.00     0.033 A 
BRANCH  19  24
HETATM   24  O   UNL     1      41.528 -12.405   1.212  1.00  0.00    -0.354 OA
HETATM   25  C   UNL     1      42.076 -11.392   0.372  1.00  0.00     0.210 C 
ENDBRANCH  19  24
ENDBRANCH   2  18
BRANCH   1  26
HETATM   26  S   UNL     1      40.495 -13.586  -2.481  1.00  0.00    -0.090 SA
BRANCH  26  27
HETATM   27  C   UNL     1      39.386 -14.494  -3.596  1.00  0.00     0.082 C 
BRANCH  27  28
HETATM   28  C   UNL     1      37.994 -14.578  -2.978  1.00  0.00     0.006 C 
HETATM   29  C   UNL     1      36.934 -14.835  -4.039  1.00  0.00     0.006 C 
ENDBRANCH  27  28
ENDBRANCH  26  27
ENDBRANCH   1  26
TORSDOF 8
ENDMDL
MODEL 8
REMARK VINA RESULT:      -7.1      1.317      2.036
REMARK  8 active torsions:
REMARK  status: ('A' for Active; 'I' for Inactive)
REMARK    1  A    between atoms: C_2  and  C_3 
REMARK    2  A    between atoms: C_3  and  S_4 
REMARK    3  A    between atoms: S_4  and  C_5 
REMARK    4  A    between atoms: N_6  and  C_7 
REMARK    5  A    between atoms: C_8  and  O_9 
REMARK    6  A    between atoms: C_15  and  C_16 
REMARK    7  A    between atoms: C_16  and  N_17 
REMARK       I    between atoms: N_17  and  C_18 
REMARK    8  A    between atoms: C_18  and  C_19 
ROOT
HETATM    1  C   UNL     1      41.986 -12.772   0.981  1.00  0.00     0.196 A 
HETATM    2  N   UNL     1      40.963 -13.687   0.809  1.00  0.00    -0.271 N 
HETATM    3  C   UNL     1      41.187 -14.631   1.804  1.00  0.00     0.153 A 
HETATM    4  N   UNL     1      42.262 -14.298   2.496  1.00  0.00    -0.132 NA
HETATM    5  N   UNL     1      42.753 -13.126   1.987  1.00  0.00    -0.122 NA
ENDROOT
BRANCH   3   6
HETATM    6  C   UNL     1      40.426 -15.893   1.987  1.00  0.00     0.204 C 
BRANCH   6   7
HETATM    7  N   UNL     1      41.362 -16.988   2.119  1.00  0.00    -0.350 N 
HETATM    8  C   UNL     1      41.671 -17.504   3.358  1.00  0.00     0.252 C 
HETATM    9  O   UNL     1      41.101 -17.141   4.384  1.00  0.00    -0.268 OA
HETATM   10  H   UNL     1      41.985 -17.142   1.337  1.00  0.00     0.163 HD
BRANCH   8  11
HETATM   11  C   UNL     1      42.770 -18.512   3.428  1.00  0.00     0.032 A 
HETATM   12  C   UNL     1      42.946 -19.515   2.464  1.00  0.00     0.023 A 
HETATM   13  C   UNL     1      44.014 -20.421   2.567  1.00  0.00    -0.061 A 
HETATM   14  C   UNL     1      44.197 -21.506   1.546  1.00  0.00     0.048 C 
HETATM   15  C   UNL     1      44.878 -20.341   3.666  1.00  0.00     0.007 A 
HETATM   16  C   UNL     1      44.695 -19.359   4.639  1.00  0.00     0.002 A 
HETATM   17  C   UNL     1      43.646 -18.448   4.520  1.00  0.00     0.017 A 
ENDBRANCH   8  11
ENDBRANCH   6   7
ENDBRANCH   3   6
BRANCH   2  18
HETATM   18  C   UNL     1      39.882 -13.642  -0.106  1.00  0.00     0.076 A 
HETATM   19  C   UNL     1      39.981 -14.246  -1.370  1.00  0.00     0.095 A 
HETATM   20  C   UNL     1      38.888 -14.170  -2.241  1.00  0.00     0.039 A 
HETATM   21  C   UNL     1      37.726 -13.490  -1.867  1.00  0.00     0.003 A 
HETATM   22  C   UNL     1      37.639 -12.885  -0.617  1.00  0.00     0.002 A 
HETATM   23  C   UNL     1      38.714 -12.959   0.267  1.00  0.00     0.033 A 
BRANCH  19  24
HETATM   24  O   UNL     1      41.100 -14.984  -1.645  1.00  0.00    -0.354 OA
HETATM   25  C   UNL     1      41.393 -15.171  -3.028  1.00  0.00     0.210 C 
ENDBRANCH  19  24
ENDBRANCH   2  18
BRANCH   1  26
HETATM   26  S   UNL     1      42.124 -11.246   0.164  1.00  0.00    -0.090 SA
BRANCH  26  27
HETATM   27  C   UNL     1      42.860 -11.801  -1.402  1.00  0.00     0.082 C 
BRANCH  27  28
HETATM   28  C   UNL     1      42.458 -10.847  -2.523  1.00  0.00     0.006 C 
HETATM   29  C   UNL     1      41.128 -11.253  -3.141  1.00  0.00     0.006 C 
ENDBRANCH  27  28
ENDBRANCH  26  27
ENDBRANCH   1  26
TORSDOF 8
ENDMDL
MODEL 9
REMARK VINA RESULT:      -7.1      1.836      3.412
REMARK  8 active torsions:
REMARK  status: ('A' for Active; 'I' for Inactive)
REMARK    1  A    between atoms: C_2  and  C_3 
REMARK    2  A    between atoms: C_3  and  S_4 
REMARK    3  A    between atoms: S_4  and  C_5 
REMARK    4  A    between atoms: N_6  and  C_7 
REMARK    5  A    between atoms: C_8  and  O_9 
REMARK    6  A    between atoms: C_15  and  C_16 
REMARK    7  A    between atoms: C_16  and  N_17 
REMARK       I    between atoms: N_17  and  C_18 
REMARK    8  A    between atoms: C_18  and  C_19 
ROOT
HETATM    1  C   UNL     1      39.353 -14.376   1.181  1.00  0.00     0.196 A 
HETATM    2  N   UNL     1      40.708 -14.111   1.095  1.00  0.00    -0.271 N 
HETATM    3  C   UNL     1      41.256 -14.816   2.161  1.00  0.00     0.153 A 
HETATM    4  N   UNL     1      40.294 -15.437   2.821  1.00  0.00    -0.132 NA
HETATM    5  N   UNL     1      39.105 -15.170   2.198  1.00  0.00    -0.122 NA
ENDROOT
BRANCH   3   6
HETATM    6  C   UNL     1      42.679 -14.779   2.584  1.00  0.00     0.204 C 
BRANCH   6   7
HETATM    7  N   UNL     1      43.050 -16.082   3.089  1.00  0.00    -0.350 N 
HETATM    8  C   UNL     1      43.769 -16.961   2.308  1.00  0.00     0.252 C 
HETATM    9  O   UNL     1      44.214 -16.650   1.206  1.00  0.00    -0.268 OA
HETATM   10  H   UNL     1      42.518 -16.426   3.878  1.00  0.00     0.163 HD
BRANCH   8  11
HETATM   11  C   UNL     1      43.964 -18.344   2.832  1.00  0.00     0.032 A 
HETATM   12  C   UNL     1      43.950 -19.480   2.009  1.00  0.00     0.023 A 
HETATM   13  C   UNL     1      44.165 -20.756   2.554  1.00  0.00    -0.061 A 
HETATM   14  C   UNL     1      44.136 -21.975   1.678  1.00  0.00     0.048 C 
HETATM   15  C   UNL     1      44.350 -20.891   3.935  1.00  0.00     0.007 A 
HETATM   16  C   UNL     1      44.342 -19.767   4.762  1.00  0.00     0.002 A 
HETATM   17  C   UNL     1      44.152 -18.500   4.213  1.00  0.00     0.017 A 
ENDBRANCH   8  11
ENDBRANCH   6   7
ENDBRANCH   3   6
BRANCH   2  18
HETATM   18  C   UNL     1      41.402 -13.367   0.110  1.00  0.00     0.076 A 
HETATM   19  C   UNL     1      41.725 -13.938  -1.132  1.00  0.00     0.095 A 
HETATM   20  C   UNL     1      42.415 -13.164  -2.072  1.00  0.00     0.039 A 
HETATM   21  C   UNL     1      42.794 -11.853  -1.773  1.00  0.00     0.003 A 
HETATM   22  C   UNL     1      42.480 -11.297  -0.537  1.00  0.00     0.002 A 
HETATM   23  C   UNL     1      41.784 -12.050   0.408  1.00  0.00     0.033 A 
BRANCH  19  24
HETATM   24  O   UNL     1      41.242 -15.189  -1.410  1.00  0.00    -0.354 OA
HETATM   25  C   UNL     1      40.944 -15.445  -2.780  1.00  0.00     0.210 C 
ENDBRANCH  19  24
ENDBRANCH   2  18
BRANCH   1  26
HETATM   26  S   UNL     1      38.162 -13.939  -0.004  1.00  0.00    -0.090 SA
BRANCH  26  27
HETATM   27  C   UNL     1      37.229 -12.699   0.939  1.00  0.00     0.082 C 
BRANCH  27  28
HETATM   28  C   UNL     1      38.176 -11.609   1.431  1.00  0.00     0.006 C 
HETATM   29  C   UNL     1      38.427 -10.568   0.350  1.00  0.00     0.006 C 
ENDBRANCH  27  28
ENDBRANCH  26  27
ENDBRANCH   1  26
TORSDOF 8
ENDMDL
MODEL 10
REMARK VINA RESULT:      -6.9      3.725      7.600
REMARK  8 active torsions:
REMARK  status: ('A' for Active; 'I' for Inactive)
REMARK    1  A    between atoms: C_2  and  C_3 
REMARK    2  A    between atoms: C_3  and  S_4 
REMARK    3  A    between atoms: S_4  and  C_5 
REMARK    4  A    between atoms: N_6  and  C_7 
REMARK    5  A    between atoms: C_8  and  O_9 
REMARK    6  A    between atoms: C_15  and  C_16 
REMARK    7  A    between atoms: C_16  and  N_17 
REMARK       I    between atoms: N_17  and  C_18 
REMARK    8  A    between atoms: C_18  and  C_19 
ROOT
HETATM    1  C   UNL     1      43.054 -14.054   5.794  1.00  0.00     0.196 A 
HETATM    2  N   UNL     1      42.418 -14.842   4.852  1.00  0.00    -0.271 N 
HETATM    3  C   UNL     1      41.311 -14.090   4.478  1.00  0.00     0.153 A 
HETATM    4  N   UNL     1      41.298 -12.955   5.155  1.00  0.00    -0.132 NA
HETATM    5  N   UNL     1      42.397 -12.930   5.969  1.00  0.00    -0.122 NA
ENDROOT
BRANCH   3   6
HETATM    6  C   UNL     1      40.230 -14.535   3.561  1.00  0.00     0.204 C 
BRANCH   6   7
HETATM    7  N   UNL     1      40.521 -14.054   2.228  1.00  0.00    -0.350 N 
HETATM    8  C   UNL     1      40.661 -14.935   1.178  1.00  0.00     0.252 C 
HETATM    9  O   UNL     1      40.447 -16.139   1.294  1.00  0.00    -0.268 OA
HETATM   10  H   UNL     1      40.908 -13.123   2.162  1.00  0.00     0.163 HD
BRANCH   8  11
HETATM   11  C   UNL     1      41.129 -14.380  -0.126  1.00  0.00     0.032 A 
HETATM   12  C   UNL     1      41.823 -13.167  -0.232  1.00  0.00     0.023 A 
HETATM   13  C   UNL     1      42.263 -12.705  -1.484  1.00  0.00    -0.061 A 
HETATM   14  C   UNL     1      42.993 -11.400  -1.603  1.00  0.00     0.048 C 
HETATM   15  C   UNL     1      41.963 -13.447  -2.633  1.00  0.00     0.007 A 
HETATM   16  C   UNL     1      41.253 -14.644  -2.536  1.00  0.00     0.002 A 
HETATM   17  C   UNL     1      40.839 -15.109  -1.288  1.00  0.00     0.017 A 
ENDBRANCH   8  11
ENDBRANCH   6   7
ENDBRANCH   3   6
BRANCH   2  18
HETATM   18  C   UNL     1      42.830 -16.088   4.319  1.00  0.00     0.076 A 
HETATM   19  C   UNL     1      42.619 -17.282   5.028  1.00  0.00     0.095 A 
HETATM   20  C   UNL     1      43.049 -18.488   4.462  1.00  0.00     0.039 A 
HETATM   21  C   UNL     1      43.693 -18.502   3.222  1.00  0.00     0.003 A 
HETATM   22  C   UNL     1      43.907 -17.315   2.530  1.00  0.00     0.002 A 
HETATM   23  C   UNL     1      43.478 -16.105   3.074  1.00  0.00     0.033 A 
BRANCH  19  24
HETATM   24  O   UNL     1      41.894 -17.223   6.188  1.00  0.00    -0.354 OA
HETATM   25  C   UNL     1      42.625 -17.471   7.387  1.00  0.00     0.210 C 
ENDBRANCH  19  24
ENDBRANCH   2  18
BRANCH   1  26
HETATM   26  S   UNL     1      44.617 -14.367   6.482  1.00  0.00    -0.090 SA
BRANCH  26  27
HETATM   27  C   UNL     1      44.519 -13.317   7.960  1.00  0.00     0.082 C 
BRANCH  27  28
HETATM   28  C   UNL     1      45.852 -12.606   8.174  1.00  0.00     0.006 C 
HETATM   29  C   UNL     1      45.747 -11.555   9.268  1.00  0.00     0.006 C 
ENDBRANCH  27  28
ENDBRANCH  26  27
ENDBRANCH   1  26
TORSDOF 8
ENDMDL
