MODEL 1
REMARK VINA RESULT:      -7.9      0.000      0.000
REMARK  9 active torsions:
REMARK  status: ('A' for Active; 'I' for Inactive)
REMARK    1  A    between atoms: C_2  and  N_3 
REMARK    2  A    between atoms: N_3  and  C_30 
REMARK    3  A    between atoms: N_3  and  C_5 
REMARK    4  A    between atoms: C_5  and  C_6 
REMARK    5  A    between atoms: C_5  and  C_14 
REMARK    6  A    between atoms: C_8  and  O_9 
REMARK    7  A    between atoms: C_14  and  N_15 
REMARK       I    between atoms: N_15  and  C_16 
REMARK    8  A    between atoms: C_16  and  C_17 
REMARK    9  A    between atoms: C_18  and  N_19 
ROOT
HETATM    1  C   UNL     1      40.779 -16.637   0.863  1.00  0.00     0.161 C 
ENDROOT
BRANCH   1   2
HETATM    2  C   UNL     1      41.163 -15.122   0.964  1.00  0.00     0.238 C 
BRANCH   2   3
HETATM    3  N   UNL     1      40.122 -14.304   1.788  1.00  0.00    -0.062 N 
HETATM    4  H   UNL     1      40.069 -13.392   1.320  1.00  0.00     0.280 HD
BRANCH   3   5
HETATM    5  C   UNL     1      40.610 -13.987   3.201  1.00  0.00     0.231 C 
HETATM    6  C   UNL     1      42.111 -13.769   3.281  1.00  0.00     0.034 C 
ENDBRANCH   3   5
BRANCH   3   7
HETATM    7  C   UNL     1      38.722 -14.896   1.740  1.00  0.00     0.231 C 
HETATM    8  C   UNL     1      37.789 -14.092   0.849  1.00  0.00     0.034 C 
ENDBRANCH   3   7
ENDBRANCH   2   3
BRANCH   2   9
HETATM    9  C   UNL     1      41.340 -14.538  -0.435  1.00  0.00    -0.023 A 
HETATM   10  C   UNL     1      40.888 -15.216  -1.583  1.00  0.00     0.046 A 
HETATM   11  C   UNL     1      41.059 -14.654  -2.850  1.00  0.00     0.068 A 
HETATM   12  C   UNL     1      41.621 -13.387  -2.980  1.00  0.00     0.037 A 
HETATM   13  C   UNL     1      42.073 -12.705  -1.854  1.00  0.00     0.003 A 
HETATM   14  C   UNL     1      41.949 -13.282  -0.591  1.00  0.00     0.009 A 
BRANCH  11  15
HETATM   15  O   UNL     1      40.644 -15.255  -4.004  1.00  0.00    -0.356 OA
HETATM   16  C   UNL     1      39.374 -15.895  -3.904  1.00  0.00     0.210 C 
ENDBRANCH  11  15
ENDBRANCH   2   9
ENDBRANCH   1   2
BRANCH   1  17
HETATM   17  N   UNL     1      41.447 -17.472   1.840  1.00  0.00    -0.354 N 
HETATM   18  C   UNL     1      42.742 -17.891   1.605  1.00  0.00     0.253 C 
HETATM   19  O   UNL     1      43.393 -17.506   0.641  1.00  0.00    -0.268 OA
HETATM   20  H   UNL     1      40.919 -17.954   2.562  1.00  0.00     0.162 HD
BRANCH  18  21
HETATM   21  C   UNL     1      43.281 -18.818   2.623  1.00  0.00     0.053 A 
HETATM   22  C   UNL     1      43.337 -18.465   3.987  1.00  0.00     0.026 A 
HETATM   23  C   UNL     1      43.903 -19.417   4.853  1.00  0.00     0.025 A 
HETATM   24  C   UNL     1      44.419 -20.633   4.383  1.00  0.00     0.008 A 
HETATM   25  C   UNL     1      44.375 -20.951   3.025  1.00  0.00    -0.061 A 
HETATM   26  C   UNL     1      44.930 -22.247   2.512  1.00  0.00     0.048 C 
HETATM   27  C   UNL     1      43.795 -20.035   2.144  1.00  0.00     0.025 A 
BRANCH  22  28
HETATM   28  N   UNL     1      42.835 -17.233   4.450  1.00  0.00    -0.283 NA
HETATM   29  C   UNL     1      43.708 -16.380   5.283  1.00  0.00     0.096 C 
HETATM   30  C   UNL     1      43.044 -16.346   6.652  1.00  0.00     0.016 C 
HETATM   31  C   UNL     1      41.573 -16.392   6.292  1.00  0.00     0.016 C 
HETATM   32  C   UNL     1      41.539 -17.409   5.154  1.00  0.00     0.096 C 
ENDBRANCH  22  28
ENDBRANCH  18  21
ENDBRANCH   1  17
TORSDOF 9
ENDMDL
MODEL 2
REMARK VINA RESULT:      -7.8      2.020      4.488
REMARK  9 active torsions:
REMARK  status: ('A' for Active; 'I' for Inactive)
REMARK    1  A    between atoms: C_2  and  N_3 
REMARK    2  A    between atoms: N_3  and  C_30 
REMARK    3  A    between atoms: N_3  and  C_5 
REMARK    4  A    between atoms: C_5  and  C_6 
REMARK    5  A    between atoms: C_5  and  C_14 
REMARK    6  A    between atoms: C_8  and  O_9 
REMARK    7  A    between atoms: C_14  and  N_15 
REMARK       I    between atoms: N_15  and  C_16 
REMARK    8  A    between atoms: C_16  and  C_17 
REMARK    9  A    between atoms: C_18  and  N_19 
ROOT
HETATM    1  C   UNL     1      41.517 -16.140   1.492  1.00  0.00     0.161 C 
ENDROOT
BRANCH   1   2
HETATM    2  C   UNL     1      40.404 -15.358   2.268  1.00  0.00     0.238 C 
BRANCH   2   3
HETATM    3  N   UNL     1      39.770 -14.224   1.406  1.00  0.00    -0.062 N 
HETATM    4  H   UNL     1      39.862 -13.374   1.974  1.00  0.00     0.280 HD
BRANCH   3   5
HETATM    5  C   UNL     1      38.264 -14.403   1.216  1.00  0.00     0.231 C 
HETATM    6  C   UNL     1      37.573 -13.153   0.702  1.00  0.00     0.034 C 
ENDBRANCH   3   5
BRANCH   3   7
HETATM    7  C   UNL     1      40.526 -13.963   0.112  1.00  0.00     0.231 C 
HETATM    8  C   UNL     1      41.409 -12.729   0.202  1.00  0.00     0.034 C 
ENDBRANCH   3   7
ENDBRANCH   2   3
BRANCH   2   9
HETATM    9  C   UNL     1      40.973 -14.806   3.572  1.00  0.00    -0.023 A 
HETATM   10  C   UNL     1      42.338 -14.490   3.709  1.00  0.00     0.046 A 
HETATM   11  C   UNL     1      42.828 -13.980   4.914  1.00  0.00     0.068 A 
HETATM   12  C   UNL     1      41.956 -13.721   5.968  1.00  0.00     0.037 A 
HETATM   13  C   UNL     1      40.604 -14.029   5.847  1.00  0.00     0.003 A 
HETATM   14  C   UNL     1      40.117 -14.583   4.664  1.00  0.00     0.009 A 
BRANCH  11  15
HETATM   15  O   UNL     1      44.138 -13.650   5.116  1.00  0.00    -0.356 OA
HETATM   16  C   UNL     1      44.589 -13.843   6.455  1.00  0.00     0.210 C 
ENDBRANCH  11  15
ENDBRANCH   2   9
ENDBRANCH   1   2
BRANCH   1  17
HETATM   17  N   UNL     1      42.028 -17.289   2.212  1.00  0.00    -0.354 N 
HETATM   18  C   UNL     1      43.389 -17.527   2.237  1.00  0.00     0.253 C 
HETATM   19  O   UNL     1      44.200 -16.748   1.752  1.00  0.00    -0.268 OA
HETATM   20  H   UNL     1      41.412 -18.049   2.486  1.00  0.00     0.162 HD
BRANCH  18  21
HETATM   21  C   UNL     1      43.780 -18.779   2.916  1.00  0.00     0.053 A 
HETATM   22  C   UNL     1      43.964 -18.836   4.313  1.00  0.00     0.026 A 
HETATM   23  C   UNL     1      44.370 -20.075   4.837  1.00  0.00     0.025 A 
HETATM   24  C   UNL     1      44.617 -21.184   4.014  1.00  0.00     0.008 A 
HETATM   25  C   UNL     1      44.452 -21.099   2.631  1.00  0.00    -0.061 A 
HETATM   26  C   UNL     1      44.719 -22.276   1.742  1.00  0.00     0.048 C 
HETATM   27  C   UNL     1      44.024 -19.887   2.085  1.00  0.00     0.025 A 
BRANCH  22  28
HETATM   28  N   UNL     1      43.733 -17.713   5.132  1.00  0.00    -0.283 NA
HETATM   29  C   UNL     1      44.662 -17.450   6.251  1.00  0.00     0.096 C 
HETATM   30  C   UNL     1      43.830 -17.643   7.512  1.00  0.00     0.016 C 
HETATM   31  C   UNL     1      42.468 -17.142   7.072  1.00  0.00     0.016 C 
HETATM   32  C   UNL     1      42.345 -17.707   5.660  1.00  0.00     0.096 C 
ENDBRANCH  22  28
ENDBRANCH  18  21
ENDBRANCH   1  17
TORSDOF 9
ENDMDL
MODEL 3
REMARK VINA RESULT:      -7.7      1.658      2.395
REMARK  9 active torsions:
REMARK  status: ('A' for Active; 'I' for Inactive)
REMARK    1  A    between atoms: C_2  and  N_3 
REMARK    2  A    between atoms: N_3  and  C_30 
REMARK    3  A    between atoms: N_3  and  C_5 
REMARK    4  A    between atoms: C_5  and  C_6 
REMARK    5  A    between atoms: C_5  and  C_14 
REMARK    6  A    between atoms: C_8  and  O_9 
REMARK    7  A    between atoms: C_14  and  N_15 
REMARK       I    between atoms: N_15  and  C_16 
REMARK    8  A    between atoms: C_16  and  C_17 
REMARK    9  A    between atoms: C_18  and  N_19 
ROOT
HETATM    1  C   UNL     1      41.551 -15.717  -0.131  1.00  0.00     0.161 C 
ENDROOT
BRANCH   1   2
HETATM    2  C   UNL     1      41.716 -14.197   0.207  1.00  0.00     0.238 C 
BRANCH   2   3
HETATM    3  N   UNL     1      40.534 -13.651   1.065  1.00  0.00    -0.062 N 
HETATM    4  H   UNL     1      40.298 -12.744   0.647  1.00  0.00     0.280 HD
BRANCH   3   5
HETATM    5  C   UNL     1      40.952 -13.321   2.497  1.00  0.00     0.231 C 
HETATM    6  C   UNL     1      39.909 -13.710   3.530  1.00  0.00     0.034 C 
ENDBRANCH   3   5
BRANCH   3   7
HETATM    7  C   UNL     1      39.281 -14.509   0.972  1.00  0.00     0.231 C 
HETATM    8  C   UNL     1      38.186 -13.838   0.160  1.00  0.00     0.034 C 
ENDBRANCH   3   7
ENDBRANCH   2   3
BRANCH   2   9
HETATM    9  C   UNL     1      41.877 -13.396  -1.082  1.00  0.00    -0.023 A 
HETATM   10  C   UNL     1      42.499 -12.132  -1.096  1.00  0.00     0.046 A 
HETATM   11  C   UNL     1      42.637 -11.425  -2.292  1.00  0.00     0.068 A 
HETATM   12  C   UNL     1      42.217 -11.994  -3.492  1.00  0.00     0.037 A 
HETATM   13  C   UNL     1      41.599 -13.242  -3.493  1.00  0.00     0.003 A 
HETATM   14  C   UNL     1      41.416 -13.932  -2.296  1.00  0.00     0.009 A 
BRANCH  11  15
HETATM   15  O   UNL     1      43.231 -10.198  -2.379  1.00  0.00    -0.356 OA
HETATM   16  C   UNL     1      43.794  -9.734  -1.154  1.00  0.00     0.210 C 
ENDBRANCH  11  15
ENDBRANCH   2   9
ENDBRANCH   1   2
BRANCH   1  17
HETATM   17  N   UNL     1      42.325 -16.590   0.728  1.00  0.00    -0.354 N 
HETATM   18  C   UNL     1      41.709 -17.664   1.340  1.00  0.00     0.253 C 
HETATM   19  O   UNL     1      40.546 -17.972   1.111  1.00  0.00    -0.268 OA
HETATM   20  H   UNL     1      43.231 -16.300   1.085  1.00  0.00     0.162 HD
BRANCH  18  21
HETATM   21  C   UNL     1      42.575 -18.420   2.268  1.00  0.00     0.053 A 
HETATM   22  C   UNL     1      42.886 -17.931   3.554  1.00  0.00     0.026 A 
HETATM   23  C   UNL     1      43.748 -18.725   4.330  1.00  0.00     0.025 A 
HETATM   24  C   UNL     1      44.300 -19.918   3.841  1.00  0.00     0.008 A 
HETATM   25  C   UNL     1      43.999 -20.370   2.556  1.00  0.00    -0.061 A 
HETATM   26  C   UNL     1      44.589 -21.641   2.021  1.00  0.00     0.048 C 
HETATM   27  C   UNL     1      43.124 -19.615   1.771  1.00  0.00     0.025 A 
BRANCH  22  28
HETATM   28  N   UNL     1      42.343 -16.722   4.033  1.00  0.00    -0.283 NA
HETATM   29  C   UNL     1      43.263 -15.612   4.357  1.00  0.00     0.096 C 
HETATM   30  C   UNL     1      43.147 -15.426   5.863  1.00  0.00     0.016 C 
HETATM   31  C   UNL     1      41.687 -15.753   6.111  1.00  0.00     0.016 C 
HETATM   32  C   UNL     1      41.455 -16.955   5.200  1.00  0.00     0.096 C 
ENDBRANCH  22  28
ENDBRANCH  18  21
ENDBRANCH   1  17
TORSDOF 9
ENDMDL
MODEL 4
REMARK VINA RESULT:      -7.7      1.819      3.977
REMARK  9 active torsions:
REMARK  status: ('A' for Active; 'I' for Inactive)
REMARK    1  A    between atoms: C_2  and  N_3 
REMARK    2  A    between atoms: N_3  and  C_30 
REMARK    3  A    between atoms: N_3  and  C_5 
REMARK    4  A    between atoms: C_5  and  C_6 
REMARK    5  A    between atoms: C_5  and  C_14 
REMARK    6  A    between atoms: C_8  and  O_9 
REMARK    7  A    between atoms: C_14  and  N_15 
REMARK       I    between atoms: N_15  and  C_16 
REMARK    8  A    between atoms: C_16  and  C_17 
REMARK    9  A    between atoms: C_18  and  N_19 
ROOT
HETATM    1  C   UNL     1      41.685 -16.833   1.077  1.00  0.00     0.161 C 
ENDROOT
BRANCH   1   2
HETATM    2  C   UNL     1      40.501 -15.941   1.582  1.00  0.00     0.238 C 
BRANCH   2   3
HETATM    3  N   UNL     1      39.855 -15.111   0.430  1.00  0.00    -0.062 N 
HETATM    4  H   UNL     1      39.162 -15.737   0.006  1.00  0.00     0.280 HD
BRANCH   3   5
HETATM    5  C   UNL     1      40.843 -14.804  -0.696  1.00  0.00     0.231 C 
HETATM    6  C   UNL     1      41.246 -13.342  -0.755  1.00  0.00     0.034 C 
ENDBRANCH   3   5
BRANCH   3   7
HETATM    7  C   UNL     1      39.091 -13.893   0.927  1.00  0.00     0.231 C 
HETATM    8  C   UNL     1      37.587 -14.064   0.790  1.00  0.00     0.034 C 
ENDBRANCH   3   7
ENDBRANCH   2   3
BRANCH   2   9
HETATM    9  C   UNL     1      40.981 -15.035   2.712  1.00  0.00    -0.023 A 
HETATM   10  C   UNL     1      40.209 -14.824   3.871  1.00  0.00     0.046 A 
HETATM   11  C   UNL     1      40.678 -13.993   4.891  1.00  0.00     0.068 A 
HETATM   12  C   UNL     1      41.942 -13.418   4.797  1.00  0.00     0.037 A 
HETATM   13  C   UNL     1      42.716 -13.617   3.657  1.00  0.00     0.003 A 
HETATM   14  C   UNL     1      42.233 -14.406   2.614  1.00  0.00     0.009 A 
BRANCH  11  15
HETATM   15  O   UNL     1      39.984 -13.746   6.041  1.00  0.00    -0.356 OA
HETATM   16  C   UNL     1      39.445 -12.428   6.126  1.00  0.00     0.210 C 
ENDBRANCH  11  15
ENDBRANCH   2   9
ENDBRANCH   1   2
BRANCH   1  17
HETATM   17  N   UNL     1      42.150 -17.791   2.059  1.00  0.00    -0.354 N 
HETATM   18  C   UNL     1      43.506 -17.955   2.261  1.00  0.00     0.253 C 
HETATM   19  O   UNL     1      44.342 -17.250   1.709  1.00  0.00    -0.268 OA
HETATM   20  H   UNL     1      41.529 -18.510   2.421  1.00  0.00     0.162 HD
BRANCH  18  21
HETATM   21  C   UNL     1      43.859 -19.029   3.213  1.00  0.00     0.053 A 
HETATM   22  C   UNL     1      43.927 -18.792   4.602  1.00  0.00     0.026 A 
HETATM   23  C   UNL     1      44.307 -19.884   5.401  1.00  0.00     0.025 A 
HETATM   24  C   UNL     1      44.639 -21.129   4.848  1.00  0.00     0.008 A 
HETATM   25  C   UNL     1      44.589 -21.334   3.468  1.00  0.00    -0.061 A 
HETATM   26  C   UNL     1      44.948 -22.660   2.866  1.00  0.00     0.048 C 
HETATM   27  C   UNL     1      44.189 -20.274   2.651  1.00  0.00     0.025 A 
BRANCH  22  28
HETATM   28  N   UNL     1      43.610 -17.533   5.151  1.00  0.00    -0.283 NA
HETATM   29  C   UNL     1      44.466 -16.996   6.229  1.00  0.00     0.096 C 
HETATM   30  C   UNL     1      43.573 -16.956   7.462  1.00  0.00     0.016 C 
HETATM   31  C   UNL     1      42.221 -16.624   6.863  1.00  0.00     0.016 C 
HETATM   32  C   UNL     1      42.196 -17.480   5.600  1.00  0.00     0.096 C 
ENDBRANCH  22  28
ENDBRANCH  18  21
ENDBRANCH   1  17
TORSDOF 9
ENDMDL
MODEL 5
REMARK VINA RESULT:      -7.4      2.499      3.500
REMARK  9 active torsions:
REMARK  status: ('A' for Active; 'I' for Inactive)
REMARK    1  A    between atoms: C_2  and  N_3 
REMARK    2  A    between atoms: N_3  and  C_30 
REMARK    3  A    between atoms: N_3  and  C_5 
REMARK    4  A    between atoms: C_5  and  C_6 
REMARK    5  A    between atoms: C_5  and  C_14 
REMARK    6  A    between atoms: C_8  and  O_9 
REMARK    7  A    between atoms: C_14  and  N_15 
REMARK       I    between atoms: N_15  and  C_16 
REMARK    8  A    between atoms: C_16  and  C_17 
REMARK    9  A    between atoms: C_18  and  N_19 
ROOT
HETATM    1  C   UNL     1      40.935 -16.291   1.598  1.00  0.00     0.161 C 
ENDROOT
BRANCH   1   2
HETATM    2  C   UNL     1      41.041 -14.862   2.231  1.00  0.00     0.238 C 
BRANCH   2   3
HETATM    3  N   UNL     1      41.235 -14.915   3.778  1.00  0.00    -0.062 N 
HETATM    4  H   UNL     1      41.510 -15.883   3.979  1.00  0.00     0.280 HD
BRANCH   3   5
HETATM    5  C   UNL     1      39.924 -14.719   4.540  1.00  0.00     0.231 C 
HETATM    6  C   UNL     1      40.053 -13.767   5.716  1.00  0.00     0.034 C 
ENDBRANCH   3   5
BRANCH   3   7
HETATM    7  C   UNL     1      42.370 -14.031   4.270  1.00  0.00     0.231 C 
HETATM    8  C   UNL     1      43.546 -14.020   3.307  1.00  0.00     0.034 C 
ENDBRANCH   3   7
ENDBRANCH   2   3
BRANCH   2   9
HETATM    9  C   UNL     1      39.811 -14.039   1.859  1.00  0.00    -0.023 A 
HETATM   10  C   UNL     1      39.786 -12.638   2.003  1.00  0.00     0.046 A 
HETATM   11  C   UNL     1      38.648 -11.911   1.648  1.00  0.00     0.068 A 
HETATM   12  C   UNL     1      37.551 -12.560   1.088  1.00  0.00     0.037 A 
HETATM   13  C   UNL     1      37.561 -13.945   0.940  1.00  0.00     0.003 A 
HETATM   14  C   UNL     1      38.676 -14.682   1.337  1.00  0.00     0.009 A 
BRANCH  11  15
HETATM   15  O   UNL     1      38.556 -10.552   1.759  1.00  0.00    -0.356 OA
HETATM   16  C   UNL     1      37.382 -10.100   2.431  1.00  0.00     0.210 C 
ENDBRANCH  11  15
ENDBRANCH   2   9
ENDBRANCH   1   2
BRANCH   1  17
HETATM   17  N   UNL     1      41.607 -17.318   2.367  1.00  0.00    -0.354 N 
HETATM   18  C   UNL     1      42.933 -17.604   2.108  1.00  0.00     0.253 C 
HETATM   19  O   UNL     1      43.602 -16.955   1.313  1.00  0.00    -0.268 OA
HETATM   20  H   UNL     1      41.077 -17.993   2.911  1.00  0.00     0.162 HD
BRANCH  18  21
HETATM   21  C   UNL     1      43.480 -18.735   2.886  1.00  0.00     0.053 A 
HETATM   22  C   UNL     1      43.683 -18.646   4.278  1.00  0.00     0.026 A 
HETATM   23  C   UNL     1      44.241 -19.776   4.900  1.00  0.00     0.025 A 
HETATM   24  C   UNL     1      44.612 -20.916   4.172  1.00  0.00     0.008 A 
HETATM   25  C   UNL     1      44.425 -20.973   2.790  1.00  0.00    -0.061 A 
HETATM   26  C   UNL     1      44.824 -22.185   2.002  1.00  0.00     0.048 C 
HETATM   27  C   UNL     1      43.848 -19.875   2.149  1.00  0.00     0.025 A 
BRANCH  22  28
HETATM   28  N   UNL     1      43.325 -17.490   5.001  1.00  0.00    -0.283 NA
HETATM   29  C   UNL     1      44.306 -16.914   5.945  1.00  0.00     0.096 C 
HETATM   30  C   UNL     1      43.686 -17.095   7.323  1.00  0.00     0.016 C 
HETATM   31  C   UNL     1      42.208 -16.922   7.031  1.00  0.00     0.016 C 
HETATM   32  C   UNL     1      42.038 -17.678   5.717  1.00  0.00     0.096 C 
ENDBRANCH  22  28
ENDBRANCH  18  21
ENDBRANCH   1  17
TORSDOF 9
ENDMDL
MODEL 6
REMARK VINA RESULT:      -7.2      2.124      7.884
REMARK  9 active torsions:
REMARK  status: ('A' for Active; 'I' for Inactive)
REMARK    1  A    between atoms: C_2  and  N_3 
REMARK    2  A    between atoms: N_3  and  C_30 
REMARK    3  A    between atoms: N_3  and  C_5 
REMARK    4  A    between atoms: C_5  and  C_6 
REMARK    5  A    between atoms: C_5  and  C_14 
REMARK    6  A    between atoms: C_8  and  O_9 
REMARK    7  A    between atoms: C_14  and  N_15 
REMARK       I    between atoms: N_15  and  C_16 
REMARK    8  A    between atoms: C_16  and  C_17 
REMARK    9  A    between atoms: C_18  and  N_19 
ROOT
HETATM    1  C   UNL     1      42.830 -16.103   2.998  1.00  0.00     0.161 C 
ENDROOT
BRANCH   1   2
HETATM    2  C   UNL     1      42.272 -16.964   4.182  1.00  0.00     0.238 C 
BRANCH   2   3
HETATM    3  N   UNL     1      42.209 -16.160   5.517  1.00  0.00    -0.062 N 
HETATM    4  H   UNL     1      42.455 -16.837   6.248  1.00  0.00     0.280 HD
BRANCH   3   5
HETATM    5  C   UNL     1      40.790 -15.712   5.865  1.00  0.00     0.231 C 
HETATM    6  C   UNL     1      40.574 -14.219   5.690  1.00  0.00     0.034 C 
ENDBRANCH   3   5
BRANCH   3   7
HETATM    7  C   UNL     1      43.242 -15.046   5.594  1.00  0.00     0.231 C 
HETATM    8  C   UNL     1      44.222 -15.251   6.737  1.00  0.00     0.034 C 
ENDBRANCH   3   7
ENDBRANCH   2   3
BRANCH   2   9
HETATM    9  C   UNL     1      43.110 -18.230   4.340  1.00  0.00    -0.023 A 
HETATM   10  C   UNL     1      43.623 -18.922   3.227  1.00  0.00     0.046 A 
HETATM   11  C   UNL     1      44.392 -20.075   3.404  1.00  0.00     0.068 A 
HETATM   12  C   UNL     1      44.708 -20.512   4.687  1.00  0.00     0.037 A 
HETATM   13  C   UNL     1      44.207 -19.838   5.797  1.00  0.00     0.003 A 
HETATM   14  C   UNL     1      43.400 -18.714   5.626  1.00  0.00     0.009 A 
BRANCH  11  15
HETATM   15  O   UNL     1      44.923 -20.793   2.371  1.00  0.00    -0.356 OA
HETATM   16  C   UNL     1      44.044 -21.780   1.834  1.00  0.00     0.210 C 
ENDBRANCH  11  15
ENDBRANCH   2   9
ENDBRANCH   1   2
BRANCH   1  17
HETATM   17  N   UNL     1      41.817 -15.321   2.321  1.00  0.00    -0.354 N 
HETATM   18  C   UNL     1      42.015 -13.967   2.133  1.00  0.00     0.253 C 
HETATM   19  O   UNL     1      43.064 -13.409   2.431  1.00  0.00    -0.268 OA
HETATM   20  H   UNL     1      40.874 -15.680   2.203  1.00  0.00     0.162 HD
BRANCH  18  21
HETATM   21  C   UNL     1      40.871 -13.259   1.521  1.00  0.00     0.053 A 
HETATM   22  C   UNL     1      40.653 -13.272   0.128  1.00  0.00     0.026 A 
HETATM   23  C   UNL     1      39.551 -12.533  -0.336  1.00  0.00     0.025 A 
HETATM   24  C   UNL     1      38.736 -11.791   0.531  1.00  0.00     0.008 A 
HETATM   25  C   UNL     1      38.985 -11.772   1.904  1.00  0.00    -0.061 A 
HETATM   26  C   UNL     1      38.124 -10.977   2.839  1.00  0.00     0.048 C 
HETATM   27  C   UNL     1      40.058 -12.518   2.397  1.00  0.00     0.025 A 
BRANCH  22  28
HETATM   28  N   UNL     1      41.486 -14.004  -0.741  1.00  0.00    -0.283 NA
HETATM   29  C   UNL     1      42.196 -13.282  -1.817  1.00  0.00     0.096 C 
HETATM   30  C   UNL     1      41.594 -13.807  -3.113  1.00  0.00     0.016 C 
HETATM   31  C   UNL     1      41.307 -15.254  -2.764  1.00  0.00     0.016 C 
HETATM   32  C   UNL     1      40.763 -15.153  -1.342  1.00  0.00     0.096 C 
ENDBRANCH  22  28
ENDBRANCH  18  21
ENDBRANCH   1  17
TORSDOF 9
ENDMDL
MODEL 7
REMARK VINA RESULT:      -7.2      2.624      7.404
REMARK  9 active torsions:
REMARK  status: ('A' for Active; 'I' for Inactive)
REMARK    1  A    between atoms: C_2  and  N_3 
REMARK    2  A    between atoms: N_3  and  C_30 
REMARK    3  A    between atoms: N_3  and  C_5 
REMARK    4  A    between atoms: C_5  and  C_6 
REMARK    5  A    between atoms: C_5  and  C_14 
REMARK    6  A    between atoms: C_8  and  O_9 
REMARK    7  A    between atoms: C_14  and  N_15 
REMARK       I    between atoms: N_15  and  C_16 
REMARK    8  A    between atoms: C_16  and  C_17 
REMARK    9  A    between atoms: C_18  and  N_19 
ROOT
HETATM    1  C   UNL     1      40.529 -16.809   2.430  1.00  0.00     0.161 C 
ENDROOT
BRANCH   1   2
HETATM    2  C   UNL     1      41.359 -17.093   3.728  1.00  0.00     0.238 C 
BRANCH   2   3
HETATM    3  N   UNL     1      41.976 -15.793   4.329  1.00  0.00    -0.062 N 
HETATM    4  H   UNL     1      41.371 -15.033   3.998  1.00  0.00     0.280 HD
BRANCH   3   5
HETATM    5  C   UNL     1      43.353 -15.474   3.748  1.00  0.00     0.231 C 
HETATM    6  C   UNL     1      43.431 -14.098   3.113  1.00  0.00     0.034 C 
ENDBRANCH   3   5
BRANCH   3   7
HETATM    7  C   UNL     1      41.926 -15.754   5.849  1.00  0.00     0.231 C 
HETATM    8  C   UNL     1      40.808 -16.619   6.408  1.00  0.00     0.034 C 
ENDBRANCH   3   7
ENDBRANCH   2   3
BRANCH   2   9
HETATM    9  C   UNL     1      42.440 -18.130   3.434  1.00  0.00    -0.023 A 
HETATM   10  C   UNL     1      43.216 -18.700   4.461  1.00  0.00     0.046 A 
HETATM   11  C   UNL     1      44.194 -19.652   4.162  1.00  0.00     0.068 A 
HETATM   12  C   UNL     1      44.364 -20.090   2.851  1.00  0.00     0.037 A 
HETATM   13  C   UNL     1      43.604 -19.534   1.826  1.00  0.00     0.003 A 
HETATM   14  C   UNL     1      42.659 -18.549   2.112  1.00  0.00     0.009 A 
BRANCH  11  15
HETATM   15  O   UNL     1      44.981 -20.248   5.106  1.00  0.00    -0.356 OA
HETATM   16  C   UNL     1      44.759 -21.649   5.252  1.00  0.00     0.210 C 
ENDBRANCH  11  15
ENDBRANCH   2   9
ENDBRANCH   1   2
BRANCH   1  17
HETATM   17  N   UNL     1      39.749 -15.590   2.495  1.00  0.00    -0.354 N 
HETATM   18  C   UNL     1      40.050 -14.545   1.643  1.00  0.00     0.253 C 
HETATM   19  O   UNL     1      40.894 -14.638   0.761  1.00  0.00    -0.268 OA
HETATM   20  H   UNL     1      39.161 -15.390   3.298  1.00  0.00     0.162 HD
BRANCH  18  21
HETATM   21  C   UNL     1      39.253 -13.321   1.870  1.00  0.00     0.053 A 
HETATM   22  C   UNL     1      39.301 -12.625   3.096  1.00  0.00     0.026 A 
HETATM   23  C   UNL     1      38.472 -11.495   3.202  1.00  0.00     0.025 A 
HETATM   24  C   UNL     1      37.614 -11.103   2.164  1.00  0.00     0.008 A 
HETATM   25  C   UNL     1      37.565 -11.821   0.969  1.00  0.00    -0.061 A 
HETATM   26  C   UNL     1      36.647 -11.414  -0.145  1.00  0.00     0.048 C 
HETATM   27  C   UNL     1      38.397 -12.933   0.825  1.00  0.00     0.025 A 
BRANCH  22  28
HETATM   28  N   UNL     1      40.151 -13.034   4.143  1.00  0.00    -0.283 NA
HETATM   29  C   UNL     1      39.547 -13.410   5.438  1.00  0.00     0.096 C 
HETATM   30  C   UNL     1      40.031 -12.354   6.423  1.00  0.00     0.016 C 
HETATM   31  C   UNL     1      41.423 -12.052   5.905  1.00  0.00     0.016 C 
HETATM   32  C   UNL     1      41.220 -12.035   4.393  1.00  0.00     0.096 C 
ENDBRANCH  22  28
ENDBRANCH  18  21
ENDBRANCH   1  17
TORSDOF 9
ENDMDL
MODEL 8
REMARK VINA RESULT:      -6.9      2.172      7.367
REMARK  9 active torsions:
REMARK  status: ('A' for Active; 'I' for Inactive)
REMARK    1  A    between atoms: C_2  and  N_3 
REMARK    2  A    between atoms: N_3  and  C_30 
REMARK    3  A    between atoms: N_3  and  C_5 
REMARK    4  A    between atoms: C_5  and  C_6 
REMARK    5  A    between atoms: C_5  and  C_14 
REMARK    6  A    between atoms: C_8  and  O_9 
REMARK    7  A    between atoms: C_14  and  N_15 
REMARK       I    between atoms: N_15  and  C_16 
REMARK    8  A    between atoms: C_16  and  C_17 
REMARK    9  A    between atoms: C_18  and  N_19 
ROOT
HETATM    1  C   UNL     1      43.216 -16.071   3.250  1.00  0.00     0.161 C 
ENDROOT
BRANCH   1   2
HETATM    2  C   UNL     1      42.486 -16.964   4.310  1.00  0.00     0.238 C 
BRANCH   2   3
HETATM    3  N   UNL     1      42.308 -16.233   5.675  1.00  0.00    -0.062 N 
HETATM    4  H   UNL     1      42.579 -16.922   6.385  1.00  0.00     0.280 HD
BRANCH   3   5
HETATM    5  C   UNL     1      40.845 -15.914   5.983  1.00  0.00     0.231 C 
HETATM    6  C   UNL     1      40.396 -14.572   5.431  1.00  0.00     0.034 C 
ENDBRANCH   3   5
BRANCH   3   7
HETATM    7  C   UNL     1      43.244 -15.046   5.845  1.00  0.00     0.231 C 
HETATM    8  C   UNL     1      44.244 -15.261   6.970  1.00  0.00     0.034 C 
ENDBRANCH   3   7
ENDBRANCH   2   3
BRANCH   2   9
HETATM    9  C   UNL     1      43.240 -18.280   4.485  1.00  0.00    -0.023 A 
HETATM   10  C   UNL     1      43.743 -18.997   3.382  1.00  0.00     0.046 A 
HETATM   11  C   UNL     1      44.434 -20.196   3.574  1.00  0.00     0.068 A 
HETATM   12  C   UNL     1      44.685 -20.657   4.863  1.00  0.00     0.037 A 
HETATM   13  C   UNL     1      44.193 -19.959   5.963  1.00  0.00     0.003 A 
HETATM   14  C   UNL     1      43.461 -18.787   5.776  1.00  0.00     0.009 A 
BRANCH  11  15
HETATM   15  O   UNL     1      44.950 -20.941   2.552  1.00  0.00    -0.356 OA
HETATM   16  C   UNL     1      43.987 -21.739   1.868  1.00  0.00     0.210 C 
ENDBRANCH  11  15
ENDBRANCH   2   9
ENDBRANCH   1   2
BRANCH   1  17
HETATM   17  N   UNL     1      42.375 -15.691   2.133  1.00  0.00    -0.354 N 
HETATM   18  C   UNL     1      42.274 -14.360   1.779  1.00  0.00     0.253 C 
HETATM   19  O   UNL     1      42.947 -13.486   2.313  1.00  0.00    -0.268 OA
HETATM   20  H   UNL     1      41.676 -16.331   1.766  1.00  0.00     0.162 HD
BRANCH  18  21
HETATM   21  C   UNL     1      41.311 -14.086   0.692  1.00  0.00     0.053 A 
HETATM   22  C   UNL     1      40.273 -13.144   0.845  1.00  0.00     0.026 A 
HETATM   23  C   UNL     1      39.401 -12.997  -0.248  1.00  0.00     0.025 A 
HETATM   24  C   UNL     1      39.531 -13.771  -1.410  1.00  0.00     0.008 A 
HETATM   25  C   UNL     1      40.551 -14.715  -1.530  1.00  0.00    -0.061 A 
HETATM   26  C   UNL     1      40.695 -15.551  -2.766  1.00  0.00     0.048 C 
HETATM   27  C   UNL     1      41.449 -14.864  -0.470  1.00  0.00     0.025 A 
BRANCH  22  28
HETATM   28  N   UNL     1      40.137 -12.383   2.023  1.00  0.00    -0.283 NA
HETATM   29  C   UNL     1      38.855 -12.438   2.756  1.00  0.00     0.096 C 
HETATM   30  C   UNL     1      38.270 -11.037   2.641  1.00  0.00     0.016 C 
HETATM   31  C   UNL     1      39.514 -10.171   2.664  1.00  0.00     0.016 C 
HETATM   32  C   UNL     1      40.485 -10.959   1.789  1.00  0.00     0.096 C 
ENDBRANCH  22  28
ENDBRANCH  18  21
ENDBRANCH   1  17
TORSDOF 9
ENDMDL
MODEL 9
REMARK VINA RESULT:      -6.9      1.584      1.940
REMARK  9 active torsions:
REMARK  status: ('A' for Active; 'I' for Inactive)
REMARK    1  A    between atoms: C_2  and  N_3 
REMARK    2  A    between atoms: N_3  and  C_30 
REMARK    3  A    between atoms: N_3  and  C_5 
REMARK    4  A    between atoms: C_5  and  C_6 
REMARK    5  A    between atoms: C_5  and  C_14 
REMARK    6  A    between atoms: C_8  and  O_9 
REMARK    7  A    between atoms: C_14  and  N_15 
REMARK       I    between atoms: N_15  and  C_16 
REMARK    8  A    between atoms: C_16  and  C_17 
REMARK    9  A    between atoms: C_18  and  N_19 
ROOT
HETATM    1  C   UNL     1      39.780 -15.172   0.898  1.00  0.00     0.161 C 
ENDROOT
BRANCH   1   2
HETATM    2  C   UNL     1      40.224 -13.697   0.614  1.00  0.00     0.238 C 
BRANCH   2   3
HETATM    3  N   UNL     1      39.239 -12.657   1.230  1.00  0.00    -0.062 N 
HETATM    4  H   UNL     1      39.371 -11.804   0.675  1.00  0.00     0.280 HD
BRANCH   3   5
HETATM    5  C   UNL     1      39.623 -12.257   2.654  1.00  0.00     0.231 C 
HETATM    6  C   UNL     1      38.555 -11.436   3.354  1.00  0.00     0.034 C 
ENDBRANCH   3   5
BRANCH   3   7
HETATM    7  C   UNL     1      37.778 -13.051   1.075  1.00  0.00     0.231 C 
HETATM    8  C   UNL     1      37.038 -12.144   0.106  1.00  0.00     0.034 C 
ENDBRANCH   3   7
ENDBRANCH   2   3
BRANCH   2   9
HETATM    9  C   UNL     1      40.381 -13.484  -0.889  1.00  0.00    -0.023 A 
HETATM   10  C   UNL     1      40.220 -14.539  -1.807  1.00  0.00     0.046 A 
HETATM   11  C   UNL     1      40.364 -14.312  -3.178  1.00  0.00     0.068 A 
HETATM   12  C   UNL     1      40.606 -13.025  -3.650  1.00  0.00     0.037 A 
HETATM   13  C   UNL     1      40.769 -11.972  -2.754  1.00  0.00     0.003 A 
HETATM   14  C   UNL     1      40.673 -12.202  -1.382  1.00  0.00     0.009 A 
BRANCH  11  15
HETATM   15  O   UNL     1      40.220 -15.287  -4.123  1.00  0.00    -0.356 OA
HETATM   16  C   UNL     1      39.022 -16.051  -3.995  1.00  0.00     0.210 C 
ENDBRANCH  11  15
ENDBRANCH   2   9
ENDBRANCH   1   2
BRANCH   1  17
HETATM   17  N   UNL     1      40.683 -15.892   1.772  1.00  0.00    -0.354 N 
HETATM   18  C   UNL     1      41.698 -16.653   1.226  1.00  0.00     0.253 C 
HETATM   19  O   UNL     1      41.931 -16.671   0.023  1.00  0.00    -0.268 OA
HETATM   20  H   UNL     1      40.448 -16.051   2.748  1.00  0.00     0.162 HD
BRANCH  18  21
HETATM   21  C   UNL     1      42.490 -17.418   2.211  1.00  0.00     0.053 A 
HETATM   22  C   UNL     1      42.898 -16.847   3.434  1.00  0.00     0.026 A 
HETATM   23  C   UNL     1      43.676 -17.664   4.273  1.00  0.00     0.025 A 
HETATM   24  C   UNL     1      44.060 -18.960   3.899  1.00  0.00     0.008 A 
HETATM   25  C   UNL     1      43.664 -19.496   2.673  1.00  0.00    -0.061 A 
HETATM   26  C   UNL     1      44.074 -20.879   2.261  1.00  0.00     0.048 C 
HETATM   27  C   UNL     1      42.869 -18.717   1.830  1.00  0.00     0.025 A 
BRANCH  22  28
HETATM   28  N   UNL     1      42.526 -15.537   3.796  1.00  0.00    -0.283 NA
HETATM   29  C   UNL     1      43.509 -14.448   3.618  1.00  0.00     0.096 C 
HETATM   30  C   UNL     1      43.836 -13.973   5.028  1.00  0.00     0.016 C 
HETATM   31  C   UNL     1      42.509 -14.152   5.738  1.00  0.00     0.016 C 
HETATM   32  C   UNL     1      42.014 -15.487   5.189  1.00  0.00     0.096 C 
ENDBRANCH  22  28
ENDBRANCH  18  21
ENDBRANCH   1  17
TORSDOF 9
ENDMDL
MODEL 10
REMARK VINA RESULT:      -6.9      1.394      3.856
REMARK  9 active torsions:
REMARK  status: ('A' for Active; 'I' for Inactive)
REMARK    1  A    between atoms: C_2  and  N_3 
REMARK    2  A    between atoms: N_3  and  C_30 
REMARK    3  A    between atoms: N_3  and  C_5 
REMARK    4  A    between atoms: C_5  and  C_6 
REMARK    5  A    between atoms: C_5  and  C_14 
REMARK    6  A    between atoms: C_8  and  O_9 
REMARK    7  A    between atoms: C_14  and  N_15 
REMARK       I    between atoms: N_15  and  C_16 
REMARK    8  A    between atoms: C_16  and  C_17 
REMARK    9  A    between atoms: C_18  and  N_19 
ROOT
HETATM    1  C   UNL     1      41.511 -16.481   0.738  1.00  0.00     0.161 C 
ENDROOT
BRANCH   1   2
HETATM    2  C   UNL     1      41.342 -14.924   0.723  1.00  0.00     0.238 C 
BRANCH   2   3
HETATM    3  N   UNL     1      39.998 -14.469   1.369  1.00  0.00    -0.062 N 
HETATM    4  H   UNL     1      39.619 -15.312   1.816  1.00  0.00     0.280 HD
BRANCH   3   5
HETATM    5  C   UNL     1      38.950 -14.078   0.327  1.00  0.00     0.231 C 
HETATM    6  C   UNL     1      37.527 -14.158   0.851  1.00  0.00     0.034 C 
ENDBRANCH   3   5
BRANCH   3   7
HETATM    7  C   UNL     1      40.182 -13.439   2.472  1.00  0.00     0.231 C 
HETATM    8  C   UNL     1      40.829 -14.036   3.711  1.00  0.00     0.034 C 
ENDBRANCH   3   7
ENDBRANCH   2   3
BRANCH   2   9
HETATM    9  C   UNL     1      41.469 -14.404  -0.707  1.00  0.00    -0.023 A 
HETATM   10  C   UNL     1      42.048 -13.152  -0.991  1.00  0.00     0.046 A 
HETATM   11  C   UNL     1      42.156 -12.705  -2.310  1.00  0.00     0.068 A 
HETATM   12  C   UNL     1      41.749 -13.525  -3.359  1.00  0.00     0.037 A 
HETATM   13  C   UNL     1      41.175 -14.765  -3.094  1.00  0.00     0.003 A 
HETATM   14  C   UNL     1      41.020 -15.196  -1.776  1.00  0.00     0.009 A 
BRANCH  11  15
HETATM   15  O   UNL     1      42.707 -11.505  -2.657  1.00  0.00    -0.356 OA
HETATM   16  C   UNL     1      43.043 -10.674  -1.548  1.00  0.00     0.210 C 
ENDBRANCH  11  15
ENDBRANCH   2   9
ENDBRANCH   1   2
BRANCH   1  17
HETATM   17  N   UNL     1      41.853 -17.014   2.040  1.00  0.00    -0.354 N 
HETATM   18  C   UNL     1      43.180 -17.089   2.418  1.00  0.00     0.253 C 
HETATM   19  O   UNL     1      44.085 -16.630   1.731  1.00  0.00    -0.268 OA
HETATM   20  H   UNL     1      41.180 -17.555   2.576  1.00  0.00     0.162 HD
BRANCH  18  21
HETATM   21  C   UNL     1      43.411 -17.741   3.723  1.00  0.00     0.053 A 
HETATM   22  C   UNL     1      43.922 -19.052   3.814  1.00  0.00     0.026 A 
HETATM   23  C   UNL     1      44.065 -19.576   5.110  1.00  0.00     0.025 A 
HETATM   24  C   UNL     1      43.683 -18.852   6.250  1.00  0.00     0.008 A 
HETATM   25  C   UNL     1      43.156 -17.565   6.135  1.00  0.00    -0.061 A 
HETATM   26  C   UNL     1      42.740 -16.785   7.346  1.00  0.00     0.048 C 
HETATM   27  C   UNL     1      43.028 -17.009   4.860  1.00  0.00     0.025 A 
BRANCH  22  28
HETATM   28  N   UNL     1      44.286 -19.782   2.665  1.00  0.00    -0.283 NA
HETATM   29  C   UNL     1      43.219 -20.244   1.753  1.00  0.00     0.096 C 
HETATM   30  C   UNL     1      43.245 -21.763   1.847  1.00  0.00     0.016 C 
HETATM   31  C   UNL     1      44.722 -22.043   2.043  1.00  0.00     0.016 C 
HETATM   32  C   UNL     1      45.144 -20.943   3.012  1.00  0.00     0.096 C 
ENDBRANCH  22  28
ENDBRANCH  18  21
ENDBRANCH   1  17
TORSDOF 9
ENDMDL
