MODEL 1
REMARK VINA RESULT:      -8.2      0.000      0.000
REMARK  6 active torsions:
REMARK  status: ('A' for Active; 'I' for Inactive)
REMARK    1  A    between atoms: C_9  and  C_10 
REMARK    2  A    between atoms: C_12  and  N_13 
REMARK    3  A    between atoms: N_13  and  C_14 
REMARK    4  A    between atoms: C_14  and  C_15 
REMARK    5  A    between atoms: C_15  and  C_16 
REMARK    6  A    between atoms: C_16  and  N_17 
ROOT
HETATM    1  C   UNL     1      43.559 -16.191   5.170  1.00  0.00     0.071 A 
HETATM    2  N   UNL     1      44.089 -15.768   6.349  1.00  0.00    -0.218 NA
HETATM    3  C   UNL     1      43.796 -14.505   6.712  1.00  0.00     0.202 A 
HETATM    4  N   UNL     1      43.021 -13.674   6.021  1.00  0.00    -0.231 NA
HETATM    5  C   UNL     1      42.517 -14.132   4.860  1.00  0.00     0.122 A 
HETATM    6  C   UNL     1      42.762 -15.393   4.378  1.00  0.00     0.052 A 
ENDROOT
BRANCH   1   7
HETATM    7  C   UNL     1      43.912 -17.565   4.798  1.00  0.00    -0.006 A 
HETATM    8  C   UNL     1      44.622 -18.396   5.675  1.00  0.00     0.014 A 
HETATM    9  C   UNL     1      44.907 -19.720   5.331  1.00  0.00     0.013 A 
HETATM   10  C   UNL     1      44.486 -20.250   4.104  1.00  0.00    -0.026 A 
HETATM   11  C   UNL     1      44.758 -21.581   3.753  1.00  0.00     0.012 A 
HETATM   12  C   UNL     1      43.782 -19.424   3.199  1.00  0.00    -0.025 A 
HETATM   13  C   UNL     1      44.334 -22.094   2.526  1.00  0.00     0.001 A 
HETATM   14  C   UNL     1      43.642 -21.281   1.633  1.00  0.00     0.001 A 
HETATM   15  C   UNL     1      43.370 -19.953   1.965  1.00  0.00     0.012 A 
HETATM   16  C   UNL     1      43.512 -18.092   3.557  1.00  0.00     0.026 A 
ENDBRANCH   1   7
BRANCH   3  17
HETATM   17  N   UNL     1      44.309 -14.018   7.911  1.00  0.00    -0.261 NA
HETATM   18  H   UNL     1      43.523 -13.487   8.295  1.00  0.00     0.130 HD
BRANCH  17  19
HETATM   19  C   UNL     1      45.504 -13.205   7.756  1.00  0.00     0.097 C 
BRANCH  19  20
HETATM   20  C   UNL     1      45.507 -12.068   8.779  1.00  0.00     0.042 C 
BRANCH  20  21
HETATM   21  C   UNL     1      44.168 -11.779   9.447  1.00  0.00     0.230 C 
BRANCH  21  22
HETATM   22  N   UNL     1      43.949 -12.631  10.634  1.00  0.00    -0.079 N 
HETATM   23  H   UNL     1      43.048 -12.368  11.085  1.00  0.00     0.274 HD
HETATM   24  H   UNL     1      43.909 -13.635  10.430  1.00  0.00     0.274 HD
HETATM   25  H   UNL     1      44.667 -12.482  11.350  1.00  0.00     0.274 HD
ENDBRANCH  21  22
ENDBRANCH  20  21
ENDBRANCH  19  20
ENDBRANCH  17  19
ENDBRANCH   3  17
TORSDOF 6
ENDMDL
MODEL 2
REMARK VINA RESULT:      -8.2      1.124      2.120
REMARK  6 active torsions:
REMARK  status: ('A' for Active; 'I' for Inactive)
REMARK    1  A    between atoms: C_9  and  C_10 
REMARK    2  A    between atoms: C_12  and  N_13 
REMARK    3  A    between atoms: N_13  and  C_14 
REMARK    4  A    between atoms: C_14  and  C_15 
REMARK    5  A    between atoms: C_15  and  C_16 
REMARK    6  A    between atoms: C_16  and  N_17 
ROOT
HETATM    1  C   UNL     1      43.363 -16.105   3.621  1.00  0.00     0.071 A 
HETATM    2  N   UNL     1      43.365 -15.804   4.947  1.00  0.00    -0.218 NA
HETATM    3  C   UNL     1      43.224 -14.503   5.261  1.00  0.00     0.202 A 
HETATM    4  N   UNL     1      43.062 -13.519   4.380  1.00  0.00    -0.231 NA
HETATM    5  C   UNL     1      43.067 -13.860   3.078  1.00  0.00     0.122 A 
HETATM    6  C   UNL     1      43.222 -15.149   2.637  1.00  0.00     0.052 A 
ENDROOT
BRANCH   1   7
HETATM    7  C   UNL     1      43.535 -17.529   3.315  1.00  0.00    -0.006 A 
HETATM    8  C   UNL     1      43.302 -18.028   2.026  1.00  0.00     0.014 A 
HETATM    9  C   UNL     1      43.519 -19.377   1.733  1.00  0.00     0.013 A 
HETATM   10  C   UNL     1      43.979 -20.261   2.718  1.00  0.00    -0.026 A 
HETATM   11  C   UNL     1      44.211 -21.616   2.432  1.00  0.00     0.012 A 
HETATM   12  C   UNL     1      44.206 -19.780   4.027  1.00  0.00    -0.025 A 
HETATM   13  C   UNL     1      44.667 -22.484   3.423  1.00  0.00     0.001 A 
HETATM   14  C   UNL     1      44.889 -22.013   4.714  1.00  0.00     0.001 A 
HETATM   15  C   UNL     1      44.657 -20.669   5.016  1.00  0.00     0.012 A 
HETATM   16  C   UNL     1      43.974 -18.423   4.308  1.00  0.00     0.026 A 
ENDBRANCH   1   7
BRANCH   3  17
HETATM   17  N   UNL     1      43.216 -14.137   6.605  1.00  0.00    -0.261 NA
HETATM   18  H   UNL     1      43.127 -13.118   6.561  1.00  0.00     0.130 HD
BRANCH  17  19
HETATM   19  C   UNL     1      44.397 -14.559   7.339  1.00  0.00     0.097 C 
BRANCH  19  20
HETATM   20  C   UNL     1      45.439 -13.440   7.354  1.00  0.00     0.042 C 
BRANCH  20  21
HETATM   21  C   UNL     1      45.411 -12.529   8.576  1.00  0.00     0.230 C 
BRANCH  21  22
HETATM   22  N   UNL     1      44.150 -12.663   9.334  1.00  0.00    -0.079 N 
HETATM   23  H   UNL     1      43.355 -12.353   8.736  1.00  0.00     0.274 HD
HETATM   24  H   UNL     1      43.946 -13.618   9.645  1.00  0.00     0.274 HD
HETATM   25  H   UNL     1      44.130 -12.049  10.155  1.00  0.00     0.274 HD
ENDBRANCH  21  22
ENDBRANCH  20  21
ENDBRANCH  19  20
ENDBRANCH  17  19
ENDBRANCH   3  17
TORSDOF 6
ENDMDL
MODEL 3
REMARK VINA RESULT:      -8.1      4.806      7.081
REMARK  6 active torsions:
REMARK  status: ('A' for Active; 'I' for Inactive)
REMARK    1  A    between atoms: C_9  and  C_10 
REMARK    2  A    between atoms: C_12  and  N_13 
REMARK    3  A    between atoms: N_13  and  C_14 
REMARK    4  A    between atoms: C_14  and  C_15 
REMARK    5  A    between atoms: C_15  and  C_16 
REMARK    6  A    between atoms: C_16  and  N_17 
ROOT
HETATM    1  C   UNL     1      42.637 -16.427   1.808  1.00  0.00     0.071 A 
HETATM    2  N   UNL     1      42.135 -16.718   0.579  1.00  0.00    -0.218 NA
HETATM    3  C   UNL     1      41.574 -15.695  -0.092  1.00  0.00     0.202 A 
HETATM    4  N   UNL     1      41.503 -14.442   0.350  1.00  0.00    -0.231 NA
HETATM    5  C   UNL     1      42.011 -14.196   1.572  1.00  0.00     0.122 A 
HETATM    6  C   UNL     1      42.590 -15.162   2.356  1.00  0.00     0.052 A 
ENDROOT
BRANCH   1   7
HETATM    7  C   UNL     1      43.226 -17.568   2.516  1.00  0.00    -0.006 A 
HETATM    8  C   UNL     1      43.673 -17.450   3.839  1.00  0.00     0.014 A 
HETATM    9  C   UNL     1      44.185 -18.557   4.522  1.00  0.00     0.013 A 
HETATM   10  C   UNL     1      44.259 -19.811   3.901  1.00  0.00    -0.026 A 
HETATM   11  C   UNL     1      44.761 -20.932   4.581  1.00  0.00     0.012 A 
HETATM   12  C   UNL     1      43.828 -19.947   2.563  1.00  0.00    -0.025 A 
HETATM   13  C   UNL     1      44.831 -22.175   3.949  1.00  0.00     0.001 A 
HETATM   14  C   UNL     1      44.409 -22.310   2.630  1.00  0.00     0.001 A 
HETATM   15  C   UNL     1      43.913 -21.203   1.939  1.00  0.00     0.012 A 
HETATM   16  C   UNL     1      43.325 -18.823   1.888  1.00  0.00     0.026 A 
ENDBRANCH   1   7
BRANCH   3  17
HETATM   17  N   UNL     1      41.045 -15.934  -1.357  1.00  0.00    -0.261 NA
HETATM   18  H   UNL     1      41.834 -16.353  -1.857  1.00  0.00     0.130 HD
BRANCH  17  19
HETATM   19  C   UNL     1      40.538 -14.744  -2.021  1.00  0.00     0.097 C 
BRANCH  19  20
HETATM   20  C   UNL     1      40.366 -15.006  -3.517  1.00  0.00     0.042 C 
BRANCH  20  21
HETATM   21  C   UNL     1      39.081 -15.721  -3.919  1.00  0.00     0.230 C 
BRANCH  21  22
HETATM   22  N   UNL     1      39.110 -17.152  -3.552  1.00  0.00    -0.079 N 
HETATM   23  H   UNL     1      38.531 -17.692  -4.229  1.00  0.00     0.274 HD
HETATM   24  H   UNL     1      40.047 -17.567  -3.551  1.00  0.00     0.274 HD
HETATM   25  H   UNL     1      38.686 -17.321  -2.634  1.00  0.00     0.274 HD
ENDBRANCH  21  22
ENDBRANCH  20  21
ENDBRANCH  19  20
ENDBRANCH  17  19
ENDBRANCH   3  17
TORSDOF 6
ENDMDL
MODEL 4
REMARK VINA RESULT:      -8.0      2.312      4.397
REMARK  6 active torsions:
REMARK  status: ('A' for Active; 'I' for Inactive)
REMARK    1  A    between atoms: C_9  and  C_10 
REMARK    2  A    between atoms: C_12  and  N_13 
REMARK    3  A    between atoms: N_13  and  C_14 
REMARK    4  A    between atoms: C_14  and  C_15 
REMARK    5  A    between atoms: C_15  and  C_16 
REMARK    6  A    between atoms: C_16  and  N_17 
ROOT
HETATM    1  C   UNL     1      42.942 -16.409   5.024  1.00  0.00     0.071 A 
HETATM    2  N   UNL     1      41.669 -16.196   4.598  1.00  0.00    -0.218 NA
HETATM    3  C   UNL     1      41.143 -14.989   4.878  1.00  0.00     0.202 A 
HETATM    4  N   UNL     1      41.782 -14.006   5.508  1.00  0.00    -0.231 NA
HETATM    5  C   UNL     1      43.040 -14.259   5.913  1.00  0.00     0.122 A 
HETATM    6  C   UNL     1      43.674 -15.457   5.702  1.00  0.00     0.052 A 
ENDROOT
BRANCH   1   7
HETATM    7  C   UNL     1      43.477 -17.739   4.716  1.00  0.00    -0.006 A 
HETATM    8  C   UNL     1      44.220 -18.460   5.660  1.00  0.00     0.014 A 
HETATM    9  C   UNL     1      44.681 -19.748   5.375  1.00  0.00     0.013 A 
HETATM   10  C   UNL     1      44.407 -20.351   4.140  1.00  0.00    -0.026 A 
HETATM   11  C   UNL     1      44.856 -21.649   3.847  1.00  0.00     0.012 A 
HETATM   12  C   UNL     1      43.672 -19.635   3.169  1.00  0.00    -0.025 A 
HETATM   13  C   UNL     1      44.577 -22.235   2.612  1.00  0.00     0.001 A 
HETATM   14  C   UNL     1      43.855 -21.531   1.653  1.00  0.00     0.001 A 
HETATM   15  C   UNL     1      43.408 -20.237   1.928  1.00  0.00     0.012 A 
HETATM   16  C   UNL     1      43.225 -18.337   3.468  1.00  0.00     0.026 A 
ENDBRANCH   1   7
BRANCH   3  17
HETATM   17  N   UNL     1      39.843 -14.713   4.463  1.00  0.00    -0.261 NA
HETATM   18  H   UNL     1      39.487 -15.637   4.203  1.00  0.00     0.130 HD
BRANCH  17  19
HETATM   19  C   UNL     1      39.760 -13.760   3.369  1.00  0.00     0.097 C 
BRANCH  19  20
HETATM   20  C   UNL     1      39.136 -14.420   2.138  1.00  0.00     0.042 C 
BRANCH  20  21
HETATM   21  C   UNL     1      39.983 -15.492   1.464  1.00  0.00     0.230 C 
BRANCH  21  22
HETATM   22  N   UNL     1      39.751 -16.827   2.051  1.00  0.00    -0.079 N 
HETATM   23  H   UNL     1      39.665 -17.530   1.286  1.00  0.00     0.274 HD
HETATM   24  H   UNL     1      40.496 -17.147   2.679  1.00  0.00     0.274 HD
HETATM   25  H   UNL     1      38.864 -16.871   2.563  1.00  0.00     0.274 HD
ENDBRANCH  21  22
ENDBRANCH  20  21
ENDBRANCH  19  20
ENDBRANCH  17  19
ENDBRANCH   3  17
TORSDOF 6
ENDMDL
MODEL 5
REMARK VINA RESULT:      -7.9      2.720      4.986
REMARK  6 active torsions:
REMARK  status: ('A' for Active; 'I' for Inactive)
REMARK    1  A    between atoms: C_9  and  C_10 
REMARK    2  A    between atoms: C_12  and  N_13 
REMARK    3  A    between atoms: N_13  and  C_14 
REMARK    4  A    between atoms: C_14  and  C_15 
REMARK    5  A    between atoms: C_15  and  C_16 
REMARK    6  A    between atoms: C_16  and  N_17 
ROOT
HETATM    1  C   UNL     1      43.347 -16.024   3.840  1.00  0.00     0.071 A 
HETATM    2  N   UNL     1      43.179 -15.153   2.809  1.00  0.00    -0.218 NA
HETATM    3  C   UNL     1      43.010 -13.861   3.145  1.00  0.00     0.202 A 
HETATM    4  N   UNL     1      43.021 -13.389   4.389  1.00  0.00    -0.231 NA
HETATM    5  C   UNL     1      43.190 -14.284   5.379  1.00  0.00     0.122 A 
HETATM    6  C   UNL     1      43.352 -15.629   5.161  1.00  0.00     0.052 A 
ENDROOT
BRANCH   1   7
HETATM    7  C   UNL     1      43.512 -17.425   3.439  1.00  0.00    -0.006 A 
HETATM    8  C   UNL     1      43.259 -17.839   2.124  1.00  0.00     0.014 A 
HETATM    9  C   UNL     1      43.470 -19.166   1.740  1.00  0.00     0.013 A 
HETATM   10  C   UNL     1      43.942 -20.113   2.659  1.00  0.00    -0.026 A 
HETATM   11  C   UNL     1      44.168 -21.446   2.280  1.00  0.00     0.012 A 
HETATM   12  C   UNL     1      44.189 -19.718   3.993  1.00  0.00    -0.025 A 
HETATM   13  C   UNL     1      44.637 -22.378   3.207  1.00  0.00     0.001 A 
HETATM   14  C   UNL     1      44.878 -21.992   4.522  1.00  0.00     0.001 A 
HETATM   15  C   UNL     1      44.653 -20.671   4.915  1.00  0.00     0.012 A 
HETATM   16  C   UNL     1      43.963 -18.383   4.365  1.00  0.00     0.026 A 
ENDBRANCH   1   7
BRANCH   3  17
HETATM   17  N   UNL     1      42.836 -12.924   2.130  1.00  0.00    -0.261 NA
HETATM   18  H   UNL     1      43.019 -12.036   2.607  1.00  0.00     0.130 HD
BRANCH  17  19
HETATM   19  C   UNL     1      41.521 -12.959   1.512  1.00  0.00     0.097 C 
BRANCH  19  20
HETATM   20  C   UNL     1      41.644 -12.797  -0.004  1.00  0.00     0.042 C 
BRANCH  20  21
HETATM   21  C   UNL     1      41.502 -14.078  -0.818  1.00  0.00     0.230 C 
BRANCH  21  22
HETATM   22  N   UNL     1      42.005 -15.255  -0.082  1.00  0.00    -0.079 N 
HETATM   23  H   UNL     1      41.698 -15.197   0.912  1.00  0.00     0.274 HD
HETATM   24  H   UNL     1      41.679 -16.154  -0.452  1.00  0.00     0.274 HD
HETATM   25  H   UNL     1      43.030 -15.278  -0.050  1.00  0.00     0.274 HD
ENDBRANCH  21  22
ENDBRANCH  20  21
ENDBRANCH  19  20
ENDBRANCH  17  19
ENDBRANCH   3  17
TORSDOF 6
ENDMDL
MODEL 6
REMARK VINA RESULT:      -7.5      3.042      5.212
REMARK  6 active torsions:
REMARK  status: ('A' for Active; 'I' for Inactive)
REMARK    1  A    between atoms: C_9  and  C_10 
REMARK    2  A    between atoms: C_12  and  N_13 
REMARK    3  A    between atoms: N_13  and  C_14 
REMARK    4  A    between atoms: C_14  and  C_15 
REMARK    5  A    between atoms: C_15  and  C_16 
REMARK    6  A    between atoms: C_16  and  N_17 
ROOT
HETATM    1  C   UNL     1      43.213 -15.886   3.737  1.00  0.00     0.071 A 
HETATM    2  N   UNL     1      42.759 -15.514   2.510  1.00  0.00    -0.218 NA
HETATM    3  C   UNL     1      42.360 -14.235   2.387  1.00  0.00     0.202 A 
HETATM    4  N   UNL     1      42.402 -13.326   3.357  1.00  0.00    -0.231 NA
HETATM    5  C   UNL     1      42.858 -13.735   4.556  1.00  0.00     0.122 A 
HETATM    6  C   UNL     1      43.274 -15.018   4.807  1.00  0.00     0.052 A 
ENDROOT
BRANCH   1   7
HETATM    7  C   UNL     1      43.625 -17.289   3.839  1.00  0.00    -0.006 A 
HETATM    8  C   UNL     1      44.153 -17.807   5.030  1.00  0.00     0.014 A 
HETATM    9  C   UNL     1      44.494 -19.159   5.132  1.00  0.00     0.013 A 
HETATM   10  C   UNL     1      44.310 -20.029   4.050  1.00  0.00    -0.026 A 
HETATM   11  C   UNL     1      44.638 -21.391   4.146  1.00  0.00     0.012 A 
HETATM   12  C   UNL     1      43.792 -19.524   2.836  1.00  0.00    -0.025 A 
HETATM   13  C   UNL     1      44.452 -22.245   3.058  1.00  0.00     0.001 A 
HETATM   14  C   UNL     1      43.944 -21.749   1.862  1.00  0.00     0.001 A 
HETATM   15  C   UNL     1      43.619 -20.396   1.749  1.00  0.00     0.012 A 
HETATM   16  C   UNL     1      43.464 -18.161   2.746  1.00  0.00     0.026 A 
ENDBRANCH   1   7
BRANCH   3  17
HETATM   17  N   UNL     1      41.888 -13.798   1.152  1.00  0.00    -0.261 NA
HETATM   18  H   UNL     1      42.240 -12.838   1.101  1.00  0.00     0.130 HD
BRANCH  17  19
HETATM   19  C   UNL     1      40.442 -13.865   1.014  1.00  0.00     0.097 C 
BRANCH  19  20
HETATM   20  C   UNL     1      40.065 -14.283  -0.408  1.00  0.00     0.042 C 
BRANCH  20  21
HETATM   21  C   UNL     1      41.098 -15.129  -1.143  1.00  0.00     0.230 C 
BRANCH  21  22
HETATM   22  N   UNL     1      41.403 -16.378  -0.416  1.00  0.00    -0.079 N 
HETATM   23  H   UNL     1      41.541 -16.163   0.594  1.00  0.00     0.274 HD
HETATM   24  H   UNL     1      40.671 -17.092  -0.481  1.00  0.00     0.274 HD
HETATM   25  H   UNL     1      42.285 -16.798  -0.729  1.00  0.00     0.274 HD
ENDBRANCH  21  22
ENDBRANCH  20  21
ENDBRANCH  19  20
ENDBRANCH  17  19
ENDBRANCH   3  17
TORSDOF 6
ENDMDL
MODEL 7
REMARK VINA RESULT:      -7.5      3.037      3.911
REMARK  6 active torsions:
REMARK  status: ('A' for Active; 'I' for Inactive)
REMARK    1  A    between atoms: C_9  and  C_10 
REMARK    2  A    between atoms: C_12  and  N_13 
REMARK    3  A    between atoms: N_13  and  C_14 
REMARK    4  A    between atoms: C_14  and  C_15 
REMARK    5  A    between atoms: C_15  and  C_16 
REMARK    6  A    between atoms: C_16  and  N_17 
ROOT
HETATM    1  C   UNL     1      42.685 -16.327   1.866  1.00  0.00     0.071 A 
HETATM    2  N   UNL     1      42.861 -15.154   2.531  1.00  0.00    -0.218 NA
HETATM    3  C   UNL     1      42.368 -14.053   1.934  1.00  0.00     0.202 A 
HETATM    4  N   UNL     1      41.713 -14.043   0.776  1.00  0.00    -0.231 NA
HETATM    5  C   UNL     1      41.560 -15.225   0.151  1.00  0.00     0.122 A 
HETATM    6  C   UNL     1      42.037 -16.410   0.652  1.00  0.00     0.052 A 
ENDROOT
BRANCH   1   7
HETATM    7  C   UNL     1      43.248 -17.503   2.537  1.00  0.00    -0.006 A 
HETATM    8  C   UNL     1      43.672 -17.445   3.872  1.00  0.00     0.014 A 
HETATM    9  C   UNL     1      44.159 -18.585   4.517  1.00  0.00     0.013 A 
HETATM   10  C   UNL     1      44.231 -19.813   3.847  1.00  0.00    -0.026 A 
HETATM   11  C   UNL     1      44.709 -20.967   4.490  1.00  0.00     0.012 A 
HETATM   12  C   UNL     1      43.823 -19.889   2.497  1.00  0.00    -0.025 A 
HETATM   13  C   UNL     1      44.777 -22.183   3.809  1.00  0.00     0.001 A 
HETATM   14  C   UNL     1      44.378 -22.259   2.478  1.00  0.00     0.001 A 
HETATM   15  C   UNL     1      43.906 -21.119   1.824  1.00  0.00     0.012 A 
HETATM   16  C   UNL     1      43.345 -18.732   1.860  1.00  0.00     0.026 A 
ENDBRANCH   1   7
BRANCH   3  17
HETATM   17  N   UNL     1      42.518 -12.824   2.570  1.00  0.00    -0.261 NA
HETATM   18  H   UNL     1      43.424 -12.498   2.223  1.00  0.00     0.130 HD
BRANCH  17  19
HETATM   19  C   UNL     1      42.475 -12.900   4.021  1.00  0.00     0.097 C 
BRANCH  19  20
HETATM   20  C   UNL     1      41.050 -12.662   4.522  1.00  0.00     0.042 C 
BRANCH  20  21
HETATM   21  C   UNL     1      40.335 -13.885   5.082  1.00  0.00     0.230 C 
BRANCH  21  22
HETATM   22  N   UNL     1      41.254 -15.027   5.259  1.00  0.00    -0.079 N 
HETATM   23  H   UNL     1      40.708 -15.868   5.544  1.00  0.00     0.274 HD
HETATM   24  H   UNL     1      41.783 -15.276   4.417  1.00  0.00     0.274 HD
HETATM   25  H   UNL     1      41.924 -14.867   6.018  1.00  0.00     0.274 HD
ENDBRANCH  21  22
ENDBRANCH  20  21
ENDBRANCH  19  20
ENDBRANCH  17  19
ENDBRANCH   3  17
TORSDOF 6
ENDMDL
MODEL 8
REMARK VINA RESULT:      -7.3      4.740      6.860
REMARK  6 active torsions:
REMARK  status: ('A' for Active; 'I' for Inactive)
REMARK    1  A    between atoms: C_9  and  C_10 
REMARK    2  A    between atoms: C_12  and  N_13 
REMARK    3  A    between atoms: N_13  and  C_14 
REMARK    4  A    between atoms: C_14  and  C_15 
REMARK    5  A    between atoms: C_15  and  C_16 
REMARK    6  A    between atoms: C_16  and  N_17 
ROOT
HETATM    1  C   UNL     1      41.176 -16.208   2.262  1.00  0.00     0.071 A 
HETATM    2  N   UNL     1      41.013 -15.950   0.937  1.00  0.00    -0.218 NA
HETATM    3  C   UNL     1      40.191 -14.930   0.627  1.00  0.00     0.202 A 
HETATM    4  N   UNL     1      39.562 -14.162   1.513  1.00  0.00    -0.231 NA
HETATM    5  C   UNL     1      39.750 -14.452   2.814  1.00  0.00     0.122 A 
HETATM    6  C   UNL     1      40.549 -15.479   3.250  1.00  0.00     0.052 A 
ENDROOT
BRANCH   1   7
HETATM    7  C   UNL     1      42.065 -17.335   2.562  1.00  0.00    -0.006 A 
HETATM    8  C   UNL     1      42.735 -18.024   1.542  1.00  0.00     0.014 A 
HETATM    9  C   UNL     1      43.620 -19.063   1.844  1.00  0.00     0.013 A 
HETATM   10  C   UNL     1      43.863 -19.436   3.172  1.00  0.00    -0.026 A 
HETATM   11  C   UNL     1      44.758 -20.471   3.486  1.00  0.00     0.012 A 
HETATM   12  C   UNL     1      43.186 -18.764   4.214  1.00  0.00    -0.025 A 
HETATM   13  C   UNL     1      44.989 -20.833   4.814  1.00  0.00     0.001 A 
HETATM   14  C   UNL     1      44.321 -20.173   5.842  1.00  0.00     0.001 A 
HETATM   15  C   UNL     1      43.423 -19.146   5.545  1.00  0.00     0.012 A 
HETATM   16  C   UNL     1      42.292 -17.728   3.894  1.00  0.00     0.026 A 
ENDBRANCH   1   7
BRANCH   3  17
HETATM   17  N   UNL     1      39.988 -14.618  -0.714  1.00  0.00    -0.261 NA
HETATM   18  H   UNL     1      39.024 -14.922  -0.874  1.00  0.00     0.130 HD
BRANCH  17  19
HETATM   19  C   UNL     1      40.928 -15.260  -1.619  1.00  0.00     0.097 C 
BRANCH  19  20
HETATM   20  C   UNL     1      40.674 -14.804  -3.056  1.00  0.00     0.042 C 
BRANCH  20  21
HETATM   21  C   UNL     1      41.432 -13.557  -3.497  1.00  0.00     0.230 C 
BRANCH  21  22
HETATM   22  N   UNL     1      42.831 -13.567  -3.022  1.00  0.00    -0.079 N 
HETATM   23  H   UNL     1      42.847 -13.801  -2.007  1.00  0.00     0.274 HD
HETATM   24  H   UNL     1      43.434 -14.243  -3.502  1.00  0.00     0.274 HD
HETATM   25  H   UNL     1      43.267 -12.642  -3.097  1.00  0.00     0.274 HD
ENDBRANCH  21  22
ENDBRANCH  20  21
ENDBRANCH  19  20
ENDBRANCH  17  19
ENDBRANCH   3  17
TORSDOF 6
ENDMDL
MODEL 9
REMARK VINA RESULT:      -7.2      4.860      7.183
REMARK  6 active torsions:
REMARK  status: ('A' for Active; 'I' for Inactive)
REMARK    1  A    between atoms: C_9  and  C_10 
REMARK    2  A    between atoms: C_12  and  N_13 
REMARK    3  A    between atoms: N_13  and  C_14 
REMARK    4  A    between atoms: C_14  and  C_15 
REMARK    5  A    between atoms: C_15  and  C_16 
REMARK    6  A    between atoms: C_16  and  N_17 
ROOT
HETATM    1  C   UNL     1      42.424 -16.312   1.584  1.00  0.00     0.071 A 
HETATM    2  N   UNL     1      41.914 -16.579   0.352  1.00  0.00    -0.218 NA
HETATM    3  C   UNL     1      41.386 -15.534  -0.312  1.00  0.00     0.202 A 
HETATM    4  N   UNL     1      41.354 -14.283   0.138  1.00  0.00    -0.231 NA
HETATM    5  C   UNL     1      41.869 -14.062   1.362  1.00  0.00     0.122 A 
HETATM    6  C   UNL     1      42.416 -15.050   2.140  1.00  0.00     0.052 A 
ENDROOT
BRANCH   1   7
HETATM    7  C   UNL     1      42.977 -17.476   2.285  1.00  0.00    -0.006 A 
HETATM    8  C   UNL     1      43.724 -18.447   1.604  1.00  0.00     0.014 A 
HETATM    9  C   UNL     1      44.289 -19.524   2.292  1.00  0.00     0.013 A 
HETATM   10  C   UNL     1      44.127 -19.657   3.677  1.00  0.00    -0.026 A 
HETATM   11  C   UNL     1      44.700 -20.729   4.379  1.00  0.00     0.012 A 
HETATM   12  C   UNL     1      43.365 -18.696   4.379  1.00  0.00    -0.025 A 
HETATM   13  C   UNL     1      44.528 -20.849   5.758  1.00  0.00     0.001 A 
HETATM   14  C   UNL     1      43.776 -19.905   6.451  1.00  0.00     0.001 A 
HETATM   15  C   UNL     1      43.194 -18.836   5.766  1.00  0.00     0.012 A 
HETATM   16  C   UNL     1      42.795 -17.624   3.672  1.00  0.00     0.026 A 
ENDBRANCH   1   7
BRANCH   3  17
HETATM   17  N   UNL     1      40.851 -15.749  -1.580  1.00  0.00    -0.261 NA
HETATM   18  H   UNL     1      41.435 -16.505  -1.947  1.00  0.00     0.130 HD
BRANCH  17  19
HETATM   19  C   UNL     1      40.867 -14.573  -2.434  1.00  0.00     0.097 C 
BRANCH  19  20
HETATM   20  C   UNL     1      39.948 -14.783  -3.639  1.00  0.00     0.042 C 
BRANCH  20  21
HETATM   21  C   UNL     1      38.456 -14.830  -3.331  1.00  0.00     0.230 C 
BRANCH  21  22
HETATM   22  N   UNL     1      38.172 -14.456  -1.930  1.00  0.00    -0.079 N 
HETATM   23  H   UNL     1      37.226 -14.021  -1.876  1.00  0.00     0.274 HD
HETATM   24  H   UNL     1      38.186 -15.242  -1.273  1.00  0.00     0.274 HD
HETATM   25  H   UNL     1      38.821 -13.741  -1.585  1.00  0.00     0.274 HD
ENDBRANCH  21  22
ENDBRANCH  20  21
ENDBRANCH  19  20
ENDBRANCH  17  19
ENDBRANCH   3  17
TORSDOF 6
ENDMDL
MODEL 10
REMARK VINA RESULT:      -7.2      4.173      5.656
REMARK  6 active torsions:
REMARK  status: ('A' for Active; 'I' for Inactive)
REMARK    1  A    between atoms: C_9  and  C_10 
REMARK    2  A    between atoms: C_12  and  N_13 
REMARK    3  A    between atoms: N_13  and  C_14 
REMARK    4  A    between atoms: C_14  and  C_15 
REMARK    5  A    between atoms: C_15  and  C_16 
REMARK    6  A    between atoms: C_16  and  N_17 
ROOT
HETATM    1  C   UNL     1      42.412 -16.213   1.429  1.00  0.00     0.071 A 
HETATM    2  N   UNL     1      42.690 -14.962   1.882  1.00  0.00    -0.218 NA
HETATM    3  C   UNL     1      42.151 -13.945   1.184  1.00  0.00     0.202 A 
HETATM    4  N   UNL     1      41.364 -14.083   0.119  1.00  0.00    -0.231 NA
HETATM    5  C   UNL     1      41.116 -15.339  -0.296  1.00  0.00     0.122 A 
HETATM    6  C   UNL     1      41.624 -16.452   0.323  1.00  0.00     0.052 A 
ENDROOT
BRANCH   1   7
HETATM    7  C   UNL     1      43.028 -17.296   2.203  1.00  0.00    -0.006 A 
HETATM    8  C   UNL     1      43.472 -17.089   3.516  1.00  0.00     0.014 A 
HETATM    9  C   UNL     1      44.010 -18.141   4.263  1.00  0.00     0.013 A 
HETATM   10  C   UNL     1      44.113 -19.428   3.719  1.00  0.00    -0.026 A 
HETATM   11  C   UNL     1      44.641 -20.494   4.464  1.00  0.00     0.012 A 
HETATM   12  C   UNL     1      43.684 -19.654   2.392  1.00  0.00    -0.025 A 
HETATM   13  C   UNL     1      44.739 -21.770   3.909  1.00  0.00     0.001 A 
HETATM   14  C   UNL     1      44.320 -21.994   2.601  1.00  0.00     0.001 A 
HETATM   15  C   UNL     1      43.798 -20.942   1.845  1.00  0.00     0.012 A 
HETATM   16  C   UNL     1      43.155 -18.584   1.651  1.00  0.00     0.026 A 
ENDBRANCH   1   7
BRANCH   3  17
HETATM   17  N   UNL     1      42.399 -12.640   1.603  1.00  0.00    -0.261 NA
HETATM   18  H   UNL     1      42.174 -12.677   2.601  1.00  0.00     0.130 HD
BRANCH  17  19
HETATM   19  C   UNL     1      41.624 -11.635   0.896  1.00  0.00     0.097 C 
BRANCH  19  20
HETATM   20  C   UNL     1      42.536 -10.800  -0.004  1.00  0.00     0.042 C 
BRANCH  20  21
HETATM   21  C   UNL     1      42.339 -10.993  -1.503  1.00  0.00     0.230 C 
BRANCH  21  22
HETATM   22  N   UNL     1      42.885 -12.285  -1.968  1.00  0.00    -0.079 N 
HETATM   23  H   UNL     1      42.286 -12.655  -2.736  1.00  0.00     0.274 HD
HETATM   24  H   UNL     1      43.844 -12.233  -2.325  1.00  0.00     0.274 HD
HETATM   25  H   UNL     1      42.859 -12.999  -1.232  1.00  0.00     0.274 HD
ENDBRANCH  21  22
ENDBRANCH  20  21
ENDBRANCH  19  20
ENDBRANCH  17  19
ENDBRANCH   3  17
TORSDOF 6
ENDMDL
