MODEL 1
REMARK VINA RESULT:     -10.2      0.000      0.000
REMARK  6 active torsions:
REMARK  status: ('A' for Active; 'I' for Inactive)
REMARK    1  A    between atoms: O_2  and  C_3 
REMARK    2  A    between atoms: C_6  and  N_7 
REMARK    3  A    between atoms: C_14  and  C_15 
REMARK       I    between atoms: C_15  and  N_16 
REMARK    4  A    between atoms: N_16  and  C_17 
REMARK    5  A    between atoms: C_20  and  C_21 
REMARK    6  A    between atoms: C_34  and  O_35 
ROOT
HETATM    1  N   UNL     1      42.736 -16.110   3.644  1.00  0.00    -0.336 N 
HETATM    2  H   UNL     1      42.307 -15.404   3.026  1.00  0.00     0.168 HD
HETATM    3  C   UNL     1      42.821 -17.300   3.164  1.00  0.00     0.164 A 
HETATM    4  O   UNL     1      43.525 -18.207   3.911  1.00  0.00    -0.289 OA
HETATM    5  C   UNL     1      43.787 -19.509   3.439  1.00  0.00     0.121 A 
HETATM    6  C   UNL     1      43.342 -19.887   2.176  1.00  0.00     0.002 A 
HETATM    7  C   UNL     1      42.575 -18.939   1.376  1.00  0.00     0.035 A 
HETATM    8  C   UNL     1      42.275 -17.713   1.839  1.00  0.00     0.084 A 
HETATM    9  C   UNL     1      44.507 -20.373   4.273  1.00  0.00     0.102 A 
HETATM   10  C   UNL     1      44.788 -21.656   3.805  1.00  0.00     0.040 A 
HETATM   11  C   UNL     1      44.354 -22.053   2.534  1.00  0.00     0.004 A 
HETATM   12  C   UNL     1      43.632 -21.173   1.722  1.00  0.00     0.014 A 
ENDROOT
BRANCH   8  13
HETATM   13  C   UNL     1      41.475 -16.709   1.046  1.00  0.00     0.260 C 
HETATM   14  N   UNL     1      41.982 -16.326  -0.170  1.00  0.00    -0.323 N 
HETATM   15  H   UNL     1      42.851 -16.732  -0.489  1.00  0.00     0.169 HD
HETATM   16  O   UNL     1      40.412 -16.345   1.552  1.00  0.00    -0.267 OA
BRANCH  14  17
HETATM   17  C   UNL     1      41.443 -15.388  -1.079  1.00  0.00     0.035 A 
HETATM   18  C   UNL     1      40.873 -15.709  -2.310  1.00  0.00     0.030 A 
HETATM   19  C   UNL     1      40.351 -14.699  -3.138  1.00  0.00     0.017 A 
HETATM   20  C   UNL     1      40.382 -13.358  -2.739  1.00  0.00     0.010 A 
HETATM   21  C   UNL     1      40.952 -13.045  -1.502  1.00  0.00     0.017 A 
HETATM   22  C   UNL     1      41.487 -14.045  -0.686  1.00  0.00     0.030 A 
BRANCH  20  23
HETATM   23  C   UNL     1      39.818 -12.277  -3.548  1.00  0.00     0.139 A 
HETATM   24  N   UNL     1      40.517 -11.342  -4.165  1.00  0.00    -0.228 NA
HETATM   25  C   UNL     1      39.606 -10.558  -4.827  1.00  0.00     0.086 A 
HETATM   26  C   UNL     1      38.315 -11.034  -4.636  1.00  0.00     0.062 A 
HETATM   27  C   UNL     1      39.810  -9.424  -5.625  1.00  0.00     0.034 A 
HETATM   28  N   UNL     1      38.476 -12.120  -3.815  1.00  0.00    -0.338 N 
HETATM   29  C   UNL     1      37.188 -10.445  -5.215  1.00  0.00     0.032 A 
HETATM   30  H   UNL     1      37.738 -12.727  -3.494  1.00  0.00     0.167 HD
HETATM   31  C   UNL     1      37.411  -9.316  -6.012  1.00  0.00     0.002 A 
HETATM   32  C   UNL     1      38.698  -8.809  -6.213  1.00  0.00     0.002 A 
ENDBRANCH  20  23
ENDBRANCH  14  17
ENDBRANCH   8  13
BRANCH   1  33
HETATM   33  C   UNL     1      43.220 -15.599   4.865  1.00  0.00     0.034 A 
HETATM   34  C   UNL     1      43.605 -14.248   4.870  1.00  0.00     0.032 A 
HETATM   35  C   UNL     1      44.124 -13.653   6.031  1.00  0.00     0.039 A 
HETATM   36  C   UNL     1      44.243 -14.396   7.203  1.00  0.00     0.068 A 
HETATM   37  C   UNL     1      43.820 -15.725   7.210  1.00  0.00     0.039 A 
HETATM   38  C   UNL     1      43.308 -16.327   6.054  1.00  0.00     0.032 A 
BRANCH  36  39
HETATM   39  O   UNL     1      44.733 -13.950   8.396  1.00  0.00    -0.356 OA
HETATM   40  C   UNL     1      45.068 -12.570   8.490  1.00  0.00     0.210 C 
ENDBRANCH  36  39
ENDBRANCH   1  33
BRANCH   9  41
HETATM   41  O   UNL     1      44.871 -19.866   5.490  1.00  0.00    -0.353 OA
HETATM   42  C   UNL     1      43.985 -20.104   6.580  1.00  0.00     0.210 C 
ENDBRANCH   9  41
TORSDOF 6
ENDMDL
MODEL 2
REMARK VINA RESULT:      -9.6      2.844      3.290
REMARK  6 active torsions:
REMARK  status: ('A' for Active; 'I' for Inactive)
REMARK    1  A    between atoms: O_2  and  C_3 
REMARK    2  A    between atoms: C_6  and  N_7 
REMARK    3  A    between atoms: C_14  and  C_15 
REMARK       I    between atoms: C_15  and  N_16 
REMARK    4  A    between atoms: N_16  and  C_17 
REMARK    5  A    between atoms: C_20  and  C_21 
REMARK    6  A    between atoms: C_34  and  O_35 
ROOT
HETATM    1  N   UNL     1      42.695 -15.853   3.838  1.00  0.00    -0.336 N 
HETATM    2  H   UNL     1      42.236 -15.139   3.251  1.00  0.00     0.168 HD
HETATM    3  C   UNL     1      42.772 -17.032   3.331  1.00  0.00     0.164 A 
HETATM    4  O   UNL     1      43.513 -17.946   4.033  1.00  0.00    -0.289 OA
HETATM    5  C   UNL     1      43.767 -19.236   3.526  1.00  0.00     0.121 A 
HETATM    6  C   UNL     1      43.275 -19.595   2.274  1.00  0.00     0.002 A 
HETATM    7  C   UNL     1      42.469 -18.639   1.523  1.00  0.00     0.035 A 
HETATM    8  C   UNL     1      42.177 -17.425   2.021  1.00  0.00     0.084 A 
HETATM    9  C   UNL     1      44.528 -20.109   4.313  1.00  0.00     0.102 A 
HETATM   10  C   UNL     1      44.801 -21.381   3.810  1.00  0.00     0.040 A 
HETATM   11  C   UNL     1      44.320 -21.757   2.550  1.00  0.00     0.004 A 
HETATM   12  C   UNL     1      43.559 -20.869   1.784  1.00  0.00     0.014 A 
ENDROOT
BRANCH   8  13
HETATM   13  C   UNL     1      41.337 -16.414   1.280  1.00  0.00     0.260 C 
HETATM   14  N   UNL     1      40.538 -15.593   2.034  1.00  0.00    -0.323 N 
HETATM   15  H   UNL     1      40.549 -15.686   3.041  1.00  0.00     0.169 HD
HETATM   16  O   UNL     1      41.471 -16.395   0.056  1.00  0.00    -0.267 OA
BRANCH  14  17
HETATM   17  C   UNL     1      39.644 -14.596   1.581  1.00  0.00     0.035 A 
HETATM   18  C   UNL     1      39.983 -13.260   1.371  1.00  0.00     0.030 A 
HETATM   19  C   UNL     1      39.022 -12.346   0.904  1.00  0.00     0.017 A 
HETATM   20  C   UNL     1      37.713 -12.761   0.630  1.00  0.00     0.010 A 
HETATM   21  C   UNL     1      37.383 -14.103   0.839  1.00  0.00     0.017 A 
HETATM   22  C   UNL     1      38.332 -15.008   1.320  1.00  0.00     0.030 A 
BRANCH  20  23
HETATM   23  C   UNL     1      36.689 -11.857   0.107  1.00  0.00     0.139 A 
HETATM   24  N   UNL     1      36.743 -11.236  -1.058  1.00  0.00    -0.228 NA
HETATM   25  C   UNL     1      35.575 -10.523  -1.165  1.00  0.00     0.086 A 
HETATM   26  C   UNL     1      34.769 -10.726  -0.053  1.00  0.00     0.062 A 
HETATM   27  C   UNL     1      35.128  -9.684  -2.195  1.00  0.00     0.034 A 
HETATM   28  N   UNL     1      35.502 -11.570   0.742  1.00  0.00    -0.338 N 
HETATM   29  C   UNL     1      33.509 -10.143   0.097  1.00  0.00     0.032 A 
HETATM   30  H   UNL     1      35.202 -11.949   1.627  1.00  0.00     0.167 HD
HETATM   31  C   UNL     1      33.076  -9.312  -0.943  1.00  0.00     0.002 A 
HETATM   32  C   UNL     1      33.871  -9.080  -2.070  1.00  0.00     0.002 A 
ENDBRANCH  20  23
ENDBRANCH  14  17
ENDBRANCH   8  13
BRANCH   1  33
HETATM   33  C   UNL     1      43.223 -15.359   5.048  1.00  0.00     0.034 A 
HETATM   34  C   UNL     1      43.567 -13.998   5.073  1.00  0.00     0.032 A 
HETATM   35  C   UNL     1      44.124 -13.419   6.224  1.00  0.00     0.039 A 
HETATM   36  C   UNL     1      44.323 -14.189   7.367  1.00  0.00     0.068 A 
HETATM   37  C   UNL     1      43.942 -15.531   7.356  1.00  0.00     0.039 A 
HETATM   38  C   UNL     1      43.392 -16.116   6.210  1.00  0.00     0.032 A 
BRANCH  36  39
HETATM   39  O   UNL     1      44.858 -13.761   8.547  1.00  0.00    -0.356 OA
HETATM   40  C   UNL     1      45.603 -12.548   8.526  1.00  0.00     0.210 C 
ENDBRANCH  36  39
ENDBRANCH   1  33
BRANCH   9  41
HETATM   41  O   UNL     1      44.936 -19.622   5.525  1.00  0.00    -0.353 OA
HETATM   42  C   UNL     1      44.071 -19.844   6.634  1.00  0.00     0.210 C 
ENDBRANCH   9  41
TORSDOF 6
ENDMDL
MODEL 3
REMARK VINA RESULT:      -9.5      4.741     11.442
REMARK  6 active torsions:
REMARK  status: ('A' for Active; 'I' for Inactive)
REMARK    1  A    between atoms: O_2  and  C_3 
REMARK    2  A    between atoms: C_6  and  N_7 
REMARK    3  A    between atoms: C_14  and  C_15 
REMARK       I    between atoms: C_15  and  N_16 
REMARK    4  A    between atoms: N_16  and  C_17 
REMARK    5  A    between atoms: C_20  and  C_21 
REMARK    6  A    between atoms: C_34  and  O_35 
ROOT
HETATM    1  N   UNL     1      41.697 -15.430   3.859  1.00  0.00    -0.336 N 
HETATM    2  H   UNL     1      41.804 -15.183   4.855  1.00  0.00     0.168 HD
HETATM    3  C   UNL     1      40.975 -14.630   3.157  1.00  0.00     0.164 A 
HETATM    4  O   UNL     1      40.953 -14.860   1.807  1.00  0.00    -0.289 OA
HETATM    5  C   UNL     1      40.294 -13.986   0.919  1.00  0.00     0.121 A 
HETATM    6  C   UNL     1      39.662 -12.848   1.413  1.00  0.00     0.002 A 
HETATM    7  C   UNL     1      39.661 -12.599   2.851  1.00  0.00     0.035 A 
HETATM    8  C   UNL     1      40.243 -13.454   3.710  1.00  0.00     0.084 A 
HETATM    9  C   UNL     1      40.314 -14.302  -0.445  1.00  0.00     0.102 A 
HETATM   10  C   UNL     1      39.681 -13.432  -1.332  1.00  0.00     0.040 A 
HETATM   11  C   UNL     1      39.047 -12.279  -0.854  1.00  0.00     0.004 A 
HETATM   12  C   UNL     1      39.035 -11.987   0.513  1.00  0.00     0.014 A 
ENDROOT
BRANCH   8  13
HETATM   13  C   UNL     1      40.253 -13.237   5.203  1.00  0.00     0.260 C 
HETATM   14  N   UNL     1      40.402 -11.947   5.646  1.00  0.00    -0.323 N 
HETATM   15  H   UNL     1      40.486 -11.202   4.968  1.00  0.00     0.169 HD
HETATM   16  O   UNL     1      40.092 -14.243   5.896  1.00  0.00    -0.267 OA
BRANCH  14  17
HETATM   17  C   UNL     1      40.472 -11.491   6.981  1.00  0.00     0.035 A 
HETATM   18  C   UNL     1      39.415 -11.523   7.890  1.00  0.00     0.030 A 
HETATM   19  C   UNL     1      39.591 -11.055   9.205  1.00  0.00     0.017 A 
HETATM   20  C   UNL     1      40.831 -10.562   9.629  1.00  0.00     0.010 A 
HETATM   21  C   UNL     1      41.886 -10.536   8.713  1.00  0.00     0.017 A 
HETATM   22  C   UNL     1      41.707 -10.984   7.401  1.00  0.00     0.030 A 
BRANCH  20  23
HETATM   23  C   UNL     1      41.074 -10.100  10.996  1.00  0.00     0.139 A 
HETATM   24  N   UNL     1      40.255  -9.340  11.701  1.00  0.00    -0.228 NA
HETATM   25  C   UNL     1      40.848  -9.174  12.927  1.00  0.00     0.086 A 
HETATM   26  C   UNL     1      42.050  -9.867  12.992  1.00  0.00     0.062 A 
HETATM   27  C   UNL     1      40.412  -8.449  14.044  1.00  0.00     0.034 A 
HETATM   28  N   UNL     1      42.173 -10.440  11.751  1.00  0.00    -0.338 N 
HETATM   29  C   UNL     1      42.857  -9.897  14.131  1.00  0.00     0.032 A 
HETATM   30  H   UNL     1      42.925 -11.043  11.457  1.00  0.00     0.167 HD
HETATM   31  C   UNL     1      42.403  -9.172  15.239  1.00  0.00     0.002 A 
HETATM   32  C   UNL     1      41.203  -8.456  15.199  1.00  0.00     0.002 A 
ENDBRANCH  20  23
ENDBRANCH  14  17
ENDBRANCH   8  13
BRANCH   1  33
HETATM   33  C   UNL     1      42.442 -16.556   3.454  1.00  0.00     0.034 A 
HETATM   34  C   UNL     1      42.317 -17.707   4.248  1.00  0.00     0.032 A 
HETATM   35  C   UNL     1      43.039 -18.872   3.941  1.00  0.00     0.039 A 
HETATM   36  C   UNL     1      43.875 -18.904   2.828  1.00  0.00     0.068 A 
HETATM   37  C   UNL     1      43.966 -17.773   2.016  1.00  0.00     0.039 A 
HETATM   38  C   UNL     1      43.254 -16.606   2.319  1.00  0.00     0.032 A 
BRANCH  36  39
HETATM   39  O   UNL     1      44.636 -19.959   2.418  1.00  0.00    -0.356 OA
HETATM   40  C   UNL     1      43.952 -21.099   1.908  1.00  0.00     0.210 C 
ENDBRANCH  36  39
ENDBRANCH   1  33
BRANCH   9  41
HETATM   41  O   UNL     1      40.965 -15.458  -0.782  1.00  0.00    -0.353 OA
HETATM   42  C   UNL     1      40.973 -15.815  -2.160  1.00  0.00     0.210 C 
ENDBRANCH   9  41
TORSDOF 6
ENDMDL
MODEL 4
REMARK VINA RESULT:      -9.3      1.128      1.330
REMARK  6 active torsions:
REMARK  status: ('A' for Active; 'I' for Inactive)
REMARK    1  A    between atoms: O_2  and  C_3 
REMARK    2  A    between atoms: C_6  and  N_7 
REMARK    3  A    between atoms: C_14  and  C_15 
REMARK       I    between atoms: C_15  and  N_16 
REMARK    4  A    between atoms: N_16  and  C_17 
REMARK    5  A    between atoms: C_20  and  C_21 
REMARK    6  A    between atoms: C_34  and  O_35 
ROOT
HETATM    1  N   UNL     1      43.171 -15.498   3.768  1.00  0.00    -0.336 N 
HETATM    2  H   UNL     1      42.878 -14.736   3.138  1.00  0.00     0.168 HD
HETATM    3  C   UNL     1      43.208 -16.673   3.249  1.00  0.00     0.164 A 
HETATM    4  O   UNL     1      43.741 -17.665   4.029  1.00  0.00    -0.289 OA
HETATM    5  C   UNL     1      43.942 -18.968   3.533  1.00  0.00     0.121 A 
HETATM    6  C   UNL     1      43.612 -19.263   2.213  1.00  0.00     0.002 A 
HETATM    7  C   UNL     1      43.026 -18.222   1.375  1.00  0.00     0.035 A 
HETATM    8  C   UNL     1      42.782 -16.990   1.855  1.00  0.00     0.084 A 
HETATM    9  C   UNL     1      44.485 -19.922   4.402  1.00  0.00     0.102 A 
HETATM   10  C   UNL     1      44.705 -21.209   3.913  1.00  0.00     0.040 A 
HETATM   11  C   UNL     1      44.386 -21.522   2.586  1.00  0.00     0.004 A 
HETATM   12  C   UNL     1      43.840 -20.554   1.738  1.00  0.00     0.014 A 
ENDROOT
BRANCH   8  13
HETATM   13  C   UNL     1      42.167 -15.892   1.023  1.00  0.00     0.260 C 
HETATM   14  N   UNL     1      41.301 -16.272   0.029  1.00  0.00    -0.323 N 
HETATM   15  H   UNL     1      41.101 -17.254  -0.100  1.00  0.00     0.169 HD
HETATM   16  O   UNL     1      42.476 -14.741   1.335  1.00  0.00    -0.267 OA
BRANCH  14  17
HETATM   17  C   UNL     1      40.626 -15.445  -0.896  1.00  0.00     0.035 A 
HETATM   18  C   UNL     1      40.809 -15.481  -2.278  1.00  0.00     0.030 A 
HETATM   19  C   UNL     1      40.076 -14.623  -3.117  1.00  0.00     0.017 A 
HETATM   20  C   UNL     1      39.140 -13.728  -2.584  1.00  0.00     0.010 A 
HETATM   21  C   UNL     1      38.960 -13.701  -1.199  1.00  0.00     0.017 A 
HETATM   22  C   UNL     1      39.701 -14.540  -0.363  1.00  0.00     0.030 A 
BRANCH  20  23
HETATM   23  C   UNL     1      38.326 -12.843  -3.418  1.00  0.00     0.139 A 
HETATM   24  N   UNL     1      38.635 -11.599  -3.738  1.00  0.00    -0.228 NA
HETATM   25  C   UNL     1      37.625 -11.152  -4.552  1.00  0.00     0.086 A 
HETATM   26  C   UNL     1      36.681 -12.149  -4.761  1.00  0.00     0.062 A 
HETATM   27  C   UNL     1      37.451  -9.902  -5.162  1.00  0.00     0.034 A 
HETATM   28  N   UNL     1      37.146 -13.209  -4.025  1.00  0.00    -0.338 N 
HETATM   29  C   UNL     1      35.555 -11.981  -5.569  1.00  0.00     0.032 A 
HETATM   30  H   UNL     1      36.714 -14.119  -3.970  1.00  0.00     0.167 HD
HETATM   31  C   UNL     1      35.400 -10.728  -6.174  1.00  0.00     0.002 A 
HETATM   32  C   UNL     1      36.328  -9.703  -5.973  1.00  0.00     0.002 A 
ENDBRANCH  20  23
ENDBRANCH  14  17
ENDBRANCH   8  13
BRANCH   1  33
HETATM   33  C   UNL     1      43.556 -15.073   5.056  1.00  0.00     0.034 A 
HETATM   34  C   UNL     1      43.482 -13.694   5.309  1.00  0.00     0.032 A 
HETATM   35  C   UNL     1      43.868 -13.170   6.553  1.00  0.00     0.039 A 
HETATM   36  C   UNL     1      44.310 -14.021   7.563  1.00  0.00     0.068 A 
HETATM   37  C   UNL     1      44.343 -15.395   7.325  1.00  0.00     0.039 A 
HETATM   38  C   UNL     1      43.966 -15.924   6.085  1.00  0.00     0.032 A 
BRANCH  36  39
HETATM   39  O   UNL     1      44.720 -13.651   8.810  1.00  0.00    -0.356 OA
HETATM   40  C   UNL     1      45.152 -12.306   8.984  1.00  0.00     0.210 C 
ENDBRANCH  36  39
ENDBRANCH   1  33
BRANCH   9  41
HETATM   41  O   UNL     1      44.751 -19.491   5.673  1.00  0.00    -0.353 OA
HETATM   42  C   UNL     1      43.910 -19.986   6.711  1.00  0.00     0.210 C 
ENDBRANCH   9  41
TORSDOF 6
ENDMDL
MODEL 5
REMARK VINA RESULT:      -8.7      3.109      6.011
REMARK  6 active torsions:
REMARK  status: ('A' for Active; 'I' for Inactive)
REMARK    1  A    between atoms: O_2  and  C_3 
REMARK    2  A    between atoms: C_6  and  N_7 
REMARK    3  A    between atoms: C_14  and  C_15 
REMARK       I    between atoms: C_15  and  N_16 
REMARK    4  A    between atoms: N_16  and  C_17 
REMARK    5  A    between atoms: C_20  and  C_21 
REMARK    6  A    between atoms: C_34  and  O_35 
ROOT
HETATM    1  N   UNL     1      41.008 -15.859   2.046  1.00  0.00    -0.336 N 
HETATM    2  H   UNL     1      40.297 -16.069   1.328  1.00  0.00     0.168 HD
HETATM    3  C   UNL     1      40.852 -14.754   2.684  1.00  0.00     0.164 A 
HETATM    4  O   UNL     1      41.698 -14.539   3.740  1.00  0.00    -0.289 OA
HETATM    5  C   UNL     1      41.554 -13.422   4.586  1.00  0.00     0.121 A 
HETATM    6  C   UNL     1      40.519 -12.518   4.366  1.00  0.00     0.002 A 
HETATM    7  C   UNL     1      39.620 -12.724   3.235  1.00  0.00     0.035 A 
HETATM    8  C   UNL     1      39.782 -13.757   2.391  1.00  0.00     0.084 A 
HETATM    9  C   UNL     1      42.469 -13.276   5.637  1.00  0.00     0.102 A 
HETATM   10  C   UNL     1      42.320 -12.184   6.492  1.00  0.00     0.040 A 
HETATM   11  C   UNL     1      41.280 -11.269   6.290  1.00  0.00     0.004 A 
HETATM   12  C   UNL     1      40.383 -11.433   5.231  1.00  0.00     0.014 A 
ENDROOT
BRANCH   8  13
HETATM   13  C   UNL     1      38.882 -13.996   1.204  1.00  0.00     0.260 C 
HETATM   14  N   UNL     1      39.162 -13.299   0.057  1.00  0.00    -0.323 N 
HETATM   15  H   UNL     1      39.954 -12.671   0.045  1.00  0.00     0.169 HD
HETATM   16  O   UNL     1      37.987 -14.828   1.364  1.00  0.00    -0.267 OA
BRANCH  14  17
HETATM   17  C   UNL     1      38.458 -13.323  -1.168  1.00  0.00     0.035 A 
HETATM   18  C   UNL     1      38.515 -14.359  -2.099  1.00  0.00     0.030 A 
HETATM   19  C   UNL     1      37.763 -14.294  -3.286  1.00  0.00     0.017 A 
HETATM   20  C   UNL     1      36.935 -13.197  -3.549  1.00  0.00     0.010 A 
HETATM   21  C   UNL     1      36.880 -12.164  -2.609  1.00  0.00     0.017 A 
HETATM   22  C   UNL     1      37.640 -12.219  -1.438  1.00  0.00     0.030 A 
BRANCH  20  23
HETATM   23  C   UNL     1      36.105 -13.101  -4.750  1.00  0.00     0.139 A 
HETATM   24  N   UNL     1      35.203 -12.164  -4.980  1.00  0.00    -0.228 NA
HETATM   25  C   UNL     1      34.686 -12.429  -6.223  1.00  0.00     0.086 A 
HETATM   26  C   UNL     1      35.299 -13.541  -6.786  1.00  0.00     0.062 A 
HETATM   27  C   UNL     1      33.692 -11.753  -6.944  1.00  0.00     0.034 A 
HETATM   28  N   UNL     1      36.189 -13.953  -5.828  1.00  0.00    -0.338 N 
HETATM   29  C   UNL     1      34.987 -14.026  -8.058  1.00  0.00     0.032 A 
HETATM   30  H   UNL     1      36.829 -14.727  -5.917  1.00  0.00     0.167 HD
HETATM   31  C   UNL     1      33.996 -13.336  -8.766  1.00  0.00     0.002 A 
HETATM   32  C   UNL     1      33.354 -12.220  -8.220  1.00  0.00     0.002 A 
ENDBRANCH  20  23
ENDBRANCH  14  17
ENDBRANCH   8  13
BRANCH   1  33
HETATM   33  C   UNL     1      41.963 -16.879   2.236  1.00  0.00     0.034 A 
HETATM   34  C   UNL     1      42.984 -16.967   1.276  1.00  0.00     0.032 A 
HETATM   35  C   UNL     1      43.967 -17.965   1.364  1.00  0.00     0.039 A 
HETATM   36  C   UNL     1      43.951 -18.871   2.421  1.00  0.00     0.068 A 
HETATM   37  C   UNL     1      42.961 -18.756   3.397  1.00  0.00     0.039 A 
HETATM   38  C   UNL     1      41.974 -17.768   3.313  1.00  0.00     0.032 A 
BRANCH  36  39
HETATM   39  O   UNL     1      44.835 -19.890   2.627  1.00  0.00    -0.356 OA
HETATM   40  C   UNL     1      44.346 -21.219   2.484  1.00  0.00     0.210 C 
ENDBRANCH  36  39
ENDBRANCH   1  33
BRANCH   9  41
HETATM   41  O   UNL     1      43.439 -14.236   5.724  1.00  0.00    -0.353 OA
HETATM   42  C   UNL     1      44.471 -14.026   6.682  1.00  0.00     0.210 C 
ENDBRANCH   9  41
TORSDOF 6
ENDMDL
MODEL 6
REMARK VINA RESULT:      -8.7      2.762      3.706
REMARK  6 active torsions:
REMARK  status: ('A' for Active; 'I' for Inactive)
REMARK    1  A    between atoms: O_2  and  C_3 
REMARK    2  A    between atoms: C_6  and  N_7 
REMARK    3  A    between atoms: C_14  and  C_15 
REMARK       I    between atoms: C_15  and  N_16 
REMARK    4  A    between atoms: N_16  and  C_17 
REMARK    5  A    between atoms: C_20  and  C_21 
REMARK    6  A    between atoms: C_34  and  O_35 
ROOT
HETATM    1  N   UNL     1      41.225 -13.679   2.837  1.00  0.00    -0.336 N 
HETATM    2  H   UNL     1      41.074 -13.021   2.056  1.00  0.00     0.168 HD
HETATM    3  C   UNL     1      41.682 -14.836   2.515  1.00  0.00     0.164 A 
HETATM    4  O   UNL     1      42.031 -15.661   3.552  1.00  0.00    -0.289 OA
HETATM    5  C   UNL     1      42.649 -16.907   3.329  1.00  0.00     0.121 A 
HETATM    6  C   UNL     1      42.936 -17.313   2.029  1.00  0.00     0.002 A 
HETATM    7  C   UNL     1      42.554 -16.455   0.913  1.00  0.00     0.035 A 
HETATM    8  C   UNL     1      41.917 -15.288   1.113  1.00  0.00     0.084 A 
HETATM    9  C   UNL     1      42.964 -17.689   4.448  1.00  0.00     0.102 A 
HETATM   10  C   UNL     1      43.594 -18.915   4.237  1.00  0.00     0.040 A 
HETATM   11  C   UNL     1      43.897 -19.337   2.937  1.00  0.00     0.004 A 
HETATM   12  C   UNL     1      43.567 -18.541   1.836  1.00  0.00     0.014 A 
ENDROOT
BRANCH   8  13
HETATM   13  C   UNL     1      41.496 -14.379  -0.016  1.00  0.00     0.260 C 
HETATM   14  N   UNL     1      42.492 -13.733  -0.702  1.00  0.00    -0.323 N 
HETATM   15  H   UNL     1      43.455 -13.895  -0.440  1.00  0.00     0.169 HD
HETATM   16  O   UNL     1      40.286 -14.324  -0.242  1.00  0.00    -0.267 OA
BRANCH  14  17
HETATM   17  C   UNL     1      42.358 -12.816  -1.769  1.00  0.00     0.035 A 
HETATM   18  C   UNL     1      42.783 -11.488  -1.735  1.00  0.00     0.030 A 
HETATM   19  C   UNL     1      42.615 -10.657  -2.857  1.00  0.00     0.017 A 
HETATM   20  C   UNL     1      42.033 -11.149  -4.031  1.00  0.00     0.010 A 
HETATM   21  C   UNL     1      41.613 -12.482  -4.058  1.00  0.00     0.017 A 
HETATM   22  C   UNL     1      41.762 -13.303  -2.938  1.00  0.00     0.030 A 
BRANCH  20  23
HETATM   23  C   UNL     1      41.872 -10.336  -5.237  1.00  0.00     0.139 A 
HETATM   24  N   UNL     1      40.737 -10.150  -5.886  1.00  0.00    -0.228 NA
HETATM   25  C   UNL     1      41.025  -9.304  -6.927  1.00  0.00     0.086 A 
HETATM   26  C   UNL     1      42.365  -8.938  -6.908  1.00  0.00     0.062 A 
HETATM   27  C   UNL     1      40.187  -8.794  -7.927  1.00  0.00     0.034 A 
HETATM   28  N   UNL     1      42.881  -9.612  -5.831  1.00  0.00    -0.338 N 
HETATM   29  C   UNL     1      42.933  -8.063  -7.837  1.00  0.00     0.032 A 
HETATM   30  H   UNL     1      43.833  -9.554  -5.505  1.00  0.00     0.167 HD
HETATM   31  C   UNL     1      42.080  -7.559  -8.826  1.00  0.00     0.002 A 
HETATM   32  C   UNL     1      40.730  -7.919  -8.876  1.00  0.00     0.002 A 
ENDBRANCH  20  23
ENDBRANCH  14  17
ENDBRANCH   8  13
BRANCH   1  33
HETATM   33  C   UNL     1      40.976 -13.135   4.113  1.00  0.00     0.034 A 
HETATM   34  C   UNL     1      39.682 -13.315   4.629  1.00  0.00     0.032 A 
HETATM   35  C   UNL     1      39.328 -12.788   5.881  1.00  0.00     0.039 A 
HETATM   36  C   UNL     1      40.269 -12.095   6.638  1.00  0.00     0.068 A 
HETATM   37  C   UNL     1      41.566 -11.954   6.145  1.00  0.00     0.039 A 
HETATM   38  C   UNL     1      41.924 -12.471   4.894  1.00  0.00     0.032 A 
BRANCH  36  39
HETATM   39  O   UNL     1      40.063 -11.527   7.862  1.00  0.00    -0.356 OA
HETATM   40  C   UNL     1      40.977 -10.519   8.277  1.00  0.00     0.210 C 
ENDBRANCH  36  39
ENDBRANCH   1  33
BRANCH   9  41
HETATM   41  O   UNL     1      42.613 -17.166   5.662  1.00  0.00    -0.353 OA
HETATM   42  C   UNL     1      43.042 -17.877   6.820  1.00  0.00     0.210 C 
ENDBRANCH   9  41
TORSDOF 6
ENDMDL
MODEL 7
REMARK VINA RESULT:      -8.5      5.007     10.846
REMARK  6 active torsions:
REMARK  status: ('A' for Active; 'I' for Inactive)
REMARK    1  A    between atoms: O_2  and  C_3 
REMARK    2  A    between atoms: C_6  and  N_7 
REMARK    3  A    between atoms: C_14  and  C_15 
REMARK       I    between atoms: C_15  and  N_16 
REMARK    4  A    between atoms: N_16  and  C_17 
REMARK    5  A    between atoms: C_20  and  C_21 
REMARK    6  A    between atoms: C_34  and  O_35 
ROOT
HETATM    1  N   UNL     1      41.854 -14.869   2.551  1.00  0.00    -0.336 N 
HETATM    2  H   UNL     1      42.070 -14.502   3.491  1.00  0.00     0.168 HD
HETATM    3  C   UNL     1      41.240 -14.061   1.761  1.00  0.00     0.164 A 
HETATM    4  O   UNL     1      41.087 -14.480   0.465  1.00  0.00    -0.289 OA
HETATM    5  C   UNL     1      40.534 -13.640  -0.522  1.00  0.00     0.121 A 
HETATM    6  C   UNL     1      40.149 -12.344  -0.190  1.00  0.00     0.002 A 
HETATM    7  C   UNL     1      40.289 -11.890   1.190  1.00  0.00     0.035 A 
HETATM    8  C   UNL     1      40.767 -12.701   2.150  1.00  0.00     0.084 A 
HETATM    9  C   UNL     1      40.407 -14.152  -1.819  1.00  0.00     0.102 A 
HETATM   10  C   UNL     1      39.880 -13.320  -2.807  1.00  0.00     0.040 A 
HETATM   11  C   UNL     1      39.494 -12.012  -2.492  1.00  0.00     0.004 A 
HETATM   12  C   UNL     1      39.626 -11.524  -1.188  1.00  0.00     0.014 A 
ENDROOT
BRANCH   8  13
HETATM   13  C   UNL     1      40.915 -12.272   3.588  1.00  0.00     0.260 C 
HETATM   14  N   UNL     1      39.765 -11.979   4.275  1.00  0.00    -0.323 N 
HETATM   15  H   UNL     1      38.875 -12.072   3.805  1.00  0.00     0.169 HD
HETATM   16  O   UNL     1      42.065 -12.254   4.030  1.00  0.00    -0.267 OA
BRANCH  14  17
HETATM   17  C   UNL     1      39.640 -11.531   5.609  1.00  0.00     0.035 A 
HETATM   18  C   UNL     1      39.458 -12.361   6.715  1.00  0.00     0.030 A 
HETATM   19  C   UNL     1      39.359 -11.816   8.007  1.00  0.00     0.017 A 
HETATM   20  C   UNL     1      39.453 -10.434   8.210  1.00  0.00     0.010 A 
HETATM   21  C   UNL     1      39.639  -9.609   7.097  1.00  0.00     0.017 A 
HETATM   22  C   UNL     1      39.719 -10.148   5.811  1.00  0.00     0.030 A 
BRANCH  20  23
HETATM   23  C   UNL     1      39.394  -9.823   9.538  1.00  0.00     0.139 A 
HETATM   24  N   UNL     1      38.349  -9.189  10.040  1.00  0.00    -0.228 NA
HETATM   25  C   UNL     1      38.707  -8.807  11.308  1.00  0.00     0.086 A 
HETATM   26  C   UNL     1      39.994  -9.234  11.608  1.00  0.00     0.062 A 
HETATM   27  C   UNL     1      37.976  -8.097  12.271  1.00  0.00     0.034 A 
HETATM   28  N   UNL     1      40.410  -9.869  10.465  1.00  0.00    -0.338 N 
HETATM   29  C   UNL     1      40.610  -9.006  12.840  1.00  0.00     0.032 A 
HETATM   30  H   UNL     1      41.298 -10.329  10.341  1.00  0.00     0.167 HD
HETATM   31  C   UNL     1      39.864  -8.300  13.792  1.00  0.00     0.002 A 
HETATM   32  C   UNL     1      38.570  -7.849  13.515  1.00  0.00     0.002 A 
ENDBRANCH  20  23
ENDBRANCH  14  17
ENDBRANCH   8  13
BRANCH   1  33
HETATM   33  C   UNL     1      42.359 -16.160   2.299  1.00  0.00     0.034 A 
HETATM   34  C   UNL     1      41.421 -17.206   2.277  1.00  0.00     0.032 A 
HETATM   35  C   UNL     1      41.829 -18.531   2.061  1.00  0.00     0.039 A 
HETATM   36  C   UNL     1      43.173 -18.823   1.843  1.00  0.00     0.068 A 
HETATM   37  C   UNL     1      44.098 -17.779   1.822  1.00  0.00     0.039 A 
HETATM   38  C   UNL     1      43.700 -16.455   2.044  1.00  0.00     0.032 A 
BRANCH  36  39
HETATM   39  O   UNL     1      43.707 -20.059   1.627  1.00  0.00    -0.356 OA
HETATM   40  C   UNL     1      44.612 -20.561   2.605  1.00  0.00     0.210 C 
ENDBRANCH  36  39
ENDBRANCH   1  33
BRANCH   9  41
HETATM   41  O   UNL     1      40.817 -15.445  -1.995  1.00  0.00    -0.353 OA
HETATM   42  C   UNL     1      40.370 -16.110  -3.172  1.00  0.00     0.210 C 
ENDBRANCH   9  41
TORSDOF 6
ENDMDL
MODEL 8
REMARK VINA RESULT:      -8.5      3.043      4.074
REMARK  6 active torsions:
REMARK  status: ('A' for Active; 'I' for Inactive)
REMARK    1  A    between atoms: O_2  and  C_3 
REMARK    2  A    between atoms: C_6  and  N_7 
REMARK    3  A    between atoms: C_14  and  C_15 
REMARK       I    between atoms: C_15  and  N_16 
REMARK    4  A    between atoms: N_16  and  C_17 
REMARK    5  A    between atoms: C_20  and  C_21 
REMARK    6  A    between atoms: C_34  and  O_35 
ROOT
HETATM    1  N   UNL     1      39.965 -13.583   3.443  1.00  0.00    -0.336 N 
HETATM    2  H   UNL     1      39.352 -13.128   2.749  1.00  0.00     0.168 HD
HETATM    3  C   UNL     1      40.464 -14.715   3.094  1.00  0.00     0.164 A 
HETATM    4  O   UNL     1      41.399 -15.253   3.939  1.00  0.00    -0.289 OA
HETATM    5  C   UNL     1      42.101 -16.429   3.612  1.00  0.00     0.121 A 
HETATM    6  C   UNL     1      41.864 -17.059   2.394  1.00  0.00     0.002 A 
HETATM    7  C   UNL     1      40.858 -16.509   1.490  1.00  0.00     0.035 A 
HETATM    8  C   UNL     1      40.146 -15.417   1.817  1.00  0.00     0.084 A 
HETATM    9  C   UNL     1      43.033 -16.913   4.539  1.00  0.00     0.102 A 
HETATM   10  C   UNL     1      43.747 -18.066   4.214  1.00  0.00     0.040 A 
HETATM   11  C   UNL     1      43.527 -18.708   2.990  1.00  0.00     0.004 A 
HETATM   12  C   UNL     1      42.587 -18.209   2.083  1.00  0.00     0.014 A 
ENDROOT
BRANCH   8  13
HETATM   13  C   UNL     1      39.091 -14.826   0.915  1.00  0.00     0.260 C 
HETATM   14  N   UNL     1      39.462 -14.532  -0.372  1.00  0.00    -0.323 N 
HETATM   15  H   UNL     1      40.409 -14.729  -0.668  1.00  0.00     0.169 HD
HETATM   16  O   UNL     1      37.971 -14.689   1.411  1.00  0.00    -0.267 OA
BRANCH  14  17
HETATM   17  C   UNL     1      38.676 -13.950  -1.392  1.00  0.00     0.035 A 
HETATM   18  C   UNL     1      38.223 -12.632  -1.394  1.00  0.00     0.030 A 
HETATM   19  C   UNL     1      37.455 -12.143  -2.466  1.00  0.00     0.017 A 
HETATM   20  C   UNL     1      37.142 -12.964  -3.555  1.00  0.00     0.010 A 
HETATM   21  C   UNL     1      37.604 -14.284  -3.548  1.00  0.00     0.017 A 
HETATM   22  C   UNL     1      38.351 -14.776  -2.475  1.00  0.00     0.030 A 
BRANCH  20  23
HETATM   23  C   UNL     1      36.380 -12.491  -4.711  1.00  0.00     0.139 A 
HETATM   24  N   UNL     1      35.134 -12.830  -4.993  1.00  0.00    -0.228 NA
HETATM   25  C   UNL     1      34.800 -12.142  -6.132  1.00  0.00     0.086 A 
HETATM   26  C   UNL     1      35.854 -11.340  -6.552  1.00  0.00     0.062 A 
HETATM   27  C   UNL     1      33.604 -12.143  -6.863  1.00  0.00     0.034 A 
HETATM   28  N   UNL     1      36.846 -11.587  -5.637  1.00  0.00    -0.338 N 
HETATM   29  C   UNL     1      35.786 -10.510  -7.672  1.00  0.00     0.032 A 
HETATM   30  H   UNL     1      37.753 -11.146  -5.624  1.00  0.00     0.167 HD
HETATM   31  C   UNL     1      34.583 -10.520  -8.388  1.00  0.00     0.002 A 
HETATM   32  C   UNL     1      33.509 -11.325  -7.995  1.00  0.00     0.002 A 
ENDBRANCH  20  23
ENDBRANCH  14  17
ENDBRANCH   8  13
BRANCH   1  33
HETATM   33  C   UNL     1      40.196 -12.820   4.605  1.00  0.00     0.034 A 
HETATM   34  C   UNL     1      39.349 -13.070   5.697  1.00  0.00     0.032 A 
HETATM   35  C   UNL     1      39.483 -12.343   6.891  1.00  0.00     0.039 A 
HETATM   36  C   UNL     1      40.477 -11.375   7.012  1.00  0.00     0.068 A 
HETATM   37  C   UNL     1      41.346 -11.158   5.942  1.00  0.00     0.039 A 
HETATM   38  C   UNL     1      41.214 -11.874   4.747  1.00  0.00     0.032 A 
BRANCH  36  39
HETATM   39  O   UNL     1      40.716 -10.594   8.105  1.00  0.00    -0.356 OA
HETATM   40  C   UNL     1      42.019 -10.651   8.676  1.00  0.00     0.210 C 
ENDBRANCH  36  39
ENDBRANCH   1  33
BRANCH   9  41
HETATM   41  O   UNL     1      43.153 -16.195   5.698  1.00  0.00    -0.353 OA
HETATM   42  C   UNL     1      42.671 -16.808   6.889  1.00  0.00     0.210 C 
ENDBRANCH   9  41
TORSDOF 6
ENDMDL
MODEL 9
REMARK VINA RESULT:      -8.1      4.551     11.410
REMARK  6 active torsions:
REMARK  status: ('A' for Active; 'I' for Inactive)
REMARK    1  A    between atoms: O_2  and  C_3 
REMARK    2  A    between atoms: C_6  and  N_7 
REMARK    3  A    between atoms: C_14  and  C_15 
REMARK       I    between atoms: C_15  and  N_16 
REMARK    4  A    between atoms: N_16  and  C_17 
REMARK    5  A    between atoms: C_20  and  C_21 
REMARK    6  A    between atoms: C_34  and  O_35 
ROOT
HETATM    1  N   UNL     1      40.672 -13.713   2.576  1.00  0.00    -0.336 N 
HETATM    2  H   UNL     1      40.813 -13.381   3.543  1.00  0.00     0.168 HD
HETATM    3  C   UNL     1      40.072 -12.897   1.784  1.00  0.00     0.164 A 
HETATM    4  O   UNL     1      40.017 -13.262   0.465  1.00  0.00    -0.289 OA
HETATM    5  C   UNL     1      39.488 -12.402  -0.518  1.00  0.00     0.121 A 
HETATM    6  C   UNL     1      39.026 -11.141  -0.156  1.00  0.00     0.002 A 
HETATM    7  C   UNL     1      39.061 -10.744   1.248  1.00  0.00     0.035 A 
HETATM    8  C   UNL     1      39.515 -11.577   2.200  1.00  0.00     0.084 A 
HETATM    9  C   UNL     1      39.463 -12.860  -1.842  1.00  0.00     0.102 A 
HETATM   10  C   UNL     1      38.961 -12.008  -2.824  1.00  0.00     0.040 A 
HETATM   11  C   UNL     1      38.498 -10.732  -2.479  1.00  0.00     0.004 A 
HETATM   12  C   UNL     1      38.528 -10.299  -1.149  1.00  0.00     0.014 A 
ENDROOT
BRANCH   8  13
HETATM   13  C   UNL     1      39.556 -11.208   3.663  1.00  0.00     0.260 C 
HETATM   14  N   UNL     1      40.743 -10.725   4.152  1.00  0.00    -0.323 N 
HETATM   15  H   UNL     1      41.529 -10.626   3.524  1.00  0.00     0.169 HD
HETATM   16  O   UNL     1      38.500 -11.343   4.283  1.00  0.00    -0.267 OA
BRANCH  14  17
HETATM   17  C   UNL     1      41.043 -10.342   5.478  1.00  0.00     0.035 A 
HETATM   18  C   UNL     1      41.046  -9.028   5.946  1.00  0.00     0.030 A 
HETATM   19  C   UNL     1      41.346  -8.751   7.292  1.00  0.00     0.017 A 
HETATM   20  C   UNL     1      41.635  -9.787   8.189  1.00  0.00     0.010 A 
HETATM   21  C   UNL     1      41.626 -11.101   7.713  1.00  0.00     0.017 A 
HETATM   22  C   UNL     1      41.345 -11.376   6.372  1.00  0.00     0.030 A 
BRANCH  20  23
HETATM   23  C   UNL     1      41.915  -9.553   9.605  1.00  0.00     0.139 A 
HETATM   24  N   UNL     1      42.849 -10.166  10.309  1.00  0.00    -0.228 NA
HETATM   25  C   UNL     1      42.792  -9.629  11.571  1.00  0.00     0.086 A 
HETATM   26  C   UNL     1      41.816  -8.643  11.644  1.00  0.00     0.062 A 
HETATM   27  C   UNL     1      43.553  -9.929  12.709  1.00  0.00     0.034 A 
HETATM   28  N   UNL     1      41.270  -8.620  10.386  1.00  0.00    -0.338 N 
HETATM   29  C   UNL     1      41.554  -7.909  12.802  1.00  0.00     0.032 A 
HETATM   30  H   UNL     1      40.544  -7.994  10.074  1.00  0.00     0.167 HD
HETATM   31  C   UNL     1      42.327  -8.218  13.928  1.00  0.00     0.002 A 
HETATM   32  C   UNL     1      43.309  -9.212  13.887  1.00  0.00     0.002 A 
ENDBRANCH  20  23
ENDBRANCH  14  17
ENDBRANCH   8  13
BRANCH   1  33
HETATM   33  C   UNL     1      41.249 -14.969   2.302  1.00  0.00     0.034 A 
HETATM   34  C   UNL     1      40.361 -16.049   2.162  1.00  0.00     0.032 A 
HETATM   35  C   UNL     1      40.840 -17.344   1.913  1.00  0.00     0.039 A 
HETATM   36  C   UNL     1      42.207 -17.571   1.782  1.00  0.00     0.068 A 
HETATM   37  C   UNL     1      43.086 -16.492   1.879  1.00  0.00     0.039 A 
HETATM   38  C   UNL     1      42.616 -15.198   2.134  1.00  0.00     0.032 A 
BRANCH  36  39
HETATM   39  O   UNL     1      42.809 -18.773   1.548  1.00  0.00    -0.356 OA
HETATM   40  C   UNL     1      44.034 -19.034   2.225  1.00  0.00     0.210 C 
ENDBRANCH  36  39
ENDBRANCH   1  33
BRANCH   9  41
HETATM   41  O   UNL     1      39.942 -14.125  -2.046  1.00  0.00    -0.353 OA
HETATM   42  C   UNL     1      39.543 -14.780  -3.247  1.00  0.00     0.210 C 
ENDBRANCH   9  41
TORSDOF 6
ENDMDL
MODEL 10
REMARK VINA RESULT:      -8.1      5.170     11.510
REMARK  6 active torsions:
REMARK  status: ('A' for Active; 'I' for Inactive)
REMARK    1  A    between atoms: O_2  and  C_3 
REMARK    2  A    between atoms: C_6  and  N_7 
REMARK    3  A    between atoms: C_14  and  C_15 
REMARK       I    between atoms: C_15  and  N_16 
REMARK    4  A    between atoms: N_16  and  C_17 
REMARK    5  A    between atoms: C_20  and  C_21 
REMARK    6  A    between atoms: C_34  and  O_35 
ROOT
HETATM    1  N   UNL     1      38.261 -11.380   0.426  1.00  0.00    -0.336 N 
HETATM    2  H   UNL     1      38.586 -11.066   1.353  1.00  0.00     0.168 HD
HETATM    3  C   UNL     1      38.988 -12.269  -0.152  1.00  0.00     0.164 A 
HETATM    4  O   UNL     1      38.485 -12.805  -1.309  1.00  0.00    -0.289 OA
HETATM    5  C   UNL     1      39.131 -13.867  -1.973  1.00  0.00     0.121 A 
HETATM    6  C   UNL     1      40.298 -14.406  -1.440  1.00  0.00     0.002 A 
HETATM    7  C   UNL     1      40.856 -13.835  -0.218  1.00  0.00     0.035 A 
HETATM    8  C   UNL     1      40.275 -12.788   0.393  1.00  0.00     0.084 A 
HETATM    9  C   UNL     1      38.552 -14.349  -3.154  1.00  0.00     0.102 A 
HETATM   10  C   UNL     1      39.174 -15.413  -3.806  1.00  0.00     0.040 A 
HETATM   11  C   UNL     1      40.344 -15.972  -3.280  1.00  0.00     0.004 A 
HETATM   12  C   UNL     1      40.907 -15.471  -2.103  1.00  0.00     0.014 A 
ENDROOT
BRANCH   8  13
HETATM   13  C   UNL     1      40.828 -12.162   1.650  1.00  0.00     0.260 C 
HETATM   14  N   UNL     1      40.723 -12.889   2.808  1.00  0.00    -0.323 N 
HETATM   15  H   UNL     1      40.297 -13.805   2.776  1.00  0.00     0.169 HD
HETATM   16  O   UNL     1      41.359 -11.058   1.515  1.00  0.00    -0.267 OA
BRANCH  14  17
HETATM   17  C   UNL     1      41.132 -12.515   4.108  1.00  0.00     0.035 A 
HETATM   18  C   UNL     1      42.141 -13.143   4.837  1.00  0.00     0.030 A 
HETATM   19  C   UNL     1      42.484 -12.685   6.121  1.00  0.00     0.017 A 
HETATM   20  C   UNL     1      41.829 -11.585   6.687  1.00  0.00     0.010 A 
HETATM   21  C   UNL     1      40.821 -10.958   5.949  1.00  0.00     0.017 A 
HETATM   22  C   UNL     1      40.468 -11.423   4.680  1.00  0.00     0.030 A 
BRANCH  20  23
HETATM   23  C   UNL     1      42.176 -11.048   8.003  1.00  0.00     0.139 A 
HETATM   24  N   UNL     1      41.529 -10.078   8.625  1.00  0.00    -0.228 NA
HETATM   25  C   UNL     1      42.160  -9.911   9.832  1.00  0.00     0.086 A 
HETATM   26  C   UNL     1      43.206 -10.814   9.971  1.00  0.00     0.062 A 
HETATM   27  C   UNL     1      41.887  -9.010  10.870  1.00  0.00     0.034 A 
HETATM   28  N   UNL     1      43.199 -11.518   8.794  1.00  0.00    -0.338 N 
HETATM   29  C   UNL     1      44.008 -10.888  11.112  1.00  0.00     0.032 A 
HETATM   30  H   UNL     1      43.817 -12.281   8.564  1.00  0.00     0.167 HD
HETATM   31  C   UNL     1      43.718  -9.984  12.141  1.00  0.00     0.002 A 
HETATM   32  C   UNL     1      42.679  -9.057  12.024  1.00  0.00     0.002 A 
ENDBRANCH  20  23
ENDBRANCH  14  17
ENDBRANCH   8  13
BRANCH   1  33
HETATM   33  C   UNL     1      37.030 -10.826   0.021  1.00  0.00     0.034 A 
HETATM   34  C   UNL     1      35.873 -11.393   0.581  1.00  0.00     0.032 A 
HETATM   35  C   UNL     1      34.599 -10.926   0.222  1.00  0.00     0.039 A 
HETATM   36  C   UNL     1      34.468  -9.877  -0.684  1.00  0.00     0.068 A 
HETATM   37  C   UNL     1      35.618  -9.286  -1.207  1.00  0.00     0.039 A 
HETATM   38  C   UNL     1      36.892  -9.750  -0.858  1.00  0.00     0.032 A 
BRANCH  36  39
HETATM   39  O   UNL     1      33.299  -9.331  -1.125  1.00  0.00    -0.356 OA
HETATM   40  C   UNL     1      32.093 -10.015  -0.799  1.00  0.00     0.210 C 
ENDBRANCH  36  39
ENDBRANCH   1  33
BRANCH   9  41
HETATM   41  O   UNL     1      37.410 -13.714  -3.562  1.00  0.00    -0.353 OA
HETATM   42  C   UNL     1      36.500 -14.470  -4.354  1.00  0.00     0.210 C 
ENDBRANCH   9  41
TORSDOF 6
ENDMDL
