MODEL 1
REMARK VINA RESULT:      -8.3      0.000      0.000
REMARK  6 active torsions:
REMARK  status: ('A' for Active; 'I' for Inactive)
REMARK    1  A    between atoms: C_2  and  C_3 
REMARK    2  A    between atoms: C_3  and  C_4 
REMARK    3  A    between atoms: C_4  and  N_5 
REMARK       I    between atoms: N_5  and  C_6 
REMARK       I    between atoms: C_6  and  N_7 
REMARK    4  A    between atoms: N_7  and  C_8 
REMARK    5  A    between atoms: N_11  and  C_12 
REMARK    6  A    between atoms: C_15  and  O_16 
ROOT
HETATM    1  C   UNL     1      43.231 -14.649   6.967  1.00  0.00     0.123 C 
HETATM    2  C   UNL     1      43.460 -16.111   6.842  1.00  0.00     0.009 A 
HETATM    3  C   UNL     1      43.373 -16.831   5.663  1.00  0.00     0.047 A 
HETATM    4  N   UNL     1      43.837 -18.113   5.949  1.00  0.00    -0.238 N 
HETATM    5  N   UNL     1      44.079 -18.239   7.288  1.00  0.00    -0.179 NA
HETATM    6  C   UNL     1      43.866 -17.035   7.807  1.00  0.00     0.150 A 
HETATM    7  C   UNL     1      42.919 -16.266   4.357  1.00  0.00     0.069 C 
HETATM    8  C   UNL     1      42.785 -14.706   4.379  1.00  0.00    -0.040 C 
HETATM    9  C   UNL     1      41.687 -14.297   3.371  1.00  0.00     0.015 C 
HETATM   10  C   UNL     1      44.107 -14.071   3.899  1.00  0.00     0.015 C 
HETATM   11  C   UNL     1      42.382 -14.146   5.782  1.00  0.00     0.039 C 
ENDROOT
BRANCH   1  12
HETATM   12  N   UNL     1      44.551 -14.046   7.033  1.00  0.00    -0.334 N 
HETATM   13  C   UNL     1      45.049 -13.049   7.792  1.00  0.00     0.316 C 
HETATM   14  N   UNL     1      44.168 -12.352   8.557  1.00  0.00    -0.343 N 
HETATM   15  O   UNL     1      46.251 -12.817   7.748  1.00  0.00    -0.247 OA
HETATM   16  H   UNL     1      43.268 -12.770   8.722  1.00  0.00     0.164 HD
HETATM   17  H   UNL     1      45.282 -14.478   6.480  1.00  0.00     0.165 HD
BRANCH  14  18
HETATM   18  C   UNL     1      44.625 -11.391   9.541  1.00  0.00     0.124 C 
BRANCH  18  19
HETATM   19  C   UNL     1      44.297 -11.722  11.000  1.00  0.00     0.019 C 
BRANCH  19  20
HETATM   20  C   UNL     1      43.918 -10.521  11.870  1.00  0.00    -0.003 C 
HETATM   21  C   UNL     1      42.874 -10.828  12.931  1.00  0.00     0.005 C 
ENDBRANCH  19  20
ENDBRANCH  18  19
ENDBRANCH  14  18
ENDBRANCH   1  12
BRANCH   4  22
HETATM   22  C   UNL     1      44.151 -19.218   5.096  1.00  0.00     0.058 A 
HETATM   23  C   UNL     1      44.069 -19.031   3.705  1.00  0.00     0.034 A 
HETATM   24  C   UNL     1      44.258 -20.099   2.825  1.00  0.00     0.039 A 
HETATM   25  C   UNL     1      44.538 -21.373   3.310  1.00  0.00     0.068 A 
HETATM   26  C   UNL     1      44.682 -21.557   4.684  1.00  0.00     0.039 A 
HETATM   27  C   UNL     1      44.494 -20.485   5.573  1.00  0.00     0.034 A 
BRANCH  25  28
HETATM   28  O   UNL     1      44.664 -22.340   2.354  1.00  0.00    -0.356 OA
HETATM   29  C   UNL     1      43.974 -22.114   1.130  1.00  0.00     0.210 C 
ENDBRANCH  25  28
ENDBRANCH   4  22
TORSDOF 6
ENDMDL
MODEL 2
REMARK VINA RESULT:      -8.2      4.344      8.984
REMARK  6 active torsions:
REMARK  status: ('A' for Active; 'I' for Inactive)
REMARK    1  A    between atoms: C_2  and  C_3 
REMARK    2  A    between atoms: C_3  and  C_4 
REMARK    3  A    between atoms: C_4  and  N_5 
REMARK       I    between atoms: N_5  and  C_6 
REMARK       I    between atoms: C_6  and  N_7 
REMARK    4  A    between atoms: N_7  and  C_8 
REMARK    5  A    between atoms: N_11  and  C_12 
REMARK    6  A    between atoms: C_15  and  O_16 
ROOT
HETATM    1  C   UNL     1      40.921 -16.747   1.284  1.00  0.00     0.123 C 
HETATM    2  C   UNL     1      41.040 -15.995   2.559  1.00  0.00     0.009 A 
HETATM    3  C   UNL     1      42.009 -16.216   3.523  1.00  0.00     0.047 A 
HETATM    4  N   UNL     1      41.878 -15.188   4.455  1.00  0.00    -0.238 N 
HETATM    5  N   UNL     1      40.781 -14.426   4.165  1.00  0.00    -0.179 NA
HETATM    6  C   UNL     1      40.300 -14.906   3.024  1.00  0.00     0.150 A 
HETATM    7  C   UNL     1      43.009 -17.324   3.481  1.00  0.00     0.069 C 
HETATM    8  C   UNL     1      43.030 -18.077   2.109  1.00  0.00    -0.040 C 
HETATM    9  C   UNL     1      43.468 -19.538   2.361  1.00  0.00     0.015 C 
HETATM   10  C   UNL     1      44.088 -17.435   1.187  1.00  0.00     0.015 C 
HETATM   11  C   UNL     1      41.634 -18.109   1.407  1.00  0.00     0.039 C 
ENDROOT
BRANCH   1  12
HETATM   12  N   UNL     1      41.488 -15.885   0.261  1.00  0.00    -0.334 N 
HETATM   13  C   UNL     1      40.932 -14.962  -0.549  1.00  0.00     0.316 C 
HETATM   14  N   UNL     1      39.576 -14.874  -0.551  1.00  0.00    -0.343 N 
HETATM   15  O   UNL     1      41.665 -14.265  -1.242  1.00  0.00    -0.247 OA
HETATM   16  H   UNL     1      39.084 -15.294   0.220  1.00  0.00     0.164 HD
HETATM   17  H   UNL     1      42.497 -15.889   0.163  1.00  0.00     0.165 HD
BRANCH  14  18
HETATM   18  C   UNL     1      38.895 -13.797  -1.242  1.00  0.00     0.124 C 
BRANCH  18  19
HETATM   19  C   UNL     1      38.088 -14.204  -2.479  1.00  0.00     0.019 C 
BRANCH  19  20
HETATM   20  C   UNL     1      38.922 -14.578  -3.706  1.00  0.00    -0.003 C 
HETATM   21  C   UNL     1      39.034 -16.074  -3.948  1.00  0.00     0.005 C 
ENDBRANCH  19  20
ENDBRANCH  18  19
ENDBRANCH  14  18
ENDBRANCH   1  12
BRANCH   4  22
HETATM   22  C   UNL     1      42.709 -14.793   5.551  1.00  0.00     0.058 A 
HETATM   23  C   UNL     1      42.818 -13.422   5.844  1.00  0.00     0.034 A 
HETATM   24  C   UNL     1      43.697 -12.967   6.830  1.00  0.00     0.039 A 
HETATM   25  C   UNL     1      44.479 -13.866   7.548  1.00  0.00     0.068 A 
HETATM   26  C   UNL     1      44.335 -15.231   7.307  1.00  0.00     0.039 A 
HETATM   27  C   UNL     1      43.451 -15.694   6.318  1.00  0.00     0.034 A 
BRANCH  25  28
HETATM   28  O   UNL     1      45.326 -13.297   8.457  1.00  0.00    -0.356 OA
HETATM   29  C   UNL     1      44.942 -12.026   8.969  1.00  0.00     0.210 C 
ENDBRANCH  25  28
ENDBRANCH   4  22
TORSDOF 6
ENDMDL
MODEL 3
REMARK VINA RESULT:      -7.9      5.174      7.885
REMARK  6 active torsions:
REMARK  status: ('A' for Active; 'I' for Inactive)
REMARK    1  A    between atoms: C_2  and  C_3 
REMARK    2  A    between atoms: C_3  and  C_4 
REMARK    3  A    between atoms: C_4  and  N_5 
REMARK       I    between atoms: N_5  and  C_6 
REMARK       I    between atoms: C_6  and  N_7 
REMARK    4  A    between atoms: N_7  and  C_8 
REMARK    5  A    between atoms: N_11  and  C_12 
REMARK    6  A    between atoms: C_15  and  O_16 
ROOT
HETATM    1  C   UNL     1      42.891 -14.714   2.922  1.00  0.00     0.123 C 
HETATM    2  C   UNL     1      42.199 -14.181   1.721  1.00  0.00     0.009 A 
HETATM    3  C   UNL     1      41.814 -14.936   0.626  1.00  0.00     0.047 A 
HETATM    4  N   UNL     1      41.044 -14.098  -0.179  1.00  0.00    -0.238 N 
HETATM    5  N   UNL     1      41.056 -12.825   0.320  1.00  0.00    -0.179 NA
HETATM    6  C   UNL     1      41.734 -12.890   1.460  1.00  0.00     0.150 A 
HETATM    7  C   UNL     1      42.142 -16.380   0.435  1.00  0.00     0.069 C 
HETATM    8  C   UNL     1      42.755 -17.043   1.714  1.00  0.00    -0.040 C 
HETATM    9  C   UNL     1      43.693 -18.187   1.268  1.00  0.00     0.015 C 
HETATM   10  C   UNL     1      41.626 -17.677   2.553  1.00  0.00     0.015 C 
HETATM   11  C   UNL     1      43.591 -16.045   2.579  1.00  0.00     0.039 C 
ENDROOT
BRANCH   1  12
HETATM   12  N   UNL     1      41.867 -14.844   3.944  1.00  0.00    -0.334 N 
HETATM   13  C   UNL     1      41.918 -15.274   5.220  1.00  0.00     0.316 C 
HETATM   14  N   UNL     1      43.084 -15.829   5.643  1.00  0.00    -0.343 N 
HETATM   15  O   UNL     1      40.921 -15.155   5.924  1.00  0.00    -0.247 OA
HETATM   16  H   UNL     1      43.906 -15.652   5.091  1.00  0.00     0.164 HD
HETATM   17  H   UNL     1      40.948 -14.478   3.723  1.00  0.00     0.165 HD
BRANCH  14  18
HETATM   18  C   UNL     1      43.299 -16.151   7.040  1.00  0.00     0.124 C 
BRANCH  18  19
HETATM   19  C   UNL     1      43.957 -17.507   7.318  1.00  0.00     0.019 C 
BRANCH  19  20
HETATM   20  C   UNL     1      45.011 -17.939   6.297  1.00  0.00    -0.003 C 
HETATM   21  C   UNL     1      44.551 -19.044   5.359  1.00  0.00     0.005 C 
ENDBRANCH  19  20
ENDBRANCH  18  19
ENDBRANCH  14  18
ENDBRANCH   1  12
BRANCH   4  22
HETATM   22  C   UNL     1      40.234 -14.370  -1.326  1.00  0.00     0.058 A 
HETATM   23  C   UNL     1      38.894 -13.946  -1.311  1.00  0.00     0.034 A 
HETATM   24  C   UNL     1      38.025 -14.277  -2.355  1.00  0.00     0.039 A 
HETATM   25  C   UNL     1      38.474 -15.031  -3.435  1.00  0.00     0.068 A 
HETATM   26  C   UNL     1      39.816 -15.404  -3.489  1.00  0.00     0.039 A 
HETATM   27  C   UNL     1      40.694 -15.072  -2.443  1.00  0.00     0.034 A 
BRANCH  25  28
HETATM   28  O   UNL     1      37.522 -15.321  -4.371  1.00  0.00    -0.356 OA
HETATM   29  C   UNL     1      36.462 -14.382  -4.508  1.00  0.00     0.210 C 
ENDBRANCH  25  28
ENDBRANCH   4  22
TORSDOF 6
ENDMDL
MODEL 4
REMARK VINA RESULT:      -7.8      4.221      7.467
REMARK  6 active torsions:
REMARK  status: ('A' for Active; 'I' for Inactive)
REMARK    1  A    between atoms: C_2  and  C_3 
REMARK    2  A    between atoms: C_3  and  C_4 
REMARK    3  A    between atoms: C_4  and  N_5 
REMARK       I    between atoms: N_5  and  C_6 
REMARK       I    between atoms: C_6  and  N_7 
REMARK    4  A    between atoms: N_7  and  C_8 
REMARK    5  A    between atoms: N_11  and  C_12 
REMARK    6  A    between atoms: C_15  and  O_16 
ROOT
HETATM    1  C   UNL     1      41.174 -13.931   2.062  1.00  0.00     0.123 C 
HETATM    2  C   UNL     1      41.923 -15.180   1.775  1.00  0.00     0.009 A 
HETATM    3  C   UNL     1      42.577 -15.949   2.723  1.00  0.00     0.047 A 
HETATM    4  N   UNL     1      42.985 -17.112   2.073  1.00  0.00    -0.238 N 
HETATM    5  N   UNL     1      42.719 -17.022   0.735  1.00  0.00    -0.179 NA
HETATM    6  C   UNL     1      42.072 -15.874   0.573  1.00  0.00     0.150 A 
HETATM    7  C   UNL     1      42.729 -15.574   4.160  1.00  0.00     0.069 C 
HETATM    8  C   UNL     1      41.857 -14.338   4.565  1.00  0.00    -0.040 C 
HETATM    9  C   UNL     1      42.568 -13.598   5.720  1.00  0.00     0.015 C 
HETATM   10  C   UNL     1      40.496 -14.826   5.104  1.00  0.00     0.015 C 
HETATM   11  C   UNL     1      41.655 -13.322   3.395  1.00  0.00     0.039 C 
ENDROOT
BRANCH   1  12
HETATM   12  N   UNL     1      39.770 -14.303   2.067  1.00  0.00    -0.334 N 
HETATM   13  C   UNL     1      38.822 -14.258   1.109  1.00  0.00     0.316 C 
HETATM   14  N   UNL     1      39.145 -13.633  -0.054  1.00  0.00    -0.343 N 
HETATM   15  O   UNL     1      37.730 -14.766   1.335  1.00  0.00    -0.247 OA
HETATM   16  H   UNL     1      40.121 -13.480  -0.241  1.00  0.00     0.164 HD
HETATM   17  H   UNL     1      39.418 -14.761   2.901  1.00  0.00     0.165 HD
BRANCH  14  18
HETATM   18  C   UNL     1      38.266 -13.693  -1.206  1.00  0.00     0.124 C 
BRANCH  18  19
HETATM   19  C   UNL     1      38.949 -13.957  -2.551  1.00  0.00     0.019 C 
BRANCH  19  20
HETATM   20  C   UNL     1      40.416 -14.381  -2.464  1.00  0.00    -0.003 C 
HETATM   21  C   UNL     1      40.682 -15.800  -2.938  1.00  0.00     0.005 C 
ENDBRANCH  19  20
ENDBRANCH  18  19
ENDBRANCH  14  18
ENDBRANCH   1  12
BRANCH   4  22
HETATM   22  C   UNL     1      43.531 -18.335   2.576  1.00  0.00     0.058 A 
HETATM   23  C   UNL     1      43.541 -19.458   1.729  1.00  0.00     0.034 A 
HETATM   24  C   UNL     1      43.961 -20.706   2.198  1.00  0.00     0.039 A 
HETATM   25  C   UNL     1      44.383 -20.860   3.515  1.00  0.00     0.068 A 
HETATM   26  C   UNL     1      44.434 -19.741   4.345  1.00  0.00     0.039 A 
HETATM   27  C   UNL     1      44.015 -18.484   3.878  1.00  0.00     0.034 A 
BRANCH  25  28
HETATM   28  O   UNL     1      44.732 -22.134   3.864  1.00  0.00    -0.356 OA
HETATM   29  C   UNL     1      45.125 -22.335   5.216  1.00  0.00     0.210 C 
ENDBRANCH  25  28
ENDBRANCH   4  22
TORSDOF 6
ENDMDL
MODEL 5
REMARK VINA RESULT:      -7.7      2.207      9.131
REMARK  6 active torsions:
REMARK  status: ('A' for Active; 'I' for Inactive)
REMARK    1  A    between atoms: C_2  and  C_3 
REMARK    2  A    between atoms: C_3  and  C_4 
REMARK    3  A    between atoms: C_4  and  N_5 
REMARK       I    between atoms: N_5  and  C_6 
REMARK       I    between atoms: C_6  and  N_7 
REMARK    4  A    between atoms: N_7  and  C_8 
REMARK    5  A    between atoms: N_11  and  C_12 
REMARK    6  A    between atoms: C_15  and  O_16 
ROOT
HETATM    1  C   UNL     1      43.081 -14.678   4.843  1.00  0.00     0.123 C 
HETATM    2  C   UNL     1      43.773 -14.014   5.977  1.00  0.00     0.009 A 
HETATM    3  C   UNL     1      43.290 -12.916   6.668  1.00  0.00     0.047 A 
HETATM    4  N   UNL     1      44.142 -12.730   7.756  1.00  0.00    -0.238 N 
HETATM    5  N   UNL     1      45.199 -13.592   7.679  1.00  0.00    -0.179 NA
HETATM    6  C   UNL     1      44.960 -14.363   6.624  1.00  0.00     0.150 A 
HETATM    7  C   UNL     1      42.057 -12.159   6.301  1.00  0.00     0.069 C 
HETATM    8  C   UNL     1      41.205 -12.874   5.199  1.00  0.00    -0.040 C 
HETATM    9  C   UNL     1      40.449 -11.796   4.391  1.00  0.00     0.015 C 
HETATM   10  C   UNL     1      40.144 -13.770   5.872  1.00  0.00     0.015 C 
HETATM   11  C   UNL     1      42.072 -13.705   4.199  1.00  0.00     0.039 C 
ENDROOT
BRANCH   1  12
HETATM   12  N   UNL     1      42.464 -15.870   5.399  1.00  0.00    -0.334 N 
HETATM   13  C   UNL     1      42.730 -17.181   5.235  1.00  0.00     0.316 C 
HETATM   14  N   UNL     1      43.641 -17.516   4.284  1.00  0.00    -0.343 N 
HETATM   15  O   UNL     1      42.138 -17.996   5.934  1.00  0.00    -0.247 OA
HETATM   16  H   UNL     1      44.249 -16.788   3.950  1.00  0.00     0.164 HD
HETATM   17  H   UNL     1      41.752 -15.732   6.107  1.00  0.00     0.165 HD
BRANCH  14  18
HETATM   18  C   UNL     1      44.129 -18.876   4.159  1.00  0.00     0.124 C 
BRANCH  18  19
HETATM   19  C   UNL     1      43.952 -19.523   2.782  1.00  0.00     0.019 C 
BRANCH  19  20
HETATM   20  C   UNL     1      44.675 -20.859   2.594  1.00  0.00    -0.003 C 
HETATM   21  C   UNL     1      43.958 -21.828   1.668  1.00  0.00     0.005 C 
ENDBRANCH  19  20
ENDBRANCH  18  19
ENDBRANCH  14  18
ENDBRANCH   1  12
BRANCH   4  22
HETATM   22  C   UNL     1      44.039 -11.883   8.904  1.00  0.00     0.058 A 
HETATM   23  C   UNL     1      45.077 -11.915   9.851  1.00  0.00     0.034 A 
HETATM   24  C   UNL     1      44.983 -11.193  11.044  1.00  0.00     0.039 A 
HETATM   25  C   UNL     1      43.857 -10.421  11.315  1.00  0.00     0.068 A 
HETATM   26  C   UNL     1      42.849 -10.335  10.357  1.00  0.00     0.039 A 
HETATM   27  C   UNL     1      42.940 -11.057   9.155  1.00  0.00     0.034 A 
BRANCH  25  28
HETATM   28  O   UNL     1      43.866  -9.794  12.529  1.00  0.00    -0.356 OA
HETATM   29  C   UNL     1      42.809 -10.126  13.421  1.00  0.00     0.210 C 
ENDBRANCH  25  28
ENDBRANCH   4  22
TORSDOF 6
ENDMDL
MODEL 6
REMARK VINA RESULT:      -7.5      2.844      3.356
REMARK  6 active torsions:
REMARK  status: ('A' for Active; 'I' for Inactive)
REMARK    1  A    between atoms: C_2  and  C_3 
REMARK    2  A    between atoms: C_3  and  C_4 
REMARK    3  A    between atoms: C_4  and  N_5 
REMARK       I    between atoms: N_5  and  C_6 
REMARK       I    between atoms: C_6  and  N_7 
REMARK    4  A    between atoms: N_7  and  C_8 
REMARK    5  A    between atoms: N_11  and  C_12 
REMARK    6  A    between atoms: C_15  and  O_16 
ROOT
HETATM    1  C   UNL     1      39.996 -13.730   4.858  1.00  0.00     0.123 C 
HETATM    2  C   UNL     1      40.564 -15.096   4.989  1.00  0.00     0.009 A 
HETATM    3  C   UNL     1      41.186 -15.797   3.970  1.00  0.00     0.047 A 
HETATM    4  N   UNL     1      41.730 -16.940   4.555  1.00  0.00    -0.238 N 
HETATM    5  N   UNL     1      41.349 -17.025   5.865  1.00  0.00    -0.179 NA
HETATM    6  C   UNL     1      40.669 -15.913   6.116  1.00  0.00     0.150 A 
HETATM    7  C   UNL     1      41.274 -15.335   2.553  1.00  0.00     0.069 C 
HETATM    8  C   UNL     1      40.814 -13.850   2.365  1.00  0.00    -0.040 C 
HETATM    9  C   UNL     1      40.244 -13.695   0.937  1.00  0.00     0.015 C 
HETATM   10  C   UNL     1      42.037 -12.916   2.474  1.00  0.00     0.015 C 
HETATM   11  C   UNL     1      39.701 -13.422   3.375  1.00  0.00     0.039 C 
ENDROOT
BRANCH   1  12
HETATM   12  N   UNL     1      40.972 -12.836   5.454  1.00  0.00    -0.334 N 
HETATM   13  C   UNL     1      40.858 -11.870   6.388  1.00  0.00     0.316 C 
HETATM   14  N   UNL     1      39.601 -11.534   6.782  1.00  0.00    -0.343 N 
HETATM   15  O   UNL     1      41.876 -11.344   6.822  1.00  0.00    -0.247 OA
HETATM   16  H   UNL     1      38.861 -12.181   6.570  1.00  0.00     0.164 HD
HETATM   17  H   UNL     1      41.944 -12.986   5.209  1.00  0.00     0.165 HD
BRANCH  14  18
HETATM   18  C   UNL     1      39.380 -10.646   7.907  1.00  0.00     0.124 C 
BRANCH  18  19
HETATM   19  C   UNL     1      39.418 -11.301   9.291  1.00  0.00     0.019 C 
BRANCH  19  20
HETATM   20  C   UNL     1      40.533 -10.806  10.214  1.00  0.00    -0.003 C 
HETATM   21  C   UNL     1      40.373 -11.230  11.665  1.00  0.00     0.005 C 
ENDBRANCH  19  20
ENDBRANCH  18  19
ENDBRANCH  14  18
ENDBRANCH   1  12
BRANCH   4  22
HETATM   22  C   UNL     1      42.630 -17.927   4.044  1.00  0.00     0.058 A 
HETATM   23  C   UNL     1      42.496 -18.320   2.701  1.00  0.00     0.034 A 
HETATM   24  C   UNL     1      43.273 -19.356   2.175  1.00  0.00     0.039 A 
HETATM   25  C   UNL     1      44.203 -20.016   2.973  1.00  0.00     0.068 A 
HETATM   26  C   UNL     1      44.387 -19.593   4.288  1.00  0.00     0.039 A 
HETATM   27  C   UNL     1      43.609 -18.551   4.821  1.00  0.00     0.034 A 
BRANCH  25  28
HETATM   28  O   UNL     1      44.873 -21.034   2.356  1.00  0.00    -0.356 OA
HETATM   29  C   UNL     1      44.081 -21.959   1.621  1.00  0.00     0.210 C 
ENDBRANCH  25  28
ENDBRANCH   4  22
TORSDOF 6
ENDMDL
MODEL 7
REMARK VINA RESULT:      -7.4      3.872      7.644
REMARK  6 active torsions:
REMARK  status: ('A' for Active; 'I' for Inactive)
REMARK    1  A    between atoms: C_2  and  C_3 
REMARK    2  A    between atoms: C_3  and  C_4 
REMARK    3  A    between atoms: C_4  and  N_5 
REMARK       I    between atoms: N_5  and  C_6 
REMARK       I    between atoms: C_6  and  N_7 
REMARK    4  A    between atoms: N_7  and  C_8 
REMARK    5  A    between atoms: N_11  and  C_12 
REMARK    6  A    between atoms: C_15  and  O_16 
ROOT
HETATM    1  C   UNL     1      41.494 -16.974   5.241  1.00  0.00     0.123 C 
HETATM    2  C   UNL     1      41.465 -16.863   3.760  1.00  0.00     0.009 A 
HETATM    3  C   UNL     1      41.115 -15.724   3.056  1.00  0.00     0.047 A 
HETATM    4  N   UNL     1      41.397 -15.986   1.717  1.00  0.00    -0.238 N 
HETATM    5  N   UNL     1      41.783 -17.289   1.564  1.00  0.00    -0.179 NA
HETATM    6  C   UNL     1      41.835 -17.796   2.789  1.00  0.00     0.150 A 
HETATM    7  C   UNL     1      40.596 -14.470   3.678  1.00  0.00     0.069 C 
HETATM    8  C   UNL     1      40.720 -14.464   5.239  1.00  0.00    -0.040 C 
HETATM    9  C   UNL     1      39.585 -13.588   5.815  1.00  0.00     0.015 C 
HETATM   10  C   UNL     1      42.056 -13.807   5.645  1.00  0.00     0.015 C 
HETATM   11  C   UNL     1      40.594 -15.890   5.868  1.00  0.00     0.039 C 
ENDROOT
BRANCH   1  12
HETATM   12  N   UNL     1      42.891 -16.860   5.620  1.00  0.00    -0.334 N 
HETATM   13  C   UNL     1      43.854 -17.786   5.802  1.00  0.00     0.316 C 
HETATM   14  N   UNL     1      43.474 -19.090   5.774  1.00  0.00    -0.343 N 
HETATM   15  O   UNL     1      45.005 -17.412   5.993  1.00  0.00    -0.247 OA
HETATM   16  H   UNL     1      42.580 -19.302   5.364  1.00  0.00     0.164 HD
HETATM   17  H   UNL     1      43.273 -15.924   5.691  1.00  0.00     0.165 HD
BRANCH  14  18
HETATM   18  C   UNL     1      44.455 -20.158   5.775  1.00  0.00     0.124 C 
BRANCH  18  19
HETATM   19  C   UNL     1      44.511 -21.013   4.505  1.00  0.00     0.019 C 
BRANCH  19  20
HETATM   20  C   UNL     1      44.516 -20.227   3.192  1.00  0.00    -0.003 C 
HETATM   21  C   UNL     1      43.912 -20.978   2.016  1.00  0.00     0.005 C 
ENDBRANCH  19  20
ENDBRANCH  18  19
ENDBRANCH  14  18
ENDBRANCH   1  12
BRANCH   4  22
HETATM   22  C   UNL     1      41.418 -15.132   0.570  1.00  0.00     0.058 A 
HETATM   23  C   UNL     1      41.077 -15.684  -0.678  1.00  0.00     0.034 A 
HETATM   24  C   UNL     1      41.183 -14.929  -1.849  1.00  0.00     0.039 A 
HETATM   25  C   UNL     1      41.625 -13.610  -1.802  1.00  0.00     0.068 A 
HETATM   26  C   UNL     1      41.908 -13.035  -0.564  1.00  0.00     0.039 A 
HETATM   27  C   UNL     1      41.801 -13.790   0.617  1.00  0.00     0.034 A 
BRANCH  25  28
HETATM   28  O   UNL     1      41.723 -12.990  -3.015  1.00  0.00    -0.356 OA
HETATM   29  C   UNL     1      40.497 -12.661  -3.658  1.00  0.00     0.210 C 
ENDBRANCH  25  28
ENDBRANCH   4  22
TORSDOF 6
ENDMDL
MODEL 8
REMARK VINA RESULT:      -7.3      3.822      6.822
REMARK  6 active torsions:
REMARK  status: ('A' for Active; 'I' for Inactive)
REMARK    1  A    between atoms: C_2  and  C_3 
REMARK    2  A    between atoms: C_3  and  C_4 
REMARK    3  A    between atoms: C_4  and  N_5 
REMARK       I    between atoms: N_5  and  C_6 
REMARK       I    between atoms: C_6  and  N_7 
REMARK    4  A    between atoms: N_7  and  C_8 
REMARK    5  A    between atoms: N_11  and  C_12 
REMARK    6  A    between atoms: C_15  and  O_16 
ROOT
HETATM    1  C   UNL     1      40.911 -15.376   5.779  1.00  0.00     0.123 C 
HETATM    2  C   UNL     1      41.021 -15.761   4.349  1.00  0.00     0.009 A 
HETATM    3  C   UNL     1      40.774 -14.918   3.279  1.00  0.00     0.047 A 
HETATM    4  N   UNL     1      41.167 -15.609   2.135  1.00  0.00    -0.238 N 
HETATM    5  N   UNL     1      41.522 -16.889   2.456  1.00  0.00    -0.179 NA
HETATM    6  C   UNL     1      41.446 -16.963   3.780  1.00  0.00     0.150 A 
HETATM    7  C   UNL     1      40.243 -13.527   3.401  1.00  0.00     0.069 C 
HETATM    8  C   UNL     1      40.225 -13.006   4.877  1.00  0.00    -0.040 C 
HETATM    9  C   UNL     1      39.072 -11.988   5.020  1.00  0.00     0.015 C 
HETATM   10  C   UNL     1      41.540 -12.254   5.170  1.00  0.00     0.015 C 
HETATM   11  C   UNL     1      39.995 -14.143   5.924  1.00  0.00     0.039 C 
ENDROOT
BRANCH   1  12
HETATM   12  N   UNL     1      42.271 -15.144   6.232  1.00  0.00    -0.334 N 
HETATM   13  C   UNL     1      43.157 -15.939   6.866  1.00  0.00     0.316 C 
HETATM   14  N   UNL     1      42.706 -17.142   7.310  1.00  0.00    -0.343 N 
HETATM   15  O   UNL     1      44.306 -15.540   7.019  1.00  0.00    -0.247 OA
HETATM   16  H   UNL     1      41.843 -17.483   6.922  1.00  0.00     0.164 HD
HETATM   17  H   UNL     1      42.700 -14.263   5.972  1.00  0.00     0.165 HD
BRANCH  14  18
HETATM   18  C   UNL     1      43.618 -18.138   7.836  1.00  0.00     0.124 C 
BRANCH  18  19
HETATM   19  C   UNL     1      43.904 -19.330   6.917  1.00  0.00     0.019 C 
BRANCH  19  20
HETATM   20  C   UNL     1      44.750 -19.012   5.682  1.00  0.00    -0.003 C 
HETATM   21  C   UNL     1      44.849 -20.155   4.686  1.00  0.00     0.005 C 
ENDBRANCH  19  20
ENDBRANCH  18  19
ENDBRANCH  14  18
ENDBRANCH   1  12
BRANCH   4  22
HETATM   22  C   UNL     1      41.321 -15.183   0.778  1.00  0.00     0.058 A 
HETATM   23  C   UNL     1      41.698 -13.850   0.536  1.00  0.00     0.034 A 
HETATM   24  C   UNL     1      41.758 -13.345  -0.765  1.00  0.00     0.039 A 
HETATM   25  C   UNL     1      41.450 -14.158  -1.852  1.00  0.00     0.068 A 
HETATM   26  C   UNL     1      41.134 -15.497  -1.628  1.00  0.00     0.039 A 
HETATM   27  C   UNL     1      41.074 -16.009  -0.321  1.00  0.00     0.034 A 
BRANCH  25  28
HETATM   28  O   UNL     1      41.508 -13.541  -3.070  1.00  0.00    -0.356 OA
HETATM   29  C   UNL     1      40.285 -13.019  -3.573  1.00  0.00     0.210 C 
ENDBRANCH  25  28
ENDBRANCH   4  22
TORSDOF 6
ENDMDL
MODEL 9
REMARK VINA RESULT:      -7.3      5.420      7.725
REMARK  6 active torsions:
REMARK  status: ('A' for Active; 'I' for Inactive)
REMARK    1  A    between atoms: C_2  and  C_3 
REMARK    2  A    between atoms: C_3  and  C_4 
REMARK    3  A    between atoms: C_4  and  N_5 
REMARK       I    between atoms: N_5  and  C_6 
REMARK       I    between atoms: C_6  and  N_7 
REMARK    4  A    between atoms: N_7  and  C_8 
REMARK    5  A    between atoms: N_11  and  C_12 
REMARK    6  A    between atoms: C_15  and  O_16 
ROOT
HETATM    1  C   UNL     1      42.779 -14.663   2.942  1.00  0.00     0.123 C 
HETATM    2  C   UNL     1      42.083 -14.129   1.743  1.00  0.00     0.009 A 
HETATM    3  C   UNL     1      41.744 -14.872   0.626  1.00  0.00     0.047 A 
HETATM    4  N   UNL     1      40.952 -14.047  -0.171  1.00  0.00    -0.238 N 
HETATM    5  N   UNL     1      40.906 -12.787   0.357  1.00  0.00    -0.179 NA
HETATM    6  C   UNL     1      41.569 -12.852   1.505  1.00  0.00     0.150 A 
HETATM    7  C   UNL     1      42.133 -16.297   0.406  1.00  0.00     0.069 C 
HETATM    8  C   UNL     1      42.755 -16.965   1.678  1.00  0.00    -0.040 C 
HETATM    9  C   UNL     1      43.744 -18.059   1.220  1.00  0.00     0.015 C 
HETATM   10  C   UNL     1      41.641 -17.664   2.486  1.00  0.00     0.015 C 
HETATM   11  C   UNL     1      43.538 -15.955   2.579  1.00  0.00     0.039 C 
ENDROOT
BRANCH   1  12
HETATM   12  N   UNL     1      41.747 -14.857   3.945  1.00  0.00    -0.334 N 
HETATM   13  C   UNL     1      41.323 -14.082   4.963  1.00  0.00     0.316 C 
HETATM   14  N   UNL     1      42.045 -12.963   5.234  1.00  0.00    -0.343 N 
HETATM   15  O   UNL     1      40.328 -14.425   5.592  1.00  0.00    -0.247 OA
HETATM   16  H   UNL     1      42.674 -12.635   4.521  1.00  0.00     0.164 HD
HETATM   17  H   UNL     1      41.160 -15.678   3.848  1.00  0.00     0.165 HD
BRANCH  14  18
HETATM   18  C   UNL     1      41.569 -11.974   6.182  1.00  0.00     0.124 C 
BRANCH  18  19
HETATM   19  C   UNL     1      40.965 -10.705   5.573  1.00  0.00     0.019 C 
BRANCH  19  20
HETATM   20  C   UNL     1      39.436 -10.666   5.534  1.00  0.00    -0.003 C 
HETATM   21  C   UNL     1      38.826 -11.394   4.348  1.00  0.00     0.005 C 
ENDBRANCH  19  20
ENDBRANCH  18  19
ENDBRANCH  14  18
ENDBRANCH   1  12
BRANCH   4  22
HETATM   22  C   UNL     1      40.170 -14.324  -1.336  1.00  0.00     0.058 A 
HETATM   23  C   UNL     1      38.827 -13.909  -1.351  1.00  0.00     0.034 A 
HETATM   24  C   UNL     1      37.984 -14.245  -2.414  1.00  0.00     0.039 A 
HETATM   25  C   UNL     1      38.462 -14.996  -3.484  1.00  0.00     0.068 A 
HETATM   26  C   UNL     1      39.807 -15.361  -3.507  1.00  0.00     0.039 A 
HETATM   27  C   UNL     1      40.659 -15.024  -2.442  1.00  0.00     0.034 A 
BRANCH  25  28
HETATM   28  O   UNL     1      37.533 -15.292  -4.441  1.00  0.00    -0.356 OA
HETATM   29  C   UNL     1      36.415 -14.417  -4.530  1.00  0.00     0.210 C 
ENDBRANCH  25  28
ENDBRANCH   4  22
TORSDOF 6
ENDMDL
MODEL 10
REMARK VINA RESULT:      -7.1      4.198      9.375
REMARK  6 active torsions:
REMARK  status: ('A' for Active; 'I' for Inactive)
REMARK    1  A    between atoms: C_2  and  C_3 
REMARK    2  A    between atoms: C_3  and  C_4 
REMARK    3  A    between atoms: C_4  and  N_5 
REMARK       I    between atoms: N_5  and  C_6 
REMARK       I    between atoms: C_6  and  N_7 
REMARK    4  A    between atoms: N_7  and  C_8 
REMARK    5  A    between atoms: N_11  and  C_12 
REMARK    6  A    between atoms: C_15  and  O_16 
ROOT
HETATM    1  C   UNL     1      41.015 -14.306   0.368  1.00  0.00     0.123 C 
HETATM    2  C   UNL     1      41.377 -13.745   1.694  1.00  0.00     0.009 A 
HETATM    3  C   UNL     1      40.558 -12.937   2.464  1.00  0.00     0.047 A 
HETATM    4  N   UNL     1      41.195 -12.789   3.694  1.00  0.00    -0.238 N 
HETATM    5  N   UNL     1      42.432 -13.368   3.657  1.00  0.00    -0.179 NA
HETATM    6  C   UNL     1      42.522 -13.949   2.466  1.00  0.00     0.150 A 
HETATM    7  C   UNL     1      39.233 -12.408   2.022  1.00  0.00     0.069 C 
HETATM    8  C   UNL     1      38.727 -13.059   0.692  1.00  0.00    -0.040 C 
HETATM    9  C   UNL     1      37.838 -12.032  -0.046  1.00  0.00     0.015 C 
HETATM   10  C   UNL     1      37.840 -14.278   1.022  1.00  0.00     0.015 C 
HETATM   11  C   UNL     1      39.889 -13.468  -0.270  1.00  0.00     0.039 C 
ENDROOT
BRANCH   1  12
HETATM   12  N   UNL     1      40.643 -15.689   0.610  1.00  0.00    -0.334 N 
HETATM   13  C   UNL     1      41.382 -16.800   0.804  1.00  0.00     0.316 C 
HETATM   14  N   UNL     1      42.723 -16.695   0.614  1.00  0.00    -0.343 N 
HETATM   15  O   UNL     1      40.815 -17.838   1.128  1.00  0.00    -0.247 OA
HETATM   16  H   UNL     1      43.117 -15.770   0.605  1.00  0.00     0.164 HD
HETATM   17  H   UNL     1      39.658 -15.883   0.747  1.00  0.00     0.165 HD
BRANCH  14  18
HETATM   18  C   UNL     1      43.619 -17.776   0.974  1.00  0.00     0.124 C 
BRANCH  18  19
HETATM   19  C   UNL     1      43.971 -17.883   2.461  1.00  0.00     0.019 C 
BRANCH  19  20
HETATM   20  C   UNL     1      43.947 -19.302   3.035  1.00  0.00    -0.003 C 
HETATM   21  C   UNL     1      43.596 -20.376   2.019  1.00  0.00     0.005 C 
ENDBRANCH  19  20
ENDBRANCH  18  19
ENDBRANCH  14  18
ENDBRANCH   1  12
BRANCH   4  22
HETATM   22  C   UNL     1      40.745 -12.228   4.931  1.00  0.00     0.058 A 
HETATM   23  C   UNL     1      41.346 -11.039   5.381  1.00  0.00     0.034 A 
HETATM   24  C   UNL     1      41.027 -10.502   6.631  1.00  0.00     0.039 A 
HETATM   25  C   UNL     1      40.100 -11.134   7.455  1.00  0.00     0.068 A 
HETATM   26  C   UNL     1      39.453 -12.279   6.993  1.00  0.00     0.039 A 
HETATM   27  C   UNL     1      39.770 -12.821   5.736  1.00  0.00     0.034 A 
BRANCH  25  28
HETATM   28  O   UNL     1      39.901 -10.534   8.666  1.00  0.00    -0.356 OA
HETATM   29  C   UNL     1      38.773  -9.673   8.768  1.00  0.00     0.210 C 
ENDBRANCH  25  28
ENDBRANCH   4  22
TORSDOF 6
ENDMDL
