MODEL 1
REMARK VINA RESULT:      -7.9      0.000      0.000
REMARK  5 active torsions:
REMARK  status: ('A' for Active; 'I' for Inactive)
REMARK    1  A    between atoms: C_8  and  N_9 
REMARK       I    between atoms: N_9  and  C_10 
REMARK    2  A    between atoms: C_10  and  C_11 
REMARK    3  A    between atoms: C_11  and  N_12 
REMARK    4  A    between atoms: N_12  and  C_13 
REMARK    5  A    between atoms: C_13  and  C_14 
ROOT
HETATM    1  C   UNL     1      41.554 -17.014   1.244  1.00  0.00     0.372 C 
ENDROOT
BRANCH   1   2
HETATM    2  C   UNL     1      40.606 -16.253   2.184  1.00  0.00     0.250 C 
HETATM    3  N   UNL     1      41.225 -15.896   3.363  1.00  0.00    -0.322 N 
HETATM    4  H   UNL     1      42.164 -16.272   3.475  1.00  0.00     0.169 HD
HETATM    5  O   UNL     1      39.463 -15.988   1.833  1.00  0.00    -0.271 OA
BRANCH   3   6
HETATM    6  C   UNL     1      40.711 -15.143   4.403  1.00  0.00     0.085 A 
HETATM    7  C   UNL     1      40.719 -15.610   5.705  1.00  0.00     0.052 A 
HETATM    8  C   UNL     1      41.198 -16.875   6.310  1.00  0.00     0.072 C 
HETATM    9  N   UNL     1      40.147 -14.627   6.459  1.00  0.00    -0.280 N 
HETATM   10  H   UNL     1      39.983 -14.620   7.459  1.00  0.00     0.189 HD
HETATM   11  N   UNL     1      39.776 -13.554   5.756  1.00  0.00    -0.177 NA
HETATM   12  C   UNL     1      40.118 -13.849   4.493  1.00  0.00     0.079 A 
HETATM   13  C   UNL     1      39.857 -12.831   3.445  1.00  0.00     0.075 C 
ENDBRANCH   3   6
ENDBRANCH   1   2
BRANCH   1  14
HETATM   14  N   UNL     1      41.933 -18.321   1.832  1.00  0.00     0.101 N 
HETATM   15  H   UNL     1      41.399 -19.037   1.331  1.00  0.00     0.317 HD
BRANCH  14  16
HETATM   16  C   UNL     1      43.366 -18.619   1.650  1.00  0.00     0.254 C 
HETATM   17  C   UNL     1      44.216 -17.368   1.387  1.00  0.00     0.048 C 
BRANCH  16  18
HETATM   18  C   UNL     1      43.932 -19.394   2.832  1.00  0.00     0.035 A 
HETATM   19  C   UNL     1      44.249 -20.765   2.827  1.00  0.00     0.045 A 
HETATM   20 CL   UNL     1      44.064 -21.772   1.434  1.00  0.00    -0.084 Cl
HETATM   21  C   UNL     1      44.737 -21.394   3.984  1.00  0.00     0.024 A 
HETATM   22  C   UNL     1      44.909 -20.676   5.166  1.00  0.00     0.005 A 
HETATM   23  C   UNL     1      44.593 -19.324   5.194  1.00  0.00     0.043 A 
HETATM   24  C   UNL     1      44.111 -18.704   4.043  1.00  0.00     0.126 A 
HETATM   25  F   UNL     1      43.804 -17.400   4.120  1.00  0.00    -0.205 F 
ENDBRANCH  16  18
ENDBRANCH  14  16
ENDBRANCH   1  14
TORSDOF 5
ENDMDL
MODEL 2
REMARK VINA RESULT:      -7.9      1.582      1.883
REMARK  5 active torsions:
REMARK  status: ('A' for Active; 'I' for Inactive)
REMARK    1  A    between atoms: C_8  and  N_9 
REMARK       I    between atoms: N_9  and  C_10 
REMARK    2  A    between atoms: C_10  and  C_11 
REMARK    3  A    between atoms: C_11  and  N_12 
REMARK    4  A    between atoms: N_12  and  C_13 
REMARK    5  A    between atoms: C_13  and  C_14 
ROOT
HETATM    1  C   UNL     1      41.531 -16.969   1.370  1.00  0.00     0.372 C 
ENDROOT
BRANCH   1   2
HETATM    2  C   UNL     1      40.574 -16.171   2.268  1.00  0.00     0.250 C 
HETATM    3  N   UNL     1      41.178 -15.771   3.441  1.00  0.00    -0.322 N 
HETATM    4  H   UNL     1      42.115 -16.144   3.578  1.00  0.00     0.169 HD
HETATM    5  O   UNL     1      39.435 -15.917   1.893  1.00  0.00    -0.271 OA
BRANCH   3   6
HETATM    6  C   UNL     1      40.654 -14.978   4.445  1.00  0.00     0.085 A 
HETATM    7  C   UNL     1      40.509 -15.451   5.736  1.00  0.00     0.052 A 
HETATM    8  C   UNL     1      40.813 -16.759   6.362  1.00  0.00     0.072 C 
HETATM    9  N   UNL     1      39.973 -14.421   6.454  1.00  0.00    -0.280 N 
HETATM   10  H   UNL     1      39.727 -14.404   7.437  1.00  0.00     0.189 HD
HETATM   11  N   UNL     1      39.765 -13.314   5.737  1.00  0.00    -0.177 NA
HETATM   12  C   UNL     1      40.182 -13.634   4.502  1.00  0.00     0.079 A 
HETATM   13  C   UNL     1      40.106 -12.589   3.450  1.00  0.00     0.075 C 
ENDBRANCH   3   6
ENDBRANCH   1   2
BRANCH   1  14
HETATM   14  N   UNL     1      41.875 -18.267   1.997  1.00  0.00     0.101 N 
HETATM   15  H   UNL     1      41.245 -18.967   1.595  1.00  0.00     0.317 HD
BRANCH  14  16
HETATM   16  C   UNL     1      43.259 -18.682   1.698  1.00  0.00     0.254 C 
HETATM   17  C   UNL     1      44.208 -17.498   1.464  1.00  0.00     0.048 C 
BRANCH  16  18
HETATM   18  C   UNL     1      43.819 -19.592   2.782  1.00  0.00     0.035 A 
HETATM   19  C   UNL     1      44.122 -19.196   4.098  1.00  0.00     0.045 A 
HETATM   20 CL   UNL     1      43.863 -17.590   4.684  1.00  0.00    -0.084 Cl
HETATM   21  C   UNL     1      44.668 -20.109   5.015  1.00  0.00     0.024 A 
HETATM   22  C   UNL     1      44.930 -21.424   4.640  1.00  0.00     0.005 A 
HETATM   23  C   UNL     1      44.648 -21.833   3.343  1.00  0.00     0.043 A 
HETATM   24  C   UNL     1      44.104 -20.924   2.437  1.00  0.00     0.126 A 
HETATM   25  F   UNL     1      43.860 -21.358   1.191  1.00  0.00    -0.205 F 
ENDBRANCH  16  18
ENDBRANCH  14  16
ENDBRANCH   1  14
TORSDOF 5
ENDMDL
MODEL 3
REMARK VINA RESULT:      -7.4      2.227      3.410
REMARK  5 active torsions:
REMARK  status: ('A' for Active; 'I' for Inactive)
REMARK    1  A    between atoms: C_8  and  N_9 
REMARK       I    between atoms: N_9  and  C_10 
REMARK    2  A    between atoms: C_10  and  C_11 
REMARK    3  A    between atoms: C_11  and  N_12 
REMARK    4  A    between atoms: N_12  and  C_13 
REMARK    5  A    between atoms: C_13  and  C_14 
ROOT
HETATM    1  C   UNL     1      42.373 -17.113   6.131  1.00  0.00     0.372 C 
ENDROOT
BRANCH   1   2
HETATM    2  C   UNL     1      42.146 -16.120   4.981  1.00  0.00     0.250 C 
HETATM    3  N   UNL     1      41.063 -16.470   4.202  1.00  0.00    -0.322 N 
HETATM    4  H   UNL     1      40.650 -17.370   4.439  1.00  0.00     0.169 HD
HETATM    5  O   UNL     1      42.856 -15.128   4.867  1.00  0.00    -0.271 OA
BRANCH   3   6
HETATM    6  C   UNL     1      40.518 -15.779   3.137  1.00  0.00     0.085 A 
HETATM    7  C   UNL     1      40.428 -16.345   1.878  1.00  0.00     0.052 A 
HETATM    8  C   UNL     1      40.831 -17.668   1.346  1.00  0.00     0.072 C 
HETATM    9  N   UNL     1      39.847 -15.400   1.083  1.00  0.00    -0.280 N 
HETATM   10  H   UNL     1      39.625 -15.463   0.096  1.00  0.00     0.189 HD
HETATM   11  N   UNL     1      39.544 -14.268   1.722  1.00  0.00    -0.177 NA
HETATM   12  C   UNL     1      39.944 -14.482   2.986  1.00  0.00     0.079 A 
HETATM   13  C   UNL     1      39.720 -13.401   3.979  1.00  0.00     0.075 C 
ENDBRANCH   3   6
ENDBRANCH   1   2
BRANCH   1  14
HETATM   14  N   UNL     1      42.686 -18.462   5.602  1.00  0.00     0.101 N 
HETATM   15  H   UNL     1      42.020 -18.645   4.845  1.00  0.00     0.317 HD
BRANCH  14  16
HETATM   16  C   UNL     1      44.045 -18.536   5.032  1.00  0.00     0.254 C 
HETATM   17  C   UNL     1      45.149 -18.279   6.067  1.00  0.00     0.048 C 
BRANCH  16  18
HETATM   18  C   UNL     1      44.288 -19.865   4.331  1.00  0.00     0.035 A 
HETATM   19  C   UNL     1      44.339 -20.050   2.937  1.00  0.00     0.045 A 
HETATM   20 CL   UNL     1      44.159 -18.756   1.805  1.00  0.00    -0.084 Cl
HETATM   21  C   UNL     1      44.537 -21.328   2.389  1.00  0.00     0.024 A 
HETATM   22  C   UNL     1      44.678 -22.442   3.213  1.00  0.00     0.005 A 
HETATM   23  C   UNL     1      44.621 -22.282   4.591  1.00  0.00     0.043 A 
HETATM   24  C   UNL     1      44.427 -21.012   5.130  1.00  0.00     0.126 A 
HETATM   25  F   UNL     1      44.364 -20.906   6.466  1.00  0.00    -0.205 F 
ENDBRANCH  16  18
ENDBRANCH  14  16
ENDBRANCH   1  14
TORSDOF 5
ENDMDL
MODEL 4
REMARK VINA RESULT:      -7.3      3.233      4.161
REMARK  5 active torsions:
REMARK  status: ('A' for Active; 'I' for Inactive)
REMARK    1  A    between atoms: C_8  and  N_9 
REMARK       I    between atoms: N_9  and  C_10 
REMARK    2  A    between atoms: C_10  and  C_11 
REMARK    3  A    between atoms: C_11  and  N_12 
REMARK    4  A    between atoms: N_12  and  C_13 
REMARK    5  A    between atoms: C_13  and  C_14 
ROOT
HETATM    1  C   UNL     1      41.084 -17.400   1.135  1.00  0.00     0.372 C 
ENDROOT
BRANCH   1   2
HETATM    2  C   UNL     1      41.010 -15.868   1.058  1.00  0.00     0.250 C 
HETATM    3  N   UNL     1      40.268 -15.440  -0.023  1.00  0.00    -0.322 N 
HETATM    4  H   UNL     1      39.974 -16.185  -0.651  1.00  0.00     0.169 HD
HETATM    5  O   UNL     1      41.532 -15.175   1.923  1.00  0.00    -0.271 OA
BRANCH   3   6
HETATM    6  C   UNL     1      39.924 -14.145  -0.364  1.00  0.00     0.085 A 
HETATM    7  C   UNL     1      38.710 -13.598   0.007  1.00  0.00     0.052 A 
HETATM    8  C   UNL     1      37.560 -14.141   0.767  1.00  0.00     0.072 C 
HETATM    9  N   UNL     1      38.705 -12.326  -0.487  1.00  0.00    -0.280 N 
HETATM   10  H   UNL     1      37.976 -11.627  -0.410  1.00  0.00     0.189 HD
HETATM   11  N   UNL     1      39.821 -11.997  -1.143  1.00  0.00    -0.177 NA
HETATM   12  C   UNL     1      40.584 -13.099  -1.074  1.00  0.00     0.079 A 
HETATM   13  C   UNL     1      41.930 -13.053  -1.699  1.00  0.00     0.075 C 
ENDBRANCH   3   6
ENDBRANCH   1   2
BRANCH   1  14
HETATM   14  N   UNL     1      41.934 -17.824   2.273  1.00  0.00     0.101 N 
HETATM   15  H   UNL     1      41.404 -18.529   2.793  1.00  0.00     0.317 HD
BRANCH  14  16
HETATM   16  C   UNL     1      43.194 -18.449   1.826  1.00  0.00     0.254 C 
HETATM   17  C   UNL     1      44.255 -17.427   1.393  1.00  0.00     0.048 C 
BRANCH  16  18
HETATM   18  C   UNL     1      43.767 -19.378   2.886  1.00  0.00     0.035 A 
HETATM   19  C   UNL     1      44.070 -19.010   4.210  1.00  0.00     0.045 A 
HETATM   20 CL   UNL     1      43.797 -17.422   4.835  1.00  0.00    -0.084 Cl
HETATM   21  C   UNL     1      44.629 -19.939   5.104  1.00  0.00     0.024 A 
HETATM   22  C   UNL     1      44.904 -21.243   4.696  1.00  0.00     0.005 A 
HETATM   23  C   UNL     1      44.621 -21.623   3.392  1.00  0.00     0.043 A 
HETATM   24  C   UNL     1      44.065 -20.699   2.509  1.00  0.00     0.126 A 
HETATM   25  F   UNL     1      43.821 -21.106   1.254  1.00  0.00    -0.205 F 
ENDBRANCH  16  18
ENDBRANCH  14  16
ENDBRANCH   1  14
TORSDOF 5
ENDMDL
MODEL 5
REMARK VINA RESULT:      -7.3      2.408      2.943
REMARK  5 active torsions:
REMARK  status: ('A' for Active; 'I' for Inactive)
REMARK    1  A    between atoms: C_8  and  N_9 
REMARK       I    between atoms: N_9  and  C_10 
REMARK    2  A    between atoms: C_10  and  C_11 
REMARK    3  A    between atoms: C_11  and  N_12 
REMARK    4  A    between atoms: N_12  and  C_13 
REMARK    5  A    between atoms: C_13  and  C_14 
ROOT
HETATM    1  C   UNL     1      41.096 -17.627   1.061  1.00  0.00     0.372 C 
ENDROOT
BRANCH   1   2
HETATM    2  C   UNL     1      40.846 -16.113   0.996  1.00  0.00     0.250 C 
HETATM    3  N   UNL     1      39.747 -15.737   1.738  1.00  0.00    -0.322 N 
HETATM    4  H   UNL     1      39.218 -16.516   2.125  1.00  0.00     0.169 HD
HETATM    5  O   UNL     1      41.610 -15.382   0.375  1.00  0.00    -0.271 OA
BRANCH   3   6
HETATM    6  C   UNL     1      39.270 -14.461   1.973  1.00  0.00     0.085 A 
HETATM    7  C   UNL     1      39.645 -13.745   3.095  1.00  0.00     0.052 A 
HETATM    8  C   UNL     1      40.535 -14.066   4.234  1.00  0.00     0.072 C 
HETATM    9  N   UNL     1      38.999 -12.546   3.007  1.00  0.00    -0.280 N 
HETATM   10  H   UNL     1      39.033 -11.767   3.654  1.00  0.00     0.189 HD
HETATM   11  N   UNL     1      38.240 -12.420   1.915  1.00  0.00    -0.177 NA
HETATM   12  C   UNL     1      38.397 -13.583   1.264  1.00  0.00     0.079 A 
HETATM   13  C   UNL     1      37.690 -13.758  -0.029  1.00  0.00     0.075 C 
ENDBRANCH   3   6
ENDBRANCH   1   2
BRANCH   1  14
HETATM   14  N   UNL     1      41.949 -17.964   2.226  1.00  0.00     0.101 N 
HETATM   15  H   UNL     1      41.448 -18.677   2.764  1.00  0.00     0.317 HD
BRANCH  14  16
HETATM   16  C   UNL     1      43.247 -18.538   1.819  1.00  0.00     0.254 C 
HETATM   17  C   UNL     1      44.287 -17.474   1.444  1.00  0.00     0.048 C 
BRANCH  16  18
HETATM   18  C   UNL     1      43.811 -19.464   2.888  1.00  0.00     0.035 A 
HETATM   19  C   UNL     1      44.107 -19.090   4.212  1.00  0.00     0.045 A 
HETATM   20 CL   UNL     1      43.835 -17.498   4.827  1.00  0.00    -0.084 Cl
HETATM   21  C   UNL     1      44.658 -20.016   5.113  1.00  0.00     0.024 A 
HETATM   22  C   UNL     1      44.930 -21.323   4.714  1.00  0.00     0.005 A 
HETATM   23  C   UNL     1      44.654 -21.709   3.409  1.00  0.00     0.043 A 
HETATM   24  C   UNL     1      44.106 -20.787   2.519  1.00  0.00     0.126 A 
HETATM   25  F   UNL     1      43.869 -21.199   1.264  1.00  0.00    -0.205 F 
ENDBRANCH  16  18
ENDBRANCH  14  16
ENDBRANCH   1  14
TORSDOF 5
ENDMDL
MODEL 6
REMARK VINA RESULT:      -7.2      2.373      3.640
REMARK  5 active torsions:
REMARK  status: ('A' for Active; 'I' for Inactive)
REMARK    1  A    between atoms: C_8  and  N_9 
REMARK       I    between atoms: N_9  and  C_10 
REMARK    2  A    between atoms: C_10  and  C_11 
REMARK    3  A    between atoms: C_11  and  N_12 
REMARK    4  A    between atoms: N_12  and  C_13 
REMARK    5  A    between atoms: C_13  and  C_14 
ROOT
HETATM    1  C   UNL     1      41.843 -16.455   6.241  1.00  0.00     0.372 C 
ENDROOT
BRANCH   1   2
HETATM    2  C   UNL     1      41.753 -15.593   4.973  1.00  0.00     0.250 C 
HETATM    3  N   UNL     1      40.861 -16.110   4.058  1.00  0.00    -0.322 N 
HETATM    4  H   UNL     1      40.481 -17.020   4.312  1.00  0.00     0.169 HD
HETATM    5  O   UNL     1      42.395 -14.553   4.880  1.00  0.00    -0.271 OA
BRANCH   3   6
HETATM    6  C   UNL     1      40.467 -15.570   2.848  1.00  0.00     0.085 A 
HETATM    7  C   UNL     1      40.578 -16.283   1.669  1.00  0.00     0.052 A 
HETATM    8  C   UNL     1      41.081 -17.643   1.367  1.00  0.00     0.072 C 
HETATM    9  N   UNL     1      40.104 -15.461   0.688  1.00  0.00    -0.280 N 
HETATM   10  H   UNL     1      40.033 -15.648  -0.306  1.00  0.00     0.189 HD
HETATM   11  N   UNL     1      39.686 -14.273   1.134  1.00  0.00    -0.177 NA
HETATM   12  C   UNL     1      39.896 -14.322   2.458  1.00  0.00     0.079 A 
HETATM   13  C   UNL     1      39.507 -13.141   3.269  1.00  0.00     0.075 C 
ENDBRANCH   3   6
ENDBRANCH   1   2
BRANCH   1  14
HETATM   14  N   UNL     1      42.229 -17.845   5.902  1.00  0.00     0.101 N 
HETATM   15  H   UNL     1      41.642 -18.132   5.113  1.00  0.00     0.317 HD
BRANCH  14  16
HETATM   16  C   UNL     1      43.637 -17.943   5.472  1.00  0.00     0.254 C 
HETATM   17  C   UNL     1      44.625 -17.389   6.508  1.00  0.00     0.048 C 
BRANCH  16  18
HETATM   18  C   UNL     1      44.014 -19.372   5.107  1.00  0.00     0.035 A 
HETATM   19  C   UNL     1      44.100 -20.446   6.011  1.00  0.00     0.045 A 
HETATM   20 CL   UNL     1      43.750 -20.291   7.697  1.00  0.00    -0.084 Cl
HETATM   21  C   UNL     1      44.490 -21.723   5.575  1.00  0.00     0.024 A 
HETATM   22  C   UNL     1      44.809 -21.952   4.239  1.00  0.00     0.005 A 
HETATM   23  C   UNL     1      44.740 -20.904   3.332  1.00  0.00     0.043 A 
HETATM   24  C   UNL     1      44.350 -19.639   3.768  1.00  0.00     0.126 A 
HETATM   25  F   UNL     1      44.312 -18.652   2.861  1.00  0.00    -0.205 F 
ENDBRANCH  16  18
ENDBRANCH  14  16
ENDBRANCH   1  14
TORSDOF 5
ENDMDL
MODEL 7
REMARK VINA RESULT:      -7.2      2.713      3.691
REMARK  5 active torsions:
REMARK  status: ('A' for Active; 'I' for Inactive)
REMARK    1  A    between atoms: C_8  and  N_9 
REMARK       I    between atoms: N_9  and  C_10 
REMARK    2  A    between atoms: C_10  and  C_11 
REMARK    3  A    between atoms: C_11  and  N_12 
REMARK    4  A    between atoms: N_12  and  C_13 
REMARK    5  A    between atoms: C_13  and  C_14 
ROOT
HETATM    1  C   UNL     1      41.131 -17.517   1.101  1.00  0.00     0.372 C 
ENDROOT
BRANCH   1   2
HETATM    2  C   UNL     1      40.700 -16.050   1.249  1.00  0.00     0.250 C 
HETATM    3  N   UNL     1      40.390 -15.477   0.034  1.00  0.00    -0.322 N 
HETATM    4  H   UNL     1      40.589 -16.069  -0.771  1.00  0.00     0.169 HD
HETATM    5  O   UNL     1      40.617 -15.534   2.357  1.00  0.00    -0.271 OA
BRANCH   3   6
HETATM    6  C   UNL     1      39.897 -14.210  -0.213  1.00  0.00     0.085 A 
HETATM    7  C   UNL     1      40.641 -13.265  -0.895  1.00  0.00     0.052 A 
HETATM    8  C   UNL     1      42.000 -13.298  -1.484  1.00  0.00     0.072 C 
HETATM    9  N   UNL     1      39.859 -12.148  -0.959  1.00  0.00    -0.280 N 
HETATM   10  H   UNL     1      40.078 -11.254  -1.385  1.00  0.00     0.189 HD
HETATM   11  N   UNL     1      38.664 -12.291  -0.382  1.00  0.00    -0.177 NA
HETATM   12  C   UNL     1      38.665 -13.551   0.078  1.00  0.00     0.079 A 
HETATM   13  C   UNL     1      37.445 -14.043   0.765  1.00  0.00     0.075 C 
ENDBRANCH   3   6
ENDBRANCH   1   2
BRANCH   1  14
HETATM   14  N   UNL     1      41.964 -17.934   2.254  1.00  0.00     0.101 N 
HETATM   15  H   UNL     1      41.444 -18.668   2.746  1.00  0.00     0.317 HD
BRANCH  14  16
HETATM   16  C   UNL     1      43.256 -18.507   1.831  1.00  0.00     0.254 C 
HETATM   17  C   UNL     1      44.257 -17.447   1.349  1.00  0.00     0.048 C 
BRANCH  16  18
HETATM   18  C   UNL     1      43.882 -19.352   2.931  1.00  0.00     0.035 A 
HETATM   19  C   UNL     1      44.178 -20.725   2.831  1.00  0.00     0.045 A 
HETATM   20 CL   UNL     1      43.892 -21.650   1.400  1.00  0.00    -0.084 Cl
HETATM   21  C   UNL     1      44.727 -21.422   3.920  1.00  0.00     0.024 A 
HETATM   22  C   UNL     1      44.982 -20.773   5.126  1.00  0.00     0.005 A 
HETATM   23  C   UNL     1      44.689 -19.421   5.248  1.00  0.00     0.043 A 
HETATM   24  C   UNL     1      44.147 -18.733   4.165  1.00  0.00     0.126 A 
HETATM   25  F   UNL     1      43.865 -17.432   4.332  1.00  0.00    -0.205 F 
ENDBRANCH  16  18
ENDBRANCH  14  16
ENDBRANCH   1  14
TORSDOF 5
ENDMDL
MODEL 8
REMARK VINA RESULT:      -7.0      3.203      4.307
REMARK  5 active torsions:
REMARK  status: ('A' for Active; 'I' for Inactive)
REMARK    1  A    between atoms: C_8  and  N_9 
REMARK       I    between atoms: N_9  and  C_10 
REMARK    2  A    between atoms: C_10  and  C_11 
REMARK    3  A    between atoms: C_11  and  N_12 
REMARK    4  A    between atoms: N_12  and  C_13 
REMARK    5  A    between atoms: C_13  and  C_14 
ROOT
HETATM    1  C   UNL     1      42.908 -14.737   3.187  1.00  0.00     0.372 C 
ENDROOT
BRANCH   1   2
HETATM    2  C   UNL     1      42.317 -13.939   2.015  1.00  0.00     0.250 C 
HETATM    3  N   UNL     1      41.349 -14.652   1.340  1.00  0.00    -0.322 N 
HETATM    4  H   UNL     1      41.247 -15.616   1.649  1.00  0.00     0.169 HD
HETATM    5  O   UNL     1      42.680 -12.789   1.800  1.00  0.00    -0.271 OA
BRANCH   3   6
HETATM    6  C   UNL     1      40.554 -14.231   0.290  1.00  0.00     0.085 A 
HETATM    7  C   UNL     1      39.174 -14.259   0.373  1.00  0.00     0.052 A 
HETATM    8  C   UNL     1      38.245 -14.690   1.444  1.00  0.00     0.072 C 
HETATM    9  N   UNL     1      38.717 -13.779  -0.820  1.00  0.00    -0.280 N 
HETATM   10  H   UNL     1      37.757 -13.658  -1.120  1.00  0.00     0.189 HD
HETATM   11  N   UNL     1      39.688 -13.433  -1.670  1.00  0.00    -0.177 NA
HETATM   12  C   UNL     1      40.823 -13.698  -1.005  1.00  0.00     0.079 A 
HETATM   13  C   UNL     1      42.111 -13.394  -1.678  1.00  0.00     0.075 C 
ENDBRANCH   3   6
ENDBRANCH   1   2
BRANCH   1  14
HETATM   14  N   UNL     1      43.207 -16.128   2.773  1.00  0.00     0.101 N 
HETATM   15  H   UNL     1      44.216 -16.177   2.602  1.00  0.00     0.317 HD
BRANCH  14  16
HETATM   16  C   UNL     1      42.882 -17.107   3.828  1.00  0.00     0.254 C 
HETATM   17  C   UNL     1      41.378 -17.202   4.122  1.00  0.00     0.048 C 
BRANCH  16  18
HETATM   18  C   UNL     1      43.437 -18.487   3.504  1.00  0.00     0.035 A 
HETATM   19  C   UNL     1      44.396 -19.177   4.269  1.00  0.00     0.045 A 
HETATM   20 CL   UNL     1      45.066 -18.548   5.733  1.00  0.00    -0.084 Cl
HETATM   21  C   UNL     1      44.868 -20.436   3.863  1.00  0.00     0.024 A 
HETATM   22  C   UNL     1      44.404 -21.026   2.689  1.00  0.00     0.005 A 
HETATM   23  C   UNL     1      43.466 -20.358   1.915  1.00  0.00     0.043 A 
HETATM   24  C   UNL     1      42.998 -19.110   2.323  1.00  0.00     0.126 A 
HETATM   25  F   UNL     1      42.103 -18.494   1.536  1.00  0.00    -0.205 F 
ENDBRANCH  16  18
ENDBRANCH  14  16
ENDBRANCH   1  14
TORSDOF 5
ENDMDL
MODEL 9
REMARK VINA RESULT:      -7.0      5.071      6.279
REMARK  5 active torsions:
REMARK  status: ('A' for Active; 'I' for Inactive)
REMARK    1  A    between atoms: C_8  and  N_9 
REMARK       I    between atoms: N_9  and  C_10 
REMARK    2  A    between atoms: C_10  and  C_11 
REMARK    3  A    between atoms: C_11  and  N_12 
REMARK    4  A    between atoms: N_12  and  C_13 
REMARK    5  A    between atoms: C_13  and  C_14 
ROOT
HETATM    1  C   UNL     1      44.966 -14.233   6.964  1.00  0.00     0.372 C 
ENDROOT
BRANCH   1   2
HETATM    2  C   UNL     1      44.955 -13.011   7.896  1.00  0.00     0.250 C 
HETATM    3  N   UNL     1      43.676 -12.564   8.146  1.00  0.00    -0.322 N 
HETATM    4  H   UNL     1      42.953 -13.035   7.605  1.00  0.00     0.169 HD
HETATM    5  O   UNL     1      46.001 -12.575   8.362  1.00  0.00    -0.271 OA
BRANCH   3   6
HETATM    6  C   UNL     1      43.277 -11.545   8.991  1.00  0.00     0.085 A 
HETATM    7  C   UNL     1      42.404 -10.558   8.571  1.00  0.00     0.052 A 
HETATM    8  C   UNL     1      41.725 -10.309   7.278  1.00  0.00     0.072 C 
HETATM    9  N   UNL     1      42.229  -9.731   9.643  1.00  0.00    -0.280 N 
HETATM   10  H   UNL     1      41.656  -8.898   9.704  1.00  0.00     0.189 HD
HETATM   11  N   UNL     1      42.911 -10.104  10.729  1.00  0.00    -0.177 NA
HETATM   12  C   UNL     1      43.556 -11.218  10.351  1.00  0.00     0.079 A 
HETATM   13  C   UNL     1      44.401 -11.908  11.358  1.00  0.00     0.075 C 
ENDBRANCH   3   6
ENDBRANCH   1   2
BRANCH   1  14
HETATM   14  N   UNL     1      43.723 -15.023   7.126  1.00  0.00     0.101 N 
HETATM   15  H   UNL     1      43.144 -14.838   6.303  1.00  0.00     0.317 HD
BRANCH  14  16
HETATM   16  C   UNL     1      43.988 -16.474   7.172  1.00  0.00     0.254 C 
HETATM   17  C   UNL     1      43.376 -17.162   8.401  1.00  0.00     0.048 C 
BRANCH  16  18
HETATM   18  C   UNL     1      43.522 -17.170   5.901  1.00  0.00     0.035 A 
HETATM   19  C   UNL     1      42.250 -17.028   5.316  1.00  0.00     0.045 A 
HETATM   20 CL   UNL     1      41.025 -15.993   5.963  1.00  0.00    -0.084 Cl
HETATM   21  C   UNL     1      41.908 -17.742   4.157  1.00  0.00     0.024 A 
HETATM   22  C   UNL     1      42.818 -18.615   3.564  1.00  0.00     0.005 A 
HETATM   23  C   UNL     1      44.075 -18.778   4.130  1.00  0.00     0.043 A 
HETATM   24  C   UNL     1      44.410 -18.065   5.280  1.00  0.00     0.126 A 
HETATM   25  F   UNL     1      45.631 -18.264   5.801  1.00  0.00    -0.205 F 
ENDBRANCH  16  18
ENDBRANCH  14  16
ENDBRANCH   1  14
TORSDOF 5
ENDMDL
MODEL 10
REMARK VINA RESULT:      -7.0      3.636      7.092
REMARK  5 active torsions:
REMARK  status: ('A' for Active; 'I' for Inactive)
REMARK    1  A    between atoms: C_8  and  N_9 
REMARK       I    between atoms: N_9  and  C_10 
REMARK    2  A    between atoms: C_10  and  C_11 
REMARK    3  A    between atoms: C_11  and  N_12 
REMARK    4  A    between atoms: N_12  and  C_13 
REMARK    5  A    between atoms: C_13  and  C_14 
ROOT
HETATM    1  C   UNL     1      44.599 -18.403   6.916  1.00  0.00     0.372 C 
ENDROOT
BRANCH   1   2
HETATM    2  C   UNL     1      44.179 -19.657   6.134  1.00  0.00     0.250 C 
HETATM    3  N   UNL     1      44.647 -19.638   4.838  1.00  0.00    -0.322 N 
HETATM    4  H   UNL     1      45.102 -18.769   4.569  1.00  0.00     0.169 HD
HETATM    5  O   UNL     1      43.545 -20.549   6.685  1.00  0.00    -0.271 OA
BRANCH   3   6
HETATM    6  C   UNL     1      44.532 -20.623   3.874  1.00  0.00     0.085 A 
HETATM    7  C   UNL     1      44.133 -20.327   2.584  1.00  0.00     0.052 A 
HETATM    8  C   UNL     1      43.751 -19.058   1.922  1.00  0.00     0.072 C 
HETATM    9  N   UNL     1      44.131 -21.514   1.910  1.00  0.00    -0.280 N 
HETATM   10  H   UNL     1      43.889 -21.684   0.941  1.00  0.00     0.189 HD
HETATM   11  N   UNL     1      44.504 -22.558   2.655  1.00  0.00    -0.177 NA
HETATM   12  C   UNL     1      44.759 -22.031   3.863  1.00  0.00     0.079 A 
HETATM   13  C   UNL     1      45.231 -22.943   4.935  1.00  0.00     0.075 C 
ENDBRANCH   3   6
ENDBRANCH   1   2
BRANCH   1  14
HETATM   14  N   UNL     1      44.441 -17.189   6.079  1.00  0.00     0.101 N 
HETATM   15  H   UNL     1      44.960 -17.357   5.212  1.00  0.00     0.317 HD
BRANCH  14  16
HETATM   16  C   UNL     1      43.032 -16.940   5.718  1.00  0.00     0.254 C 
HETATM   17  C   UNL     1      42.136 -16.665   6.934  1.00  0.00     0.048 C 
BRANCH  16  18
HETATM   18  C   UNL     1      42.903 -15.808   4.709  1.00  0.00     0.035 A 
HETATM   19  C   UNL     1      43.473 -14.529   4.846  1.00  0.00     0.045 A 
HETATM   20 CL   UNL     1      44.448 -14.070   6.197  1.00  0.00    -0.084 Cl
HETATM   21  C   UNL     1      43.265 -13.542   3.869  1.00  0.00     0.024 A 
HETATM   22  C   UNL     1      42.482 -13.804   2.747  1.00  0.00     0.005 A 
HETATM   23  C   UNL     1      41.902 -15.057   2.598  1.00  0.00     0.043 A 
HETATM   24  C   UNL     1      42.113 -16.034   3.568  1.00  0.00     0.126 A 
HETATM   25  F   UNL     1      41.521 -17.225   3.391  1.00  0.00    -0.205 F 
ENDBRANCH  16  18
ENDBRANCH  14  16
ENDBRANCH   1  14
TORSDOF 5
ENDMDL
