MODEL 1
REMARK VINA RESULT:      -8.7      0.000      0.000
REMARK  4 active torsions:
REMARK  status: ('A' for Active; 'I' for Inactive)
REMARK    1  A    between atoms: N_7  and  N_8 
REMARK       I    between atoms: N_8  and  C_9 
REMARK    2  A    between atoms: C_9  and  C_10 
REMARK    3  A    between atoms: C_10  and  N_11 
REMARK    4  A    between atoms: N_11  and  C_12 
ROOT
HETATM    1  N   UNL     1      43.998 -13.261   7.996  1.00  0.00    -0.245 N 
HETATM    2  C   UNL     1      44.636 -12.544   8.996  1.00  0.00     0.250 C 
HETATM    3  O   UNL     1      45.640 -12.914   9.605  1.00  0.00    -0.270 OA
HETATM    4  H   UNL     1      43.273 -12.820   7.425  1.00  0.00     0.192 HD
ENDROOT
BRANCH   1   5
HETATM    5  N   UNL     1      44.421 -14.521   7.679  1.00  0.00    -0.166 NA
HETATM    6  C   UNL     1      43.838 -15.097   6.678  1.00  0.00     0.157 A 
HETATM    7  C   UNL     1      44.124 -16.436   6.182  1.00  0.00     0.027 A 
HETATM    8  C   UNL     1      42.724 -14.547   5.780  1.00  0.00     0.277 A 
HETATM    9  C   UNL     1      45.018 -17.388   6.625  1.00  0.00     0.016 A 
HETATM   10  C   UNL     1      43.274 -16.649   5.098  1.00  0.00     0.048 A 
HETATM   11  C   UNL     1      45.043 -18.602   5.932  1.00  0.00     0.001 A 
HETATM   12  C   UNL     1      44.188 -18.824   4.832  1.00  0.00     0.002 A 
HETATM   13  C   UNL     1      43.290 -17.840   4.402  1.00  0.00     0.030 A 
HETATM   14  N   UNL     1      42.463 -15.541   4.863  1.00  0.00    -0.321 N 
HETATM   15  H   UNL     1      41.767 -15.461   4.137  1.00  0.00     0.169 HD
HETATM   16  O   UNL     1      42.209 -13.456   5.908  1.00  0.00    -0.266 OA
ENDBRANCH   1   5
BRANCH   2  17
HETATM   17  C   UNL     1      43.983 -11.190   9.281  1.00  0.00     0.197 C 
BRANCH  17  18
HETATM   18  N   UNL     1      42.741 -11.347  10.045  1.00  0.00    -0.284 NA
HETATM   19  H   UNL     1      42.371 -12.290   9.918  1.00  0.00     0.128 HD
BRANCH  18  20
HETATM   20  C   UNL     1      42.664 -10.932  11.376  1.00  0.00     0.008 A 
HETATM   21  C   UNL     1      43.606 -10.092  11.981  1.00  0.00     0.025 A 
HETATM   22  C   UNL     1      43.434  -9.631  13.293  1.00  0.00     0.021 A 
HETATM   23  C   UNL     1      42.292  -9.981  14.005  1.00  0.00     0.011 A 
HETATM   24 BR   UNL     1      42.050  -9.346  15.768  1.00  0.00    -0.051 Br
HETATM   25  C   UNL     1      41.321 -10.780  13.415  1.00  0.00     0.021 A 
HETATM   26  C   UNL     1      41.503 -11.237  12.106  1.00  0.00     0.025 A 
ENDBRANCH  18  20
ENDBRANCH  17  18
ENDBRANCH   2  17
TORSDOF 4
ENDMDL
MODEL 2
REMARK VINA RESULT:      -8.7      8.670     11.073
REMARK  4 active torsions:
REMARK  status: ('A' for Active; 'I' for Inactive)
REMARK    1  A    between atoms: N_7  and  N_8 
REMARK       I    between atoms: N_8  and  C_9 
REMARK    2  A    between atoms: C_9  and  C_10 
REMARK    3  A    between atoms: C_10  and  N_11 
REMARK    4  A    between atoms: N_11  and  C_12 
ROOT
HETATM    1  N   UNL     1      43.230 -17.045   0.926  1.00  0.00    -0.245 N 
HETATM    2  C   UNL     1      41.932 -16.627   0.683  1.00  0.00     0.250 C 
HETATM    3  O   UNL     1      40.933 -17.345   0.734  1.00  0.00    -0.270 OA
HETATM    4  H   UNL     1      43.984 -16.362   1.027  1.00  0.00     0.192 HD
ENDROOT
BRANCH   1   5
HETATM    5  N   UNL     1      43.493 -18.366   1.161  1.00  0.00    -0.166 NA
HETATM    6  C   UNL     1      43.783 -18.694   2.379  1.00  0.00     0.157 A 
HETATM    7  C   UNL     1      44.107 -20.036   2.844  1.00  0.00     0.027 A 
HETATM    8  C   UNL     1      43.866 -17.792   3.614  1.00  0.00     0.277 A 
HETATM    9  C   UNL     1      44.202 -21.229   2.157  1.00  0.00     0.016 A 
HETATM   10  C   UNL     1      44.346 -19.936   4.213  1.00  0.00     0.048 A 
HETATM   11  C   UNL     1      44.552 -22.359   2.900  1.00  0.00     0.001 A 
HETATM   12  C   UNL     1      44.793 -22.267   4.287  1.00  0.00     0.002 A 
HETATM   13  C   UNL     1      44.690 -21.043   4.961  1.00  0.00     0.030 A 
HETATM   14  N   UNL     1      44.198 -18.624   4.660  1.00  0.00    -0.321 N 
HETATM   15  H   UNL     1      44.325 -18.305   5.608  1.00  0.00     0.169 HD
HETATM   16  O   UNL     1      43.679 -16.593   3.607  1.00  0.00    -0.266 OA
ENDBRANCH   1   5
BRANCH   2  17
HETATM   17  C   UNL     1      41.827 -15.136   0.355  1.00  0.00     0.197 C 
BRANCH  17  18
HETATM   18  N   UNL     1      41.934 -14.899  -1.089  1.00  0.00    -0.284 NA
HETATM   19  H   UNL     1      42.631 -15.527  -1.494  1.00  0.00     0.128 HD
BRANCH  18  20
HETATM   20  C   UNL     1      40.790 -14.806  -1.884  1.00  0.00     0.008 A 
HETATM   21  C   UNL     1      40.589 -15.568  -3.041  1.00  0.00     0.025 A 
HETATM   22  C   UNL     1      39.383 -15.505  -3.753  1.00  0.00     0.021 A 
HETATM   23  C   UNL     1      38.349 -14.698  -3.292  1.00  0.00     0.011 A 
HETATM   24 BR   UNL     1      36.717 -14.625  -4.241  1.00  0.00    -0.051 Br
HETATM   25  C   UNL     1      38.507 -13.962  -2.124  1.00  0.00     0.021 A 
HETATM   26  C   UNL     1      39.714 -14.032  -1.421  1.00  0.00     0.025 A 
ENDBRANCH  18  20
ENDBRANCH  17  18
ENDBRANCH   2  17
TORSDOF 4
ENDMDL
MODEL 3
REMARK VINA RESULT:      -8.3      1.491      1.896
REMARK  4 active torsions:
REMARK  status: ('A' for Active; 'I' for Inactive)
REMARK    1  A    between atoms: N_7  and  N_8 
REMARK       I    between atoms: N_8  and  C_9 
REMARK    2  A    between atoms: C_9  and  C_10 
REMARK    3  A    between atoms: C_10  and  N_11 
REMARK    4  A    between atoms: N_11  and  C_12 
ROOT
HETATM    1  N   UNL     1      43.879 -14.769   7.390  1.00  0.00    -0.245 N 
HETATM    2  C   UNL     1      44.805 -13.739   7.383  1.00  0.00     0.250 C 
HETATM    3  O   UNL     1      45.852 -13.730   6.736  1.00  0.00    -0.270 OA
HETATM    4  H   UNL     1      42.960 -14.636   7.819  1.00  0.00     0.192 HD
ENDROOT
BRANCH   1   5
HETATM    5  N   UNL     1      44.136 -15.927   6.712  1.00  0.00    -0.166 NA
HETATM    6  C   UNL     1      43.438 -16.144   5.643  1.00  0.00     0.157 A 
HETATM    7  C   UNL     1      43.541 -17.315   4.783  1.00  0.00     0.027 A 
HETATM    8  C   UNL     1      42.350 -15.262   5.022  1.00  0.00     0.277 A 
HETATM    9  C   UNL     1      44.340 -18.434   4.878  1.00  0.00     0.016 A 
HETATM   10  C   UNL     1      42.617 -17.136   3.755  1.00  0.00     0.048 A 
HETATM   11  C   UNL     1      44.189 -19.405   3.884  1.00  0.00     0.001 A 
HETATM   12  C   UNL     1      43.257 -19.230   2.839  1.00  0.00     0.002 A 
HETATM   13  C   UNL     1      42.457 -18.082   2.765  1.00  0.00     0.030 A 
HETATM   14  N   UNL     1      41.927 -15.932   3.896  1.00  0.00    -0.321 N 
HETATM   15  H   UNL     1      41.208 -15.588   3.278  1.00  0.00     0.169 HD
HETATM   16  O   UNL     1      41.973 -14.204   5.482  1.00  0.00    -0.266 OA
ENDBRANCH   1   5
BRANCH   2  17
HETATM   17  C   UNL     1      44.399 -12.553   8.260  1.00  0.00     0.197 C 
BRANCH  17  18
HETATM   18  N   UNL     1      44.319 -12.938   9.674  1.00  0.00    -0.284 NA
HETATM   19  H   UNL     1      45.122 -13.519   9.922  1.00  0.00     0.128 HD
BRANCH  18  20
HETATM   20  C   UNL     1      44.038 -11.988  10.658  1.00  0.00     0.008 A 
HETATM   21  C   UNL     1      44.126 -10.607  10.448  1.00  0.00     0.025 A 
HETATM   22  C   UNL     1      43.744  -9.695  11.441  1.00  0.00     0.021 A 
HETATM   23  C   UNL     1      43.237 -10.159  12.650  1.00  0.00     0.011 A 
HETATM   24 BR   UNL     1      42.706  -8.930  13.983  1.00  0.00    -0.051 Br
HETATM   25  C   UNL     1      43.101 -11.524  12.869  1.00  0.00     0.021 A 
HETATM   26  C   UNL     1      43.486 -12.426  11.873  1.00  0.00     0.025 A 
ENDBRANCH  18  20
ENDBRANCH  17  18
ENDBRANCH   2  17
TORSDOF 4
ENDMDL
MODEL 4
REMARK VINA RESULT:      -8.3      3.651      8.836
REMARK  4 active torsions:
REMARK  status: ('A' for Active; 'I' for Inactive)
REMARK    1  A    between atoms: N_7  and  N_8 
REMARK       I    between atoms: N_8  and  C_9 
REMARK    2  A    between atoms: C_9  and  C_10 
REMARK    3  A    between atoms: C_10  and  N_11 
REMARK    4  A    between atoms: N_11  and  C_12 
ROOT
HETATM    1  N   UNL     1      44.021 -12.815   9.404  1.00  0.00    -0.245 N 
HETATM    2  C   UNL     1      45.134 -12.773   8.581  1.00  0.00     0.250 C 
HETATM    3  O   UNL     1      46.162 -12.135   8.809  1.00  0.00    -0.270 OA
HETATM    4  H   UNL     1      43.275 -13.494   9.232  1.00  0.00     0.192 HD
ENDROOT
BRANCH   1   5
HETATM    5  N   UNL     1      43.969 -12.040  10.529  1.00  0.00    -0.166 NA
HETATM    6  C   UNL     1      43.216 -10.988  10.477  1.00  0.00     0.157 A 
HETATM    7  C   UNL     1      43.029 -10.023  11.551  1.00  0.00     0.027 A 
HETATM    8  C   UNL     1      42.356 -10.489   9.311  1.00  0.00     0.277 A 
HETATM    9  C   UNL     1      43.576  -9.966  12.816  1.00  0.00     0.016 A 
HETATM   10  C   UNL     1      42.142  -9.061  11.072  1.00  0.00     0.048 A 
HETATM   11  C   UNL     1      43.200  -8.885  13.619  1.00  0.00     0.001 A 
HETATM   12  C   UNL     1      42.300  -7.909  13.142  1.00  0.00     0.002 A 
HETATM   13  C   UNL     1      41.758  -7.991  11.853  1.00  0.00     0.030 A 
HETATM   14  N   UNL     1      41.747  -9.341   9.765  1.00  0.00    -0.321 N 
HETATM   15  H   UNL     1      41.115  -8.787   9.207  1.00  0.00     0.169 HD
HETATM   16  O   UNL     1      42.278 -11.032   8.229  1.00  0.00    -0.266 OA
ENDBRANCH   1   5
BRANCH   2  17
HETATM   17  C   UNL     1      44.992 -13.635   7.325  1.00  0.00     0.197 C 
BRANCH  17  18
HETATM   18  N   UNL     1      44.180 -14.828   7.586  1.00  0.00    -0.284 NA
HETATM   19  H   UNL     1      43.314 -14.563   8.060  1.00  0.00     0.128 HD
BRANCH  18  20
HETATM   20  C   UNL     1      43.957 -15.775   6.584  1.00  0.00     0.008 A 
HETATM   21  C   UNL     1      43.323 -15.482   5.371  1.00  0.00     0.025 A 
HETATM   22  C   UNL     1      43.207 -16.446   4.360  1.00  0.00     0.021 A 
HETATM   23  C   UNL     1      43.757 -17.710   4.543  1.00  0.00     0.011 A 
HETATM   24 BR   UNL     1      43.616 -19.005   3.174  1.00  0.00    -0.051 Br
HETATM   25  C   UNL     1      44.427 -18.014   5.721  1.00  0.00     0.021 A 
HETATM   26  C   UNL     1      44.536 -17.046   6.724  1.00  0.00     0.025 A 
ENDBRANCH  18  20
ENDBRANCH  17  18
ENDBRANCH   2  17
TORSDOF 4
ENDMDL
MODEL 5
REMARK VINA RESULT:      -8.2      8.519     10.651
REMARK  4 active torsions:
REMARK  status: ('A' for Active; 'I' for Inactive)
REMARK    1  A    between atoms: N_7  and  N_8 
REMARK       I    between atoms: N_8  and  C_9 
REMARK    2  A    between atoms: C_9  and  C_10 
REMARK    3  A    between atoms: C_10  and  N_11 
REMARK    4  A    between atoms: N_11  and  C_12 
ROOT
HETATM    1  N   UNL     1      43.171 -17.033   0.773  1.00  0.00    -0.245 N 
HETATM    2  C   UNL     1      41.862 -16.608   0.611  1.00  0.00     0.250 C 
HETATM    3  O   UNL     1      40.863 -17.307   0.781  1.00  0.00    -0.270 OA
HETATM    4  H   UNL     1      43.938 -16.356   0.776  1.00  0.00     0.192 HD
ENDROOT
BRANCH   1   5
HETATM    5  N   UNL     1      43.437 -18.343   1.058  1.00  0.00    -0.166 NA
HETATM    6  C   UNL     1      43.740 -18.621   2.285  1.00  0.00     0.157 A 
HETATM    7  C   UNL     1      44.070 -19.943   2.801  1.00  0.00     0.027 A 
HETATM    8  C   UNL     1      43.836 -17.670   3.482  1.00  0.00     0.277 A 
HETATM    9  C   UNL     1      44.158 -21.162   2.161  1.00  0.00     0.016 A 
HETATM   10  C   UNL     1      44.324 -19.788   4.162  1.00  0.00     0.048 A 
HETATM   11  C   UNL     1      44.518 -22.262   2.946  1.00  0.00     0.001 A 
HETATM   12  C   UNL     1      44.773 -22.113   4.325  1.00  0.00     0.002 A 
HETATM   13  C   UNL     1      44.676 -20.863   4.950  1.00  0.00     0.030 A 
HETATM   14  N   UNL     1      44.180 -18.459   4.557  1.00  0.00    -0.321 N 
HETATM   15  H   UNL     1      44.316 -18.102   5.490  1.00  0.00     0.169 HD
HETATM   16  O   UNL     1      43.648 -16.472   3.429  1.00  0.00    -0.266 OA
ENDBRANCH   1   5
BRANCH   2  17
HETATM   17  C   UNL     1      41.748 -15.135   0.212  1.00  0.00     0.197 C 
BRANCH  17  18
HETATM   18  N   UNL     1      41.717 -14.980  -1.247  1.00  0.00    -0.284 NA
HETATM   19  H   UNL     1      40.943 -15.521  -1.638  1.00  0.00     0.128 HD
BRANCH  18  20
HETATM   20  C   UNL     1      41.818 -13.716  -1.832  1.00  0.00     0.008 A 
HETATM   21  C   UNL     1      42.435 -12.624  -1.212  1.00  0.00     0.025 A 
HETATM   22  C   UNL     1      42.593 -11.402  -1.881  1.00  0.00     0.021 A 
HETATM   23  C   UNL     1      42.161 -11.271  -3.196  1.00  0.00     0.011 A 
HETATM   24 BR   UNL     1      42.388  -9.630  -4.103  1.00  0.00    -0.051 Br
HETATM   25  C   UNL     1      41.582 -12.352  -3.849  1.00  0.00     0.021 A 
HETATM   26  C   UNL     1      41.428 -13.567  -3.173  1.00  0.00     0.025 A 
ENDBRANCH  18  20
ENDBRANCH  17  18
ENDBRANCH   2  17
TORSDOF 4
ENDMDL
MODEL 6
REMARK VINA RESULT:      -8.1      7.232     10.178
REMARK  4 active torsions:
REMARK  status: ('A' for Active; 'I' for Inactive)
REMARK    1  A    between atoms: N_7  and  N_8 
REMARK       I    between atoms: N_8  and  C_9 
REMARK    2  A    between atoms: C_9  and  C_10 
REMARK    3  A    between atoms: C_10  and  N_11 
REMARK    4  A    between atoms: N_11  and  C_12 
ROOT
HETATM    1  N   UNL     1      42.147 -13.749   2.536  1.00  0.00    -0.245 N 
HETATM    2  C   UNL     1      43.142 -14.126   3.424  1.00  0.00     0.250 C 
HETATM    3  O   UNL     1      44.243 -13.584   3.529  1.00  0.00    -0.270 OA
HETATM    4  H   UNL     1      41.204 -14.137   2.621  1.00  0.00     0.192 HD
ENDROOT
BRANCH   1   5
HETATM    5  N   UNL     1      42.382 -12.761   1.622  1.00  0.00    -0.166 NA
HETATM    6  C   UNL     1      42.186 -13.061   0.378  1.00  0.00     0.157 A 
HETATM    7  C   UNL     1      42.388 -12.166  -0.754  1.00  0.00     0.027 A 
HETATM    8  C   UNL     1      41.714 -14.391  -0.219  1.00  0.00     0.277 A 
HETATM    9  C   UNL     1      42.826 -10.859  -0.802  1.00  0.00     0.016 A 
HETATM   10  C   UNL     1      42.058 -12.891  -1.898  1.00  0.00     0.048 A 
HETATM   11  C   UNL     1      42.928 -10.273  -2.067  1.00  0.00     0.001 A 
HETATM   12  C   UNL     1      42.593 -10.999  -3.229  1.00  0.00     0.002 A 
HETATM   13  C   UNL     1      42.150 -12.326  -3.152  1.00  0.00     0.030 A 
HETATM   14  N   UNL     1      41.659 -14.188  -1.580  1.00  0.00    -0.321 N 
HETATM   15  H   UNL     1      41.378 -14.898  -2.239  1.00  0.00     0.169 HD
HETATM   16  O   UNL     1      41.465 -15.388   0.427  1.00  0.00    -0.266 OA
ENDBRANCH   1   5
BRANCH   2  17
HETATM   17  C   UNL     1      42.743 -15.301   4.319  1.00  0.00     0.197 C 
BRANCH  17  18
HETATM   18  N   UNL     1      42.065 -16.351   3.550  1.00  0.00    -0.284 NA
HETATM   19  H   UNL     1      41.620 -15.945   2.725  1.00  0.00     0.128 HD
BRANCH  18  20
HETATM   20  C   UNL     1      42.713 -17.552   3.256  1.00  0.00     0.008 A 
HETATM   21  C   UNL     1      43.560 -18.213   4.152  1.00  0.00     0.025 A 
HETATM   22  C   UNL     1      44.113 -19.463   3.842  1.00  0.00     0.021 A 
HETATM   23  C   UNL     1      43.795 -20.082   2.638  1.00  0.00     0.011 A 
HETATM   24 BR   UNL     1      44.526 -21.774   2.226  1.00  0.00    -0.051 Br
HETATM   25  C   UNL     1      42.924 -19.466   1.748  1.00  0.00     0.021 A 
HETATM   26  C   UNL     1      42.378 -18.218   2.066  1.00  0.00     0.025 A 
ENDBRANCH  18  20
ENDBRANCH  17  18
ENDBRANCH   2  17
TORSDOF 4
ENDMDL
MODEL 7
REMARK VINA RESULT:      -8.0      8.187      9.791
REMARK  4 active torsions:
REMARK  status: ('A' for Active; 'I' for Inactive)
REMARK    1  A    between atoms: N_7  and  N_8 
REMARK       I    between atoms: N_8  and  C_9 
REMARK    2  A    between atoms: C_9  and  C_10 
REMARK    3  A    between atoms: C_10  and  N_11 
REMARK    4  A    between atoms: N_11  and  C_12 
ROOT
HETATM    1  N   UNL     1      43.160 -17.166   0.861  1.00  0.00    -0.245 N 
HETATM    2  C   UNL     1      41.846 -16.771   0.669  1.00  0.00     0.250 C 
HETATM    3  O   UNL     1      40.858 -17.487   0.830  1.00  0.00    -0.270 OA
HETATM    4  H   UNL     1      43.913 -16.474   0.868  1.00  0.00     0.192 HD
ENDROOT
BRANCH   1   5
HETATM    5  N   UNL     1      43.447 -18.466   1.170  1.00  0.00    -0.166 NA
HETATM    6  C   UNL     1      43.756 -18.716   2.402  1.00  0.00     0.157 A 
HETATM    7  C   UNL     1      44.108 -20.023   2.942  1.00  0.00     0.027 A 
HETATM    8  C   UNL     1      43.839 -17.741   3.581  1.00  0.00     0.277 A 
HETATM    9  C   UNL     1      44.215 -21.252   2.325  1.00  0.00     0.016 A 
HETATM   10  C   UNL     1      44.362 -19.838   4.299  1.00  0.00     0.048 A 
HETATM   11  C   UNL     1      44.593 -22.331   3.130  1.00  0.00     0.001 A 
HETATM   12  C   UNL     1      44.849 -22.152   4.506  1.00  0.00     0.002 A 
HETATM   13  C   UNL     1      44.733 -20.892   5.107  1.00  0.00     0.030 A 
HETATM   14  N   UNL     1      44.198 -18.504   4.669  1.00  0.00    -0.321 N 
HETATM   15  H   UNL     1      44.330 -18.127   5.596  1.00  0.00     0.169 HD
HETATM   16  O   UNL     1      43.632 -16.547   3.505  1.00  0.00    -0.266 OA
ENDBRANCH   1   5
BRANCH   2  17
HETATM   17  C   UNL     1      41.709 -15.307   0.246  1.00  0.00     0.197 C 
BRANCH  17  18
HETATM   18  N   UNL     1      40.610 -15.129  -0.711  1.00  0.00    -0.284 NA
HETATM   19  H   UNL     1      40.239 -16.040  -0.987  1.00  0.00     0.128 HD
BRANCH  18  20
HETATM   20  C   UNL     1      39.594 -14.203  -0.468  1.00  0.00     0.008 A 
HETATM   21  C   UNL     1      39.011 -13.414  -1.467  1.00  0.00     0.025 A 
HETATM   22  C   UNL     1      37.931 -12.566  -1.186  1.00  0.00     0.021 A 
HETATM   23  C   UNL     1      37.400 -12.524   0.098  1.00  0.00     0.011 A 
HETATM   24 BR   UNL     1      35.933 -11.394   0.474  1.00  0.00    -0.051 Br
HETATM   25  C   UNL     1      37.933 -13.326   1.099  1.00  0.00     0.021 A 
HETATM   26  C   UNL     1      39.012 -14.168   0.809  1.00  0.00     0.025 A 
ENDBRANCH  18  20
ENDBRANCH  17  18
ENDBRANCH   2  17
TORSDOF 4
ENDMDL
MODEL 8
REMARK VINA RESULT:      -8.0      1.942      2.965
REMARK  4 active torsions:
REMARK  status: ('A' for Active; 'I' for Inactive)
REMARK    1  A    between atoms: N_7  and  N_8 
REMARK       I    between atoms: N_8  and  C_9 
REMARK    2  A    between atoms: C_9  and  C_10 
REMARK    3  A    between atoms: C_10  and  N_11 
REMARK    4  A    between atoms: N_11  and  C_12 
ROOT
HETATM    1  N   UNL     1      43.455 -14.683   6.476  1.00  0.00    -0.245 N 
HETATM    2  C   UNL     1      44.511 -13.858   6.827  1.00  0.00     0.250 C 
HETATM    3  O   UNL     1      45.456 -13.563   6.096  1.00  0.00    -0.270 OA
HETATM    4  H   UNL     1      42.627 -14.748   7.074  1.00  0.00     0.192 HD
ENDROOT
BRANCH   1   5
HETATM    5  N   UNL     1      43.453 -15.317   5.265  1.00  0.00    -0.166 NA
HETATM    6  C   UNL     1      43.671 -16.593   5.276  1.00  0.00     0.157 A 
HETATM    7  C   UNL     1      43.726 -17.456   4.104  1.00  0.00     0.027 A 
HETATM    8  C   UNL     1      43.928 -17.506   6.480  1.00  0.00     0.277 A 
HETATM    9  C   UNL     1      43.586 -17.163   2.763  1.00  0.00     0.016 A 
HETATM   10  C   UNL     1      43.978 -18.745   4.570  1.00  0.00     0.048 A 
HETATM   11  C   UNL     1      43.708 -18.230   1.868  1.00  0.00     0.001 A 
HETATM   12  C   UNL     1      43.960 -19.538   2.332  1.00  0.00     0.002 A 
HETATM   13  C   UNL     1      44.097 -19.808   3.700  1.00  0.00     0.030 A 
HETATM   14  N   UNL     1      44.089 -18.770   5.959  1.00  0.00    -0.321 N 
HETATM   15  H   UNL     1      44.274 -19.586   6.522  1.00  0.00     0.169 HD
HETATM   16  O   UNL     1      43.979 -17.129   7.633  1.00  0.00    -0.266 OA
ENDBRANCH   1   5
BRANCH   2  17
HETATM   17  C   UNL     1      44.396 -13.297   8.246  1.00  0.00     0.197 C 
BRANCH  17  18
HETATM   18  N   UNL     1      43.622 -12.050   8.266  1.00  0.00    -0.284 NA
HETATM   19  H   UNL     1      42.723 -12.192   7.802  1.00  0.00     0.128 HD
BRANCH  18  20
HETATM   20  C   UNL     1      43.491 -11.309   9.441  1.00  0.00     0.008 A 
HETATM   21  C   UNL     1      42.313 -10.650   9.814  1.00  0.00     0.025 A 
HETATM   22  C   UNL     1      42.205  -9.997  11.049  1.00  0.00     0.021 A 
HETATM   23  C   UNL     1      43.271 -10.023  11.942  1.00  0.00     0.011 A 
HETATM   24 BR   UNL     1      43.120  -9.157  13.614  1.00  0.00    -0.051 Br
HETATM   25  C   UNL     1      44.437 -10.704  11.614  1.00  0.00     0.021 A 
HETATM   26  C   UNL     1      44.535 -11.352  10.379  1.00  0.00     0.025 A 
ENDBRANCH  18  20
ENDBRANCH  17  18
ENDBRANCH   2  17
TORSDOF 4
ENDMDL
MODEL 9
REMARK VINA RESULT:      -7.9      5.661      7.206
REMARK  4 active torsions:
REMARK  status: ('A' for Active; 'I' for Inactive)
REMARK    1  A    between atoms: N_7  and  N_8 
REMARK       I    between atoms: N_8  and  C_9 
REMARK    2  A    between atoms: C_9  and  C_10 
REMARK    3  A    between atoms: C_10  and  N_11 
REMARK    4  A    between atoms: N_11  and  C_12 
ROOT
HETATM    1  N   UNL     1      44.374 -17.020   5.942  1.00  0.00    -0.245 N 
HETATM    2  C   UNL     1      43.555 -16.534   6.948  1.00  0.00     0.250 C 
HETATM    3  O   UNL     1      43.002 -17.220   7.807  1.00  0.00    -0.270 OA
HETATM    4  H   UNL     1      44.927 -16.378   5.369  1.00  0.00     0.192 HD
ENDROOT
BRANCH   1   5
HETATM    5  N   UNL     1      44.549 -18.367   5.791  1.00  0.00    -0.166 NA
HETATM    6  C   UNL     1      44.359 -18.849   4.605  1.00  0.00     0.157 A 
HETATM    7  C   UNL     1      44.478 -20.252   4.228  1.00  0.00     0.027 A 
HETATM    8  C   UNL     1      43.965 -18.105   3.325  1.00  0.00     0.277 A 
HETATM    9  C   UNL     1      44.787 -21.364   4.983  1.00  0.00     0.016 A 
HETATM   10  C   UNL     1      44.194 -20.323   2.866  1.00  0.00     0.048 A 
HETATM   11  C   UNL     1      44.808 -22.593   4.318  1.00  0.00     0.001 A 
HETATM   12  C   UNL     1      44.524 -22.673   2.938  1.00  0.00     0.002 A 
HETATM   13  C   UNL     1      44.213 -21.528   2.194  1.00  0.00     0.030 A 
HETATM   14  N   UNL     1      43.900 -19.066   2.341  1.00  0.00    -0.321 N 
HETATM   15  H   UNL     1      43.660 -18.867   1.382  1.00  0.00     0.169 HD
HETATM   16  O   UNL     1      43.753 -16.911   3.258  1.00  0.00    -0.266 OA
ENDBRANCH   1   5
BRANCH   2  17
HETATM   17  C   UNL     1      43.402 -15.012   6.922  1.00  0.00     0.197 C 
BRANCH  17  18
HETATM   18  N   UNL     1      42.107 -14.615   6.357  1.00  0.00    -0.284 NA
HETATM   19  H   UNL     1      41.689 -13.879   6.929  1.00  0.00     0.128 HD
BRANCH  18  20
HETATM   20  C   UNL     1      41.972 -14.356   4.992  1.00  0.00     0.008 A 
HETATM   21  C   UNL     1      42.923 -13.656   4.240  1.00  0.00     0.025 A 
HETATM   22  C   UNL     1      42.785 -13.503   2.854  1.00  0.00     0.021 A 
HETATM   23  C   UNL     1      41.703 -14.081   2.198  1.00  0.00     0.011 A 
HETATM   24 BR   UNL     1      41.524 -13.889   0.327  1.00  0.00    -0.051 Br
HETATM   25  C   UNL     1      40.766 -14.815   2.914  1.00  0.00     0.021 A 
HETATM   26  C   UNL     1      40.912 -14.961   4.297  1.00  0.00     0.025 A 
ENDBRANCH  18  20
ENDBRANCH  17  18
ENDBRANCH   2  17
TORSDOF 4
ENDMDL
MODEL 10
REMARK VINA RESULT:      -7.9      5.899      7.654
REMARK  4 active torsions:
REMARK  status: ('A' for Active; 'I' for Inactive)
REMARK    1  A    between atoms: N_7  and  N_8 
REMARK       I    between atoms: N_8  and  C_9 
REMARK    2  A    between atoms: C_9  and  C_10 
REMARK    3  A    between atoms: C_10  and  N_11 
REMARK    4  A    between atoms: N_11  and  C_12 
ROOT
HETATM    1  N   UNL     1      43.219 -17.152   1.307  1.00  0.00    -0.245 N 
HETATM    2  C   UNL     1      41.951 -16.705   0.971  1.00  0.00     0.250 C 
HETATM    3  O   UNL     1      40.969 -17.424   0.792  1.00  0.00    -0.270 OA
HETATM    4  H   UNL     1      43.941 -16.489   1.600  1.00  0.00     0.192 HD
ENDROOT
BRANCH   1   5
HETATM    5  N   UNL     1      43.478 -18.492   1.374  1.00  0.00    -0.166 NA
HETATM    6  C   UNL     1      43.827 -18.960   2.528  1.00  0.00     0.157 A 
HETATM    7  C   UNL     1      44.160 -20.349   2.818  1.00  0.00     0.027 A 
HETATM    8  C   UNL     1      43.985 -18.208   3.854  1.00  0.00     0.277 A 
HETATM    9  C   UNL     1      44.206 -21.454   1.994  1.00  0.00     0.016 A 
HETATM   10  C   UNL     1      44.471 -20.410   4.175  1.00  0.00     0.048 A 
HETATM   11  C   UNL     1      44.582 -22.665   2.582  1.00  0.00     0.001 A 
HETATM   12  C   UNL     1      44.895 -22.735   3.955  1.00  0.00     0.002 A 
HETATM   13  C   UNL     1      44.841 -21.597   4.770  1.00  0.00     0.030 A 
HETATM   14  N   UNL     1      44.362 -19.157   4.777  1.00  0.00    -0.321 N 
HETATM   15  H   UNL     1      44.541 -18.951   5.748  1.00  0.00     0.169 HD
HETATM   16  O   UNL     1      43.811 -17.015   3.995  1.00  0.00    -0.266 OA
ENDBRANCH   1   5
BRANCH   2  17
HETATM   17  C   UNL     1      41.856 -15.182   0.858  1.00  0.00     0.197 C 
BRANCH  17  18
HETATM   18  N   UNL     1      41.149 -14.605   2.008  1.00  0.00    -0.284 NA
HETATM   19  H   UNL     1      40.268 -15.100   2.158  1.00  0.00     0.128 HD
BRANCH  18  20
HETATM   20  C   UNL     1      41.819 -14.357   3.207  1.00  0.00     0.008 A 
HETATM   21  C   UNL     1      41.300 -14.687   4.465  1.00  0.00     0.025 A 
HETATM   22  C   UNL     1      42.053 -14.501   5.633  1.00  0.00     0.021 A 
HETATM   23  C   UNL     1      43.352 -14.011   5.549  1.00  0.00     0.011 A 
HETATM   24 BR   UNL     1      44.373 -13.777   7.121  1.00  0.00    -0.051 Br
HETATM   25  C   UNL     1      43.905 -13.715   4.310  1.00  0.00     0.021 A 
HETATM   26  C   UNL     1      43.146 -13.902   3.151  1.00  0.00     0.025 A 
ENDBRANCH  18  20
ENDBRANCH  17  18
ENDBRANCH   2  17
TORSDOF 4
ENDMDL
