MODEL 1
REMARK VINA RESULT:      -8.3      0.000      0.000
REMARK  6 active torsions:
REMARK  status: ('A' for Active; 'I' for Inactive)
REMARK    1  A    between atoms: C_2  and  C_3 
REMARK       I    between atoms: C_3  and  N_4 
REMARK    2  A    between atoms: N_4  and  C_5 
REMARK    3  A    between atoms: C_8  and  N_9 
REMARK       I    between atoms: N_9  and  C_10 
REMARK    4  A    between atoms: C_10  and  C_11 
REMARK    5  A    between atoms: C_16  and  C_17 
REMARK    6  A    between atoms: C_23  and  C_24 
ROOT
HETATM    1  C   UNL     1      39.636 -14.875   1.341  1.00  0.00     0.148 C 
HETATM    2  N   UNL     1      40.879 -14.340   1.402  1.00  0.00    -0.165 NA
HETATM    3  N   UNL     1      41.508 -15.138   2.279  1.00  0.00    -0.240 N 
HETATM    4  C   UNL     1      40.802 -16.252   2.626  1.00  0.00     0.123 C 
HETATM    5  N   UNL     1      41.376 -17.239   3.341  1.00  0.00    -0.364 N 
HETATM    6  C   UNL     1      42.832 -17.350   3.518  1.00  0.00     0.143 C 
HETATM    7  C   UNL     1      43.597 -16.269   2.716  1.00  0.00     0.068 C 
HETATM    8  C   UNL     1      42.877 -14.918   2.697  1.00  0.00     0.221 C 
HETATM    9  C   UNL     1      39.545 -16.065   2.116  1.00  0.00     0.089 C 
HETATM   10  H   UNL     1      40.847 -18.063   3.624  1.00  0.00     0.162 HD
ENDROOT
BRANCH   1  11
HETATM   11  C   UNL     1      38.575 -14.275   0.511  1.00  0.00     0.276 C 
HETATM   12  N   UNL     1      38.872 -14.379  -0.834  1.00  0.00    -0.322 N 
HETATM   13  H   UNL     1      39.733 -14.887  -1.016  1.00  0.00     0.169 HD
HETATM   14  O   UNL     1      37.559 -13.801   1.006  1.00  0.00    -0.266 OA
BRANCH  12  15
HETATM   15  C   UNL     1      38.135 -13.909  -1.930  1.00  0.00     0.035 A 
HETATM   16  C   UNL     1      37.773 -12.576  -2.109  1.00  0.00     0.032 A 
HETATM   17  C   UNL     1      37.080 -12.175  -3.260  1.00  0.00     0.032 A 
HETATM   18  C   UNL     1      36.721 -13.105  -4.235  1.00  0.00     0.034 A 
HETATM   19  C   UNL     1      37.057 -14.448  -4.037  1.00  0.00     0.032 A 
HETATM   20  C   UNL     1      37.774 -14.844  -2.904  1.00  0.00     0.032 A 
BRANCH  18  21
HETATM   21  N   UNL     1      36.037 -12.784  -5.425  1.00  0.00    -0.327 N 
HETATM   22  C   UNL     1      34.676 -12.859  -5.656  1.00  0.00     0.221 C 
HETATM   23  O   UNL     1      33.821 -13.245  -4.866  1.00  0.00    -0.273 OA
HETATM   24  H   UNL     1      36.607 -12.407  -6.169  1.00  0.00     0.169 HD
BRANCH  22  25
HETATM   25  C   UNL     1      34.281 -12.436  -7.064  1.00  0.00     0.098 C 
HETATM   26  C   UNL     1      35.059 -13.151  -8.155  1.00  0.00     0.014 C 
ENDBRANCH  22  25
ENDBRANCH  18  21
ENDBRANCH  12  15
ENDBRANCH   1  11
BRANCH   8  27
HETATM   27  C   UNL     1      42.908 -14.213   4.034  1.00  0.00     0.409 C 
HETATM   28  F   UNL     1      41.761 -14.381   4.727  1.00  0.00    -0.169 F 
HETATM   29  F   UNL     1      43.929 -14.596   4.827  1.00  0.00    -0.169 F 
HETATM   30  F   UNL     1      43.050 -12.875   3.840  1.00  0.00    -0.169 F 
ENDBRANCH   8  27
BRANCH   6  31
HETATM   31  C   UNL     1      43.357 -18.697   3.119  1.00  0.00     0.075 A 
HETATM   32  O   UNL     1      44.333 -19.237   3.903  1.00  0.00    -0.325 OA
HETATM   33  C   UNL     1      44.678 -20.425   3.342  1.00  0.00     0.142 A 
HETATM   34  C   UNL     1      43.941 -20.655   2.204  1.00  0.00     0.027 A 
HETATM   35  C   UNL     1      43.085 -19.538   2.058  1.00  0.00     0.037 A 
ENDBRANCH   6  31
TORSDOF 6
ENDMDL
MODEL 2
REMARK VINA RESULT:      -8.1      6.942     10.327
REMARK  6 active torsions:
REMARK  status: ('A' for Active; 'I' for Inactive)
REMARK    1  A    between atoms: C_2  and  C_3 
REMARK       I    between atoms: C_3  and  N_4 
REMARK    2  A    between atoms: N_4  and  C_5 
REMARK    3  A    between atoms: C_8  and  N_9 
REMARK       I    between atoms: N_9  and  C_10 
REMARK    4  A    between atoms: C_10  and  C_11 
REMARK    5  A    between atoms: C_16  and  C_17 
REMARK    6  A    between atoms: C_23  and  C_24 
ROOT
HETATM    1  C   UNL     1      40.576 -12.855   5.865  1.00  0.00     0.148 C 
HETATM    2  N   UNL     1      41.576 -11.944   5.951  1.00  0.00    -0.165 NA
HETATM    3  N   UNL     1      41.093 -11.047   6.826  1.00  0.00    -0.240 N 
HETATM    4  C   UNL     1      39.939 -11.433   7.441  1.00  0.00     0.123 C 
HETATM    5  N   UNL     1      39.442 -10.732   8.479  1.00  0.00    -0.364 N 
HETATM    6  C   UNL     1      40.230  -9.732   9.214  1.00  0.00     0.143 C 
HETATM    7  C   UNL     1      41.694  -9.666   8.714  1.00  0.00     0.068 C 
HETATM    8  C   UNL     1      41.816  -9.849   7.198  1.00  0.00     0.221 C 
HETATM    9  C   UNL     1      39.521 -12.553   6.772  1.00  0.00     0.089 C 
HETATM   10  H   UNL     1      38.567 -11.001   8.927  1.00  0.00     0.162 HD
ENDROOT
BRANCH   1  11
HETATM   11  C   UNL     1      40.664 -14.018   4.963  1.00  0.00     0.276 C 
HETATM   12  N   UNL     1      41.782 -14.781   5.236  1.00  0.00    -0.322 N 
HETATM   13  H   UNL     1      42.315 -14.440   6.032  1.00  0.00     0.169 HD
HETATM   14  O   UNL     1      39.798 -14.253   4.128  1.00  0.00    -0.266 OA
BRANCH  12  15
HETATM   15  C   UNL     1      42.229 -15.940   4.587  1.00  0.00     0.035 A 
HETATM   16  C   UNL     1      43.063 -15.933   3.473  1.00  0.00     0.032 A 
HETATM   17  C   UNL     1      43.510 -17.138   2.910  1.00  0.00     0.032 A 
HETATM   18  C   UNL     1      43.109 -18.362   3.441  1.00  0.00     0.034 A 
HETATM   19  C   UNL     1      42.244 -18.367   4.540  1.00  0.00     0.032 A 
HETATM   20  C   UNL     1      41.822 -17.166   5.120  1.00  0.00     0.032 A 
BRANCH  18  21
HETATM   21  N   UNL     1      43.521 -19.616   2.945  1.00  0.00    -0.327 N 
HETATM   22  C   UNL     1      44.494 -20.447   3.468  1.00  0.00     0.221 C 
HETATM   23  O   UNL     1      45.192 -20.225   4.452  1.00  0.00    -0.273 OA
HETATM   24  H   UNL     1      43.004 -19.961   2.148  1.00  0.00     0.169 HD
BRANCH  22  25
HETATM   25  C   UNL     1      44.681 -21.730   2.671  1.00  0.00     0.098 C 
HETATM   26  C   UNL     1      43.776 -21.829   1.455  1.00  0.00     0.014 C 
ENDBRANCH  22  25
ENDBRANCH  18  21
ENDBRANCH  12  15
ENDBRANCH   1  11
BRANCH   8  27
HETATM   27  C   UNL     1      41.299  -8.662   6.417  1.00  0.00     0.409 C 
HETATM   28  F   UNL     1      42.042  -8.413   5.316  1.00  0.00    -0.169 F 
HETATM   29  F   UNL     1      40.014  -8.784   6.029  1.00  0.00    -0.169 F 
HETATM   30  F   UNL     1      41.366  -7.546   7.189  1.00  0.00    -0.169 F 
ENDBRANCH   8  27
BRANCH   6  31
HETATM   31  C   UNL     1      40.245  -9.989  10.691  1.00  0.00     0.075 A 
HETATM   32  O   UNL     1      40.252 -11.293  11.092  1.00  0.00    -0.325 OA
HETATM   33  C   UNL     1      40.230 -11.288  12.451  1.00  0.00     0.142 A 
HETATM   34  C   UNL     1      40.203 -10.000  12.930  1.00  0.00     0.027 A 
HETATM   35  C   UNL     1      40.213  -9.157  11.794  1.00  0.00     0.037 A 
ENDBRANCH   6  31
TORSDOF 6
ENDMDL
MODEL 3
REMARK VINA RESULT:      -7.9      3.569     10.377
REMARK  6 active torsions:
REMARK  status: ('A' for Active; 'I' for Inactive)
REMARK    1  A    between atoms: C_2  and  C_3 
REMARK       I    between atoms: C_3  and  N_4 
REMARK    2  A    between atoms: N_4  and  C_5 
REMARK    3  A    between atoms: C_8  and  N_9 
REMARK       I    between atoms: N_9  and  C_10 
REMARK    4  A    between atoms: C_10  and  C_11 
REMARK    5  A    between atoms: C_16  and  C_17 
REMARK    6  A    between atoms: C_23  and  C_24 
ROOT
HETATM    1  C   UNL     1      41.307 -14.122  -0.520  1.00  0.00     0.148 C 
HETATM    2  N   UNL     1      41.543 -12.788  -0.495  1.00  0.00    -0.165 NA
HETATM    3  N   UNL     1      41.088 -12.379  -1.690  1.00  0.00    -0.240 N 
HETATM    4  C   UNL     1      40.407 -13.335  -2.385  1.00  0.00     0.123 C 
HETATM    5  N   UNL     1      39.728 -13.021  -3.505  1.00  0.00    -0.364 N 
HETATM    6  C   UNL     1      39.403 -11.636  -3.878  1.00  0.00     0.143 C 
HETATM    7  C   UNL     1      39.847 -10.624  -2.793  1.00  0.00     0.068 C 
HETATM    8  C   UNL     1      41.176 -11.003  -2.132  1.00  0.00     0.221 C 
HETATM    9  C   UNL     1      40.614 -14.504  -1.704  1.00  0.00     0.089 C 
HETATM   10  H   UNL     1      39.237 -13.734  -4.043  1.00  0.00     0.162 HD
ENDROOT
BRANCH   1  11
HETATM   11  C   UNL     1      41.699 -14.998   0.600  1.00  0.00     0.276 C 
HETATM   12  N   UNL     1      42.364 -16.121   0.149  1.00  0.00    -0.322 N 
HETATM   13  H   UNL     1      42.508 -16.124  -0.857  1.00  0.00     0.169 HD
HETATM   14  O   UNL     1      41.478 -14.692   1.766  1.00  0.00    -0.266 OA
BRANCH  12  15
HETATM   15  C   UNL     1      42.867 -17.197   0.894  1.00  0.00     0.035 A 
HETATM   16  C   UNL     1      44.198 -17.319   1.280  1.00  0.00     0.032 A 
HETATM   17  C   UNL     1      44.614 -18.400   2.071  1.00  0.00     0.032 A 
HETATM   18  C   UNL     1      43.708 -19.383   2.464  1.00  0.00     0.034 A 
HETATM   19  C   UNL     1      42.378 -19.276   2.048  1.00  0.00     0.032 A 
HETATM   20  C   UNL     1      41.956 -18.183   1.284  1.00  0.00     0.032 A 
BRANCH  18  21
HETATM   21  N   UNL     1      44.040 -20.493   3.267  1.00  0.00    -0.327 N 
HETATM   22  C   UNL     1      44.356 -21.771   2.844  1.00  0.00     0.221 C 
HETATM   23  O   UNL     1      44.378 -22.172   1.685  1.00  0.00    -0.273 OA
HETATM   24  H   UNL     1      44.104 -20.311   4.259  1.00  0.00     0.169 HD
BRANCH  22  25
HETATM   25  C   UNL     1      44.660 -22.726   3.989  1.00  0.00     0.098 C 
HETATM   26  C   UNL     1      44.784 -22.039   5.338  1.00  0.00     0.014 C 
ENDBRANCH  22  25
ENDBRANCH  18  21
ENDBRANCH  12  15
ENDBRANCH   1  11
BRANCH   8  27
HETATM   27  C   UNL     1      42.364 -10.823  -3.050  1.00  0.00     0.409 C 
HETATM   28  F   UNL     1      43.450 -10.359  -2.395  1.00  0.00    -0.169 F 
HETATM   29  F   UNL     1      42.723 -11.948  -3.701  1.00  0.00    -0.169 F 
HETATM   30  F   UNL     1      42.066  -9.902  -4.005  1.00  0.00    -0.169 F 
ENDBRANCH   8  27
BRANCH   6  31
HETATM   31  C   UNL     1      37.939 -11.441  -4.137  1.00  0.00     0.075 A 
HETATM   32  O   UNL     1      37.098 -12.420  -3.695  1.00  0.00    -0.325 OA
HETATM   33  C   UNL     1      35.841 -12.057  -4.063  1.00  0.00     0.142 A 
HETATM   34  C   UNL     1      35.863 -10.860  -4.741  1.00  0.00     0.027 A 
HETATM   35  C   UNL     1      37.218 -10.459  -4.789  1.00  0.00     0.037 A 
ENDBRANCH   6  31
TORSDOF 6
ENDMDL
MODEL 4
REMARK VINA RESULT:      -7.9      2.382      3.405
REMARK  6 active torsions:
REMARK  status: ('A' for Active; 'I' for Inactive)
REMARK    1  A    between atoms: C_2  and  C_3 
REMARK       I    between atoms: C_3  and  N_4 
REMARK    2  A    between atoms: N_4  and  C_5 
REMARK    3  A    between atoms: C_8  and  N_9 
REMARK       I    between atoms: N_9  and  C_10 
REMARK    4  A    between atoms: C_10  and  C_11 
REMARK    5  A    between atoms: C_16  and  C_17 
REMARK    6  A    between atoms: C_23  and  C_24 
ROOT
HETATM    1  C   UNL     1      42.092 -15.628   3.167  1.00  0.00     0.148 C 
HETATM    2  N   UNL     1      43.158 -15.353   3.958  1.00  0.00    -0.165 NA
HETATM    3  N   UNL     1      43.195 -16.405   4.792  1.00  0.00    -0.240 N 
HETATM    4  C   UNL     1      42.343 -17.415   4.454  1.00  0.00     0.123 C 
HETATM    5  N   UNL     1      42.406 -18.607   5.077  1.00  0.00    -0.364 N 
HETATM    6  C   UNL     1      43.552 -19.015   5.903  1.00  0.00     0.143 C 
HETATM    7  C   UNL     1      44.686 -17.961   5.880  1.00  0.00     0.068 C 
HETATM    8  C   UNL     1      44.163 -16.522   5.861  1.00  0.00     0.221 C 
HETATM    9  C   UNL     1      41.542 -16.907   3.466  1.00  0.00     0.089 C 
HETATM   10  H   UNL     1      41.756 -19.358   4.846  1.00  0.00     0.162 HD
ENDROOT
BRANCH   1  11
HETATM   11  C   UNL     1      41.650 -14.698   2.113  1.00  0.00     0.276 C 
HETATM   12  N   UNL     1      40.676 -15.268   1.317  1.00  0.00    -0.322 N 
HETATM   13  H   UNL     1      40.403 -16.198   1.623  1.00  0.00     0.169 HD
HETATM   14  O   UNL     1      42.092 -13.557   2.032  1.00  0.00    -0.266 OA
BRANCH  12  15
HETATM   15  C   UNL     1      40.027 -14.720   0.202  1.00  0.00     0.035 A 
HETATM   16  C   UNL     1      40.565 -14.711  -1.082  1.00  0.00     0.032 A 
HETATM   17  C   UNL     1      39.831 -14.190  -2.158  1.00  0.00     0.032 A 
HETATM   18  C   UNL     1      38.561 -13.652  -1.958  1.00  0.00     0.034 A 
HETATM   19  C   UNL     1      38.036 -13.632  -0.662  1.00  0.00     0.032 A 
HETATM   20  C   UNL     1      38.755 -14.178   0.406  1.00  0.00     0.032 A 
BRANCH  18  21
HETATM   21  N   UNL     1      37.753 -13.121  -2.984  1.00  0.00    -0.327 N 
HETATM   22  C   UNL     1      36.993 -13.822  -3.902  1.00  0.00     0.221 C 
HETATM   23  O   UNL     1      36.908 -15.042  -4.000  1.00  0.00    -0.273 OA
HETATM   24  H   UNL     1      37.686 -12.113  -3.010  1.00  0.00     0.169 HD
BRANCH  22  25
HETATM   25  C   UNL     1      36.244 -12.922  -4.874  1.00  0.00     0.098 C 
HETATM   26  C   UNL     1      35.117 -12.135  -4.230  1.00  0.00     0.014 C 
ENDBRANCH  22  25
ENDBRANCH  18  21
ENDBRANCH  12  15
ENDBRANCH   1  11
BRANCH   8  27
HETATM   27  C   UNL     1      43.546 -16.101   7.176  1.00  0.00     0.409 C 
HETATM   28  F   UNL     1      43.615 -17.077   8.108  1.00  0.00    -0.169 F 
HETATM   29  F   UNL     1      44.093 -14.987   7.702  1.00  0.00    -0.169 F 
HETATM   30  F   UNL     1      42.225 -15.835   6.993  1.00  0.00    -0.169 F 
ENDBRANCH   8  27
BRANCH   6  31
HETATM   31  C   UNL     1      44.123 -20.335   5.478  1.00  0.00     0.075 A 
HETATM   32  O   UNL     1      44.452 -20.470   4.161  1.00  0.00    -0.325 OA
HETATM   33  C   UNL     1      44.911 -21.739   3.997  1.00  0.00     0.142 A 
HETATM   34  C   UNL     1      44.876 -22.424   5.189  1.00  0.00     0.027 A 
HETATM   35  C   UNL     1      44.367 -21.518   6.148  1.00  0.00     0.037 A 
ENDBRANCH   6  31
TORSDOF 6
ENDMDL
MODEL 5
REMARK VINA RESULT:      -7.9      3.986      4.423
REMARK  6 active torsions:
REMARK  status: ('A' for Active; 'I' for Inactive)
REMARK    1  A    between atoms: C_2  and  C_3 
REMARK       I    between atoms: C_3  and  N_4 
REMARK    2  A    between atoms: N_4  and  C_5 
REMARK    3  A    between atoms: C_8  and  N_9 
REMARK       I    between atoms: N_9  and  C_10 
REMARK    4  A    between atoms: C_10  and  C_11 
REMARK    5  A    between atoms: C_16  and  C_17 
REMARK    6  A    between atoms: C_23  and  C_24 
ROOT
HETATM    1  C   UNL     1      41.289 -14.438   0.785  1.00  0.00     0.148 C 
HETATM    2  N   UNL     1      42.072 -14.096   1.837  1.00  0.00    -0.165 NA
HETATM    3  N   UNL     1      42.048 -15.199   2.602  1.00  0.00    -0.240 N 
HETATM    4  C   UNL     1      41.460 -16.277   2.009  1.00  0.00     0.123 C 
HETATM    5  N   UNL     1      41.534 -17.499   2.571  1.00  0.00    -0.364 N 
HETATM    6  C   UNL     1      42.484 -17.826   3.645  1.00  0.00     0.143 C 
HETATM    7  C   UNL     1      43.426 -16.640   3.966  1.00  0.00     0.068 C 
HETATM    8  C   UNL     1      42.726 -15.281   3.879  1.00  0.00     0.221 C 
HETATM    9  C   UNL     1      40.868 -15.796   0.872  1.00  0.00     0.089 C 
HETATM   10  H   UNL     1      41.077 -18.304   2.146  1.00  0.00     0.162 HD
ENDROOT
BRANCH   1  11
HETATM   11  C   UNL     1      40.996 -13.487  -0.303  1.00  0.00     0.276 C 
HETATM   12  N   UNL     1      42.155 -13.055  -0.916  1.00  0.00    -0.322 N 
HETATM   13  H   UNL     1      42.992 -13.498  -0.547  1.00  0.00     0.169 HD
HETATM   14  O   UNL     1      39.846 -13.194  -0.611  1.00  0.00    -0.266 OA
BRANCH  12  15
HETATM   15  C   UNL     1      42.299 -12.135  -1.964  1.00  0.00     0.035 A 
HETATM   16  C   UNL     1      42.662 -10.803  -1.784  1.00  0.00     0.032 A 
HETATM   17  C   UNL     1      42.836  -9.957  -2.889  1.00  0.00     0.032 A 
HETATM   18  C   UNL     1      42.628 -10.427  -4.185  1.00  0.00     0.034 A 
HETATM   19  C   UNL     1      42.231 -11.757  -4.361  1.00  0.00     0.032 A 
HETATM   20  C   UNL     1      42.086 -12.609  -3.262  1.00  0.00     0.032 A 
BRANCH  18  21
HETATM   21  N   UNL     1      42.793  -9.649  -5.349  1.00  0.00    -0.327 N 
HETATM   22  C   UNL     1      41.844  -8.861  -5.973  1.00  0.00     0.221 C 
HETATM   23  O   UNL     1      40.674  -8.720  -5.634  1.00  0.00    -0.273 OA
HETATM   24  H   UNL     1      43.728  -9.629  -5.731  1.00  0.00     0.169 HD
BRANCH  22  25
HETATM   25  C   UNL     1      42.370  -8.158  -7.216  1.00  0.00     0.098 C 
HETATM   26  C   UNL     1      43.876  -7.960  -7.212  1.00  0.00     0.014 C 
ENDBRANCH  22  25
ENDBRANCH  18  21
ENDBRANCH  12  15
ENDBRANCH   1  11
BRANCH   8  27
HETATM   27  C   UNL     1      41.746 -15.049   5.007  1.00  0.00     0.409 C 
HETATM   28  F   UNL     1      40.470 -15.288   4.632  1.00  0.00    -0.169 F 
HETATM   29  F   UNL     1      41.999 -15.786   6.107  1.00  0.00    -0.169 F 
HETATM   30  F   UNL     1      41.797 -13.747   5.393  1.00  0.00    -0.169 F 
ENDBRANCH   8  27
BRANCH   6  31
HETATM   31  C   UNL     1      43.324 -19.025   3.321  1.00  0.00     0.075 A 
HETATM   32  O   UNL     1      44.187 -19.454   4.287  1.00  0.00    -0.325 OA
HETATM   33  C   UNL     1      44.862 -20.514   3.771  1.00  0.00     0.142 A 
HETATM   34  C   UNL     1      44.449 -20.771   2.484  1.00  0.00     0.027 A 
HETATM   35  C   UNL     1      43.454 -19.809   2.191  1.00  0.00     0.037 A 
ENDBRANCH   6  31
TORSDOF 6
ENDMDL
MODEL 6
REMARK VINA RESULT:      -7.7      2.606      3.358
REMARK  6 active torsions:
REMARK  status: ('A' for Active; 'I' for Inactive)
REMARK    1  A    between atoms: C_2  and  C_3 
REMARK       I    between atoms: C_3  and  N_4 
REMARK    2  A    between atoms: N_4  and  C_5 
REMARK    3  A    between atoms: C_8  and  N_9 
REMARK       I    between atoms: N_9  and  C_10 
REMARK    4  A    between atoms: C_10  and  C_11 
REMARK    5  A    between atoms: C_16  and  C_17 
REMARK    6  A    between atoms: C_23  and  C_24 
ROOT
HETATM    1  C   UNL     1      40.712 -15.694   1.941  1.00  0.00     0.148 C 
HETATM    2  N   UNL     1      40.973 -17.020   1.837  1.00  0.00    -0.165 NA
HETATM    3  N   UNL     1      42.065 -17.173   2.602  1.00  0.00    -0.240 N 
HETATM    4  C   UNL     1      42.394 -16.070   3.334  1.00  0.00     0.123 C 
HETATM    5  N   UNL     1      43.341 -16.132   4.289  1.00  0.00    -0.364 N 
HETATM    6  C   UNL     1      43.848 -17.404   4.827  1.00  0.00     0.143 C 
HETATM    7  C   UNL     1      43.097 -18.622   4.236  1.00  0.00     0.068 C 
HETATM    8  C   UNL     1      42.741 -18.444   2.757  1.00  0.00     0.221 C 
HETATM    9  C   UNL     1      41.600 -15.061   2.857  1.00  0.00     0.089 C 
HETATM   10  H   UNL     1      43.609 -15.306   4.822  1.00  0.00     0.162 HD
ENDROOT
BRANCH   1  11
HETATM   11  C   UNL     1      39.597 -15.065   1.209  1.00  0.00     0.276 C 
HETATM   12  N   UNL     1      39.956 -14.764  -0.090  1.00  0.00    -0.322 N 
HETATM   13  H   UNL     1      40.896 -15.069  -0.326  1.00  0.00     0.169 HD
HETATM   14  O   UNL     1      38.498 -14.900   1.726  1.00  0.00    -0.266 OA
BRANCH  12  15
HETATM   15  C   UNL     1      39.192 -14.140  -1.085  1.00  0.00     0.035 A 
HETATM   16  C   UNL     1      38.261 -13.135  -0.834  1.00  0.00     0.032 A 
HETATM   17  C   UNL     1      37.573 -12.522  -1.891  1.00  0.00     0.032 A 
HETATM   18  C   UNL     1      37.790 -12.922  -3.209  1.00  0.00     0.034 A 
HETATM   19  C   UNL     1      38.701 -13.954  -3.455  1.00  0.00     0.032 A 
HETATM   20  C   UNL     1      39.410 -14.546  -2.405  1.00  0.00     0.032 A 
BRANCH  18  21
HETATM   21  N   UNL     1      37.151 -12.351  -4.328  1.00  0.00    -0.327 N 
HETATM   22  C   UNL     1      36.021 -12.814  -4.977  1.00  0.00     0.221 C 
HETATM   23  O   UNL     1      35.386 -13.828  -4.703  1.00  0.00    -0.273 OA
HETATM   24  H   UNL     1      37.538 -11.475  -4.652  1.00  0.00     0.169 HD
BRANCH  22  25
HETATM   25  C   UNL     1      35.607 -11.947  -6.156  1.00  0.00     0.098 C 
HETATM   26  C   UNL     1      36.325 -10.610  -6.211  1.00  0.00     0.014 C 
ENDBRANCH  22  25
ENDBRANCH  18  21
ENDBRANCH  12  15
ENDBRANCH   1  11
BRANCH   8  27
HETATM   27  C   UNL     1      43.946 -18.510   1.847  1.00  0.00     0.409 C 
HETATM   28  F   UNL     1      44.924 -19.294   2.352  1.00  0.00    -0.169 F 
HETATM   29  F   UNL     1      43.666 -18.948   0.603  1.00  0.00    -0.169 F 
HETATM   30  F   UNL     1      44.480 -17.268   1.709  1.00  0.00    -0.169 F 
ENDBRANCH   8  27
BRANCH   6  31
HETATM   31  C   UNL     1      43.756 -17.470   6.322  1.00  0.00     0.075 A 
HETATM   32  O   UNL     1      44.104 -18.650   6.910  1.00  0.00    -0.325 OA
HETATM   33  C   UNL     1      43.913 -18.496   8.247  1.00  0.00     0.142 A 
HETATM   34  C   UNL     1      43.442 -17.235   8.526  1.00  0.00     0.027 A 
HETATM   35  C   UNL     1      43.340 -16.569   7.283  1.00  0.00     0.037 A 
ENDBRANCH   6  31
TORSDOF 6
ENDMDL
MODEL 7
REMARK VINA RESULT:      -7.7      0.727      1.104
REMARK  6 active torsions:
REMARK  status: ('A' for Active; 'I' for Inactive)
REMARK    1  A    between atoms: C_2  and  C_3 
REMARK       I    between atoms: C_3  and  N_4 
REMARK    2  A    between atoms: N_4  and  C_5 
REMARK    3  A    between atoms: C_8  and  N_9 
REMARK       I    between atoms: N_9  and  C_10 
REMARK    4  A    between atoms: C_10  and  C_11 
REMARK    5  A    between atoms: C_16  and  C_17 
REMARK    6  A    between atoms: C_23  and  C_24 
ROOT
HETATM    1  C   UNL     1      39.807 -14.966   1.276  1.00  0.00     0.148 C 
HETATM    2  N   UNL     1      41.056 -14.454   1.397  1.00  0.00    -0.165 NA
HETATM    3  N   UNL     1      41.637 -15.282   2.280  1.00  0.00    -0.240 N 
HETATM    4  C   UNL     1      40.899 -16.391   2.574  1.00  0.00     0.123 C 
HETATM    5  N   UNL     1      41.429 -17.403   3.287  1.00  0.00    -0.364 N 
HETATM    6  C   UNL     1      42.874 -17.543   3.519  1.00  0.00     0.143 C 
HETATM    7  C   UNL     1      43.688 -16.458   2.771  1.00  0.00     0.068 C 
HETATM    8  C   UNL     1      42.991 -15.095   2.755  1.00  0.00     0.221 C 
HETATM    9  C   UNL     1      39.666 -16.171   2.020  1.00  0.00     0.089 C 
HETATM   10  H   UNL     1      40.876 -18.223   3.531  1.00  0.00     0.162 HD
ENDROOT
BRANCH   1  11
HETATM   11  C   UNL     1      38.790 -14.329   0.419  1.00  0.00     0.276 C 
HETATM   12  N   UNL     1      39.128 -14.425  -0.917  1.00  0.00    -0.322 N 
HETATM   13  H   UNL     1      39.982 -14.953  -1.076  1.00  0.00     0.169 HD
HETATM   14  O   UNL     1      37.769 -13.836   0.886  1.00  0.00    -0.266 OA
BRANCH  12  15
HETATM   15  C   UNL     1      38.440 -13.924  -2.030  1.00  0.00     0.035 A 
HETATM   16  C   UNL     1      37.743 -14.719  -2.935  1.00  0.00     0.032 A 
HETATM   17  C   UNL     1      37.035 -14.137  -3.997  1.00  0.00     0.032 A 
HETATM   18  C   UNL     1      37.034 -12.755  -4.179  1.00  0.00     0.034 A 
HETATM   19  C   UNL     1      37.761 -11.961  -3.287  1.00  0.00     0.032 A 
HETATM   20  C   UNL     1      38.444 -12.537  -2.211  1.00  0.00     0.032 A 
BRANCH  18  21
HETATM   21  N   UNL     1      36.340 -12.090  -5.210  1.00  0.00    -0.327 N 
HETATM   22  C   UNL     1      35.005 -11.728  -5.225  1.00  0.00     0.221 C 
HETATM   23  O   UNL     1      34.179 -11.947  -4.346  1.00  0.00    -0.273 OA
HETATM   24  H   UNL     1      36.901 -11.802  -5.999  1.00  0.00     0.169 HD
BRANCH  22  25
HETATM   25  C   UNL     1      34.589 -11.023  -6.508  1.00  0.00     0.098 C 
HETATM   26  C   UNL     1      35.759 -10.617  -7.387  1.00  0.00     0.014 C 
ENDBRANCH  22  25
ENDBRANCH  18  21
ENDBRANCH  12  15
ENDBRANCH   1  11
BRANCH   8  27
HETATM   27  C   UNL     1      42.982 -14.420   4.108  1.00  0.00     0.409 C 
HETATM   28  F   UNL     1      41.735 -14.317   4.619  1.00  0.00    -0.169 F 
HETATM   29  F   UNL     1      43.755 -15.033   5.027  1.00  0.00    -0.169 F 
HETATM   30  F   UNL     1      43.456 -13.152   3.988  1.00  0.00    -0.169 F 
ENDBRANCH   8  27
BRANCH   6  31
HETATM   31  C   UNL     1      43.392 -18.890   3.110  1.00  0.00     0.075 A 
HETATM   32  O   UNL     1      44.337 -19.458   3.912  1.00  0.00    -0.325 OA
HETATM   33  C   UNL     1      44.682 -20.641   3.339  1.00  0.00     0.142 A 
HETATM   34  C   UNL     1      43.976 -20.839   2.175  1.00  0.00     0.027 A 
HETATM   35  C   UNL     1      43.141 -19.707   2.025  1.00  0.00     0.037 A 
ENDBRANCH   6  31
TORSDOF 6
ENDMDL
MODEL 8
REMARK VINA RESULT:      -7.7      3.361      4.260
REMARK  6 active torsions:
REMARK  status: ('A' for Active; 'I' for Inactive)
REMARK    1  A    between atoms: C_2  and  C_3 
REMARK       I    between atoms: C_3  and  N_4 
REMARK    2  A    between atoms: N_4  and  C_5 
REMARK    3  A    between atoms: C_8  and  N_9 
REMARK       I    between atoms: N_9  and  C_10 
REMARK    4  A    between atoms: C_10  and  C_11 
REMARK    5  A    between atoms: C_16  and  C_17 
REMARK    6  A    between atoms: C_23  and  C_24 
ROOT
HETATM    1  C   UNL     1      41.802 -15.619   3.672  1.00  0.00     0.148 C 
HETATM    2  N   UNL     1      42.904 -15.394   4.428  1.00  0.00    -0.165 NA
HETATM    3  N   UNL     1      43.053 -16.549   5.096  1.00  0.00    -0.240 N 
HETATM    4  C   UNL     1      42.234 -17.552   4.666  1.00  0.00     0.123 C 
HETATM    5  N   UNL     1      42.401 -18.815   5.103  1.00  0.00    -0.364 N 
HETATM    6  C   UNL     1      43.622 -19.265   5.789  1.00  0.00     0.143 C 
HETATM    7  C   UNL     1      44.695 -18.150   5.852  1.00  0.00     0.068 C 
HETATM    8  C   UNL     1      44.098 -16.758   6.076  1.00  0.00     0.221 C 
HETATM    9  C   UNL     1      41.341 -16.959   3.813  1.00  0.00     0.089 C 
HETATM   10  H   UNL     1      41.778 -19.564   4.805  1.00  0.00     0.162 HD
ENDROOT
BRANCH   1  11
HETATM   11  C   UNL     1      41.240 -14.577   2.794  1.00  0.00     0.276 C 
HETATM   12  N   UNL     1      39.862 -14.540   2.878  1.00  0.00    -0.322 N 
HETATM   13  H   UNL     1      39.485 -15.195   3.557  1.00  0.00     0.169 HD
HETATM   14  O   UNL     1      41.957 -13.834   2.132  1.00  0.00    -0.266 OA
BRANCH  12  15
HETATM   15  C   UNL     1      38.966 -13.715   2.184  1.00  0.00     0.035 A 
HETATM   16  C   UNL     1      38.792 -12.360   2.451  1.00  0.00     0.032 A 
HETATM   17  C   UNL     1      37.913 -11.589   1.676  1.00  0.00     0.032 A 
HETATM   18  C   UNL     1      37.182 -12.169   0.641  1.00  0.00     0.034 A 
HETATM   19  C   UNL     1      37.334 -13.537   0.396  1.00  0.00     0.032 A 
HETATM   20  C   UNL     1      38.232 -14.300   1.148  1.00  0.00     0.032 A 
BRANCH  18  21
HETATM   21  N   UNL     1      36.288 -11.464  -0.192  1.00  0.00    -0.327 N 
HETATM   22  C   UNL     1      35.094 -10.870   0.171  1.00  0.00     0.221 C 
HETATM   23  O   UNL     1      34.586 -10.873   1.288  1.00  0.00    -0.273 OA
HETATM   24  H   UNL     1      36.589 -11.340  -1.149  1.00  0.00     0.169 HD
BRANCH  22  25
HETATM   25  C   UNL     1      34.381 -10.195  -0.991  1.00  0.00     0.098 C 
HETATM   26  C   UNL     1      34.705 -10.807  -2.343  1.00  0.00     0.014 C 
ENDBRANCH  22  25
ENDBRANCH  18  21
ENDBRANCH  12  15
ENDBRANCH   1  11
BRANCH   8  27
HETATM   27  C   UNL     1      43.551 -16.568   7.472  1.00  0.00     0.409 C 
HETATM   28  F   UNL     1      42.200 -16.589   7.499  1.00  0.00    -0.169 F 
HETATM   29  F   UNL     1      43.996 -17.480   8.360  1.00  0.00    -0.169 F 
HETATM   30  F   UNL     1      43.927 -15.351   7.946  1.00  0.00    -0.169 F 
ENDBRANCH   8  27
BRANCH   6  31
HETATM   31  C   UNL     1      44.230 -20.473   5.142  1.00  0.00     0.075 A 
HETATM   32  O   UNL     1      44.470 -21.549   5.945  1.00  0.00    -0.325 OA
HETATM   33  C   UNL     1      45.048 -22.501   5.167  1.00  0.00     0.142 A 
HETATM   34  C   UNL     1      45.188 -22.051   3.875  1.00  0.00     0.027 A 
HETATM   35  C   UNL     1      44.659 -20.739   3.856  1.00  0.00     0.037 A 
ENDBRANCH   6  31
TORSDOF 6
ENDMDL
MODEL 9
REMARK VINA RESULT:      -7.6      5.578     10.677
REMARK  6 active torsions:
REMARK  status: ('A' for Active; 'I' for Inactive)
REMARK    1  A    between atoms: C_2  and  C_3 
REMARK       I    between atoms: C_3  and  N_4 
REMARK    2  A    between atoms: N_4  and  C_5 
REMARK    3  A    between atoms: C_8  and  N_9 
REMARK       I    between atoms: N_9  and  C_10 
REMARK    4  A    between atoms: C_10  and  C_11 
REMARK    5  A    between atoms: C_16  and  C_17 
REMARK    6  A    between atoms: C_23  and  C_24 
ROOT
HETATM    1  C   UNL     1      39.684 -12.893   3.708  1.00  0.00     0.148 C 
HETATM    2  N   UNL     1      40.658 -13.835   3.710  1.00  0.00    -0.165 NA
HETATM    3  N   UNL     1      40.560 -14.373   2.483  1.00  0.00    -0.240 N 
HETATM    4  C   UNL     1      39.718 -13.702   1.646  1.00  0.00     0.123 C 
HETATM    5  N   UNL     1      39.665 -14.004   0.334  1.00  0.00    -0.364 N 
HETATM    6  C   UNL     1      40.691 -14.814  -0.339  1.00  0.00     0.143 C 
HETATM    7  C   UNL     1      41.857 -15.179   0.612  1.00  0.00     0.068 C 
HETATM    8  C   UNL     1      41.391 -15.473   2.042  1.00  0.00     0.221 C 
HETATM    9  C   UNL     1      39.057 -12.798   2.433  1.00  0.00     0.089 C 
HETATM   10  H   UNL     1      39.021 -13.524  -0.293  1.00  0.00     0.162 HD
ENDROOT
BRANCH   1  11
HETATM   11  C   UNL     1      39.402 -12.070   4.898  1.00  0.00     0.276 C 
HETATM   12  N   UNL     1      40.420 -12.165   5.827  1.00  0.00    -0.322 N 
HETATM   13  H   UNL     1      41.197 -12.739   5.511  1.00  0.00     0.169 HD
HETATM   14  O   UNL     1      38.397 -11.372   4.977  1.00  0.00    -0.266 OA
BRANCH  12  15
HETATM   15  C   UNL     1      40.511 -11.562   7.089  1.00  0.00     0.035 A 
HETATM   16  C   UNL     1      39.503 -11.610   8.047  1.00  0.00     0.032 A 
HETATM   17  C   UNL     1      39.690 -11.025   9.308  1.00  0.00     0.032 A 
HETATM   18  C   UNL     1      40.879 -10.366   9.616  1.00  0.00     0.034 A 
HETATM   19  C   UNL     1      41.878 -10.291   8.641  1.00  0.00     0.032 A 
HETATM   20  C   UNL     1      41.703 -10.899   7.393  1.00  0.00     0.032 A 
BRANCH  18  21
HETATM   21  N   UNL     1      41.153  -9.763  10.861  1.00  0.00    -0.327 N 
HETATM   22  C   UNL     1      41.904 -10.284  11.899  1.00  0.00     0.221 C 
HETATM   23  O   UNL     1      42.447 -11.383  11.927  1.00  0.00    -0.273 OA
HETATM   24  H   UNL     1      40.802  -8.823  10.978  1.00  0.00     0.169 HD
BRANCH  22  25
HETATM   25  C   UNL     1      41.990  -9.357  13.103  1.00  0.00     0.098 C 
HETATM   26  C   UNL     1      42.434 -10.054  14.377  1.00  0.00     0.014 C 
ENDBRANCH  22  25
ENDBRANCH  18  21
ENDBRANCH  12  15
ENDBRANCH   1  11
BRANCH   8  27
HETATM   27  C   UNL     1      40.639 -16.779   2.161  1.00  0.00     0.409 C 
HETATM   28  F   UNL     1      40.852 -17.384   3.350  1.00  0.00    -0.169 F 
HETATM   29  F   UNL     1      39.307 -16.656   1.992  1.00  0.00    -0.169 F 
HETATM   30  F   UNL     1      41.072 -17.642   1.205  1.00  0.00    -0.169 F 
ENDBRANCH   8  27
BRANCH   6  31
HETATM   31  C   UNL     1      41.261 -14.130  -1.545  1.00  0.00     0.075 A 
HETATM   32  O   UNL     1      42.232 -13.198  -1.325  1.00  0.00    -0.325 OA
HETATM   33  C   UNL     1      42.572 -12.688  -2.539  1.00  0.00     0.142 A 
HETATM   34  C   UNL     1      41.828 -13.275  -3.536  1.00  0.00     0.027 A 
HETATM   35  C   UNL     1      40.980 -14.208  -2.896  1.00  0.00     0.037 A 
ENDBRANCH   6  31
TORSDOF 6
ENDMDL
MODEL 10
REMARK VINA RESULT:      -7.5      3.377      3.999
REMARK  6 active torsions:
REMARK  status: ('A' for Active; 'I' for Inactive)
REMARK    1  A    between atoms: C_2  and  C_3 
REMARK       I    between atoms: C_3  and  N_4 
REMARK    2  A    between atoms: N_4  and  C_5 
REMARK    3  A    between atoms: C_8  and  N_9 
REMARK       I    between atoms: N_9  and  C_10 
REMARK    4  A    between atoms: C_10  and  C_11 
REMARK    5  A    between atoms: C_16  and  C_17 
REMARK    6  A    between atoms: C_23  and  C_24 
ROOT
HETATM    1  C   UNL     1      41.380 -15.798   2.638  1.00  0.00     0.148 C 
HETATM    2  N   UNL     1      42.459 -15.314   3.301  1.00  0.00    -0.165 NA
HETATM    3  N   UNL     1      42.616 -16.191   4.305  1.00  0.00    -0.240 N 
HETATM    4  C   UNL     1      41.827 -17.299   4.206  1.00  0.00     0.123 C 
HETATM    5  N   UNL     1      42.010 -18.351   5.027  1.00  0.00    -0.364 N 
HETATM    6  C   UNL     1      43.222 -18.526   5.840  1.00  0.00     0.143 C 
HETATM    7  C   UNL     1      44.272 -17.422   5.560  1.00  0.00     0.068 C 
HETATM    8  C   UNL     1      43.641 -16.047   5.317  1.00  0.00     0.221 C 
HETATM    9  C   UNL     1      40.943 -17.034   3.194  1.00  0.00     0.089 C 
HETATM   10  H   UNL     1      41.409 -19.173   4.974  1.00  0.00     0.162 HD
ENDROOT
BRANCH   1  11
HETATM   11  C   UNL     1      40.818 -15.106   1.464  1.00  0.00     0.276 C 
HETATM   12  N   UNL     1      41.792 -14.852   0.519  1.00  0.00    -0.322 N 
HETATM   13  H   UNL     1      42.703 -15.224   0.772  1.00  0.00     0.169 HD
HETATM   14  O   UNL     1      39.621 -14.858   1.373  1.00  0.00    -0.266 OA
BRANCH  12  15
HETATM   15  C   UNL     1      41.664 -14.193  -0.712  1.00  0.00     0.035 A 
HETATM   16  C   UNL     1      41.167 -14.792  -1.866  1.00  0.00     0.032 A 
HETATM   17  C   UNL     1      41.020 -14.050  -3.047  1.00  0.00     0.032 A 
HETATM   18  C   UNL     1      41.390 -12.707  -3.094  1.00  0.00     0.034 A 
HETATM   19  C   UNL     1      41.920 -12.116  -1.943  1.00  0.00     0.032 A 
HETATM   20  C   UNL     1      42.039 -12.847  -0.756  1.00  0.00     0.032 A 
BRANCH  18  21
HETATM   21  N   UNL     1      41.264 -11.888  -4.234  1.00  0.00    -0.327 N 
HETATM   22  C   UNL     1      40.248 -10.993  -4.517  1.00  0.00     0.221 C 
HETATM   23  O   UNL     1      39.257 -10.773  -3.830  1.00  0.00    -0.273 OA
HETATM   24  H   UNL     1      42.035 -11.926  -4.887  1.00  0.00     0.169 HD
BRANCH  22  25
HETATM   25  C   UNL     1      40.433 -10.275  -5.846  1.00  0.00     0.098 C 
HETATM   26  C   UNL     1      41.838  -9.740  -6.059  1.00  0.00     0.014 C 
ENDBRANCH  22  25
ENDBRANCH  18  21
ENDBRANCH  12  15
ENDBRANCH   1  11
BRANCH   8  27
HETATM   27  C   UNL     1      43.058 -15.435   6.570  1.00  0.00     0.409 C 
HETATM   28  F   UNL     1      43.532 -16.020   7.692  1.00  0.00    -0.169 F 
HETATM   29  F   UNL     1      43.267 -14.108   6.675  1.00  0.00    -0.169 F 
HETATM   30  F   UNL     1      41.711 -15.617   6.580  1.00  0.00    -0.169 F 
ENDBRANCH   8  27
BRANCH   6  31
HETATM   31  C   UNL     1      43.870 -19.861   5.623  1.00  0.00     0.075 A 
HETATM   32  O   UNL     1      44.455 -20.074   4.410  1.00  0.00    -0.325 OA
HETATM   33  C   UNL     1      44.940 -21.343   4.423  1.00  0.00     0.142 A 
HETATM   34  C   UNL     1      44.670 -21.952   5.626  1.00  0.00     0.027 A 
HETATM   35  C   UNL     1      43.979 -20.995   6.405  1.00  0.00     0.037 A 
ENDBRANCH   6  31
TORSDOF 6
ENDMDL
