MODEL 1
REMARK VINA RESULT:      -9.2      0.000      0.000
REMARK  6 active torsions:
REMARK  status: ('A' for Active; 'I' for Inactive)
REMARK    1  A    between atoms: O_2  and  C_3 
REMARK    2  A    between atoms: C_6  and  C_7 
REMARK    3  A    between atoms: C_11  and  C_12 
REMARK       I    between atoms: C_12  and  N_13 
REMARK    4  A    between atoms: N_13  and  N_14 
REMARK       I    between atoms: N_14  and  C_15 
REMARK    5  A    between atoms: C_15  and  C_16 
REMARK    6  A    between atoms: C_17  and  C_18 
ROOT
HETATM    1  C   UNL     1      39.653 -13.619   5.505  1.00  0.00     0.288 C 
HETATM    2  N   UNL     1      39.904 -13.653   6.858  1.00  0.00    -0.262 N 
HETATM    3  O   UNL     1      38.977 -12.731   4.987  1.00  0.00    -0.264 OA
HETATM    4  H   UNL     1      40.388 -14.417   7.323  1.00  0.00     0.190 HD
ENDROOT
BRANCH   1   5
HETATM    5  C   UNL     1      40.232 -14.693   4.745  1.00  0.00     0.121 A 
HETATM    6  N   UNL     1      39.808 -14.996   3.483  1.00  0.00    -0.272 N 
HETATM    7  N   UNL     1      40.465 -16.016   2.910  1.00  0.00    -0.174 NA
HETATM    8  H   UNL     1      39.073 -14.531   2.958  1.00  0.00     0.189 HD
HETATM    9  C   UNL     1      41.343 -16.421   3.842  1.00  0.00     0.089 A 
HETATM   10  C   UNL     1      41.231 -15.610   5.007  1.00  0.00     0.071 A 
BRANCH   9  11
HETATM   11  C   UNL     1      42.262 -17.538   3.606  1.00  0.00    -0.005 A 
HETATM   12  C   UNL     1      43.072 -18.025   4.642  1.00  0.00     0.016 A 
HETATM   13  C   UNL     1      43.935 -19.109   4.436  1.00  0.00     0.037 A 
HETATM   14  C   UNL     1      44.004 -19.721   3.187  1.00  0.00     0.068 A 
HETATM   15  C   UNL     1      43.216 -19.230   2.145  1.00  0.00     0.037 A 
HETATM   16  C   UNL     1      42.350 -18.150   2.350  1.00  0.00     0.016 A 
BRANCH  14  17
HETATM   17  O   UNL     1      44.795 -20.786   2.852  1.00  0.00    -0.356 OA
HETATM   18  C   UNL     1      44.249 -21.724   1.932  1.00  0.00     0.210 C 
ENDBRANCH  14  17
ENDBRANCH   9  11
ENDBRANCH   1   5
BRANCH   2  19
HETATM   19  N   UNL     1      39.269 -12.730   7.694  1.00  0.00    -0.267 N 
HETATM   20  C   UNL     1      39.853 -11.494   7.860  1.00  0.00     0.240 C 
HETATM   21  O   UNL     1      40.893 -11.176   7.290  1.00  0.00    -0.271 OA
HETATM   22  H   UNL     1      38.402 -13.021   8.136  1.00  0.00     0.190 HD
BRANCH  20  23
HETATM   23  C   UNL     1      39.206 -10.539   8.799  1.00  0.00     0.089 A 
HETATM   24  C   UNL     1      39.837 -10.027  10.083  1.00  0.00     0.034 A 
HETATM   25  C   UNL     1      39.626  -9.097   8.910  1.00  0.00     0.025 A 
BRANCH  24  26
HETATM   26  C   UNL     1      41.225 -10.444  10.530  1.00  0.00    -0.031 A 
HETATM   27  C   UNL     1      41.447 -11.246  11.669  1.00  0.00     0.040 A 
HETATM   28 CL   UNL     1      40.123 -11.798  12.637  1.00  0.00    -0.084 Cl
HETATM   29  C   UNL     1      42.737 -11.614  12.067  1.00  0.00     0.024 A 
HETATM   30  C   UNL     1      43.842 -11.179  11.342  1.00  0.00     0.002 A 
HETATM   31  C   UNL     1      43.658 -10.369  10.228  1.00  0.00     0.001 A 
HETATM   32  C   UNL     1      42.368 -10.001   9.834  1.00  0.00     0.009 A 
ENDBRANCH  24  26
ENDBRANCH  20  23
ENDBRANCH   2  19
TORSDOF 6
ENDMDL
MODEL 2
REMARK VINA RESULT:      -9.0      2.629      3.697
REMARK  6 active torsions:
REMARK  status: ('A' for Active; 'I' for Inactive)
REMARK    1  A    between atoms: O_2  and  C_3 
REMARK    2  A    between atoms: C_6  and  C_7 
REMARK    3  A    between atoms: C_11  and  C_12 
REMARK       I    between atoms: C_12  and  N_13 
REMARK    4  A    between atoms: N_13  and  N_14 
REMARK       I    between atoms: N_14  and  C_15 
REMARK    5  A    between atoms: C_15  and  C_16 
REMARK    6  A    between atoms: C_17  and  C_18 
ROOT
HETATM    1  C   UNL     1      43.809 -13.967   7.035  1.00  0.00     0.288 C 
HETATM    2  N   UNL     1      44.715 -13.692   8.035  1.00  0.00    -0.262 N 
HETATM    3  O   UNL     1      43.142 -13.085   6.497  1.00  0.00    -0.264 OA
HETATM    4  H   UNL     1      45.219 -14.409   8.552  1.00  0.00     0.190 HD
ENDROOT
BRANCH   1   5
HETATM    5  C   UNL     1      43.700 -15.352   6.668  1.00  0.00     0.121 A 
HETATM    6  N   UNL     1      42.931 -16.229   7.378  1.00  0.00    -0.272 N 
HETATM    7  N   UNL     1      42.926 -17.479   6.891  1.00  0.00    -0.174 NA
HETATM    8  H   UNL     1      42.377 -16.024   8.205  1.00  0.00     0.189 HD
HETATM    9  C   UNL     1      43.748 -17.433   5.830  1.00  0.00     0.089 A 
HETATM   10  C   UNL     1      44.249 -16.112   5.654  1.00  0.00     0.071 A 
BRANCH   9  11
HETATM   11  C   UNL     1      44.023 -18.618   5.012  1.00  0.00    -0.005 A 
HETATM   12  C   UNL     1      44.579 -19.768   5.590  1.00  0.00     0.016 A 
HETATM   13  C   UNL     1      44.823 -20.917   4.824  1.00  0.00     0.037 A 
HETATM   14  C   UNL     1      44.516 -20.929   3.465  1.00  0.00     0.068 A 
HETATM   15  C   UNL     1      43.979 -19.782   2.879  1.00  0.00     0.037 A 
HETATM   16  C   UNL     1      43.732 -18.636   3.643  1.00  0.00     0.016 A 
BRANCH  14  17
HETATM   17  O   UNL     1      44.695 -21.979   2.607  1.00  0.00    -0.356 OA
HETATM   18  C   UNL     1      43.984 -21.928   1.376  1.00  0.00     0.210 C 
ENDBRANCH  14  17
ENDBRANCH   9  11
ENDBRANCH   1   5
BRANCH   2  19
HETATM   19  N   UNL     1      44.790 -12.396   8.552  1.00  0.00    -0.267 N 
HETATM   20  C   UNL     1      44.646 -12.230   9.911  1.00  0.00     0.240 C 
HETATM   21  O   UNL     1      44.472 -13.175  10.675  1.00  0.00    -0.271 OA
HETATM   22  H   UNL     1      44.952 -11.641   7.893  1.00  0.00     0.190 HD
BRANCH  20  23
HETATM   23  C   UNL     1      44.665 -10.842  10.449  1.00  0.00     0.089 A 
HETATM   24  C   UNL     1      43.468  -9.907  10.468  1.00  0.00     0.034 A 
HETATM   25  C   UNL     1      44.021 -10.468  11.758  1.00  0.00     0.025 A 
BRANCH  24  26
HETATM   26  C   UNL     1      42.107 -10.316   9.939  1.00  0.00    -0.031 A 
HETATM   27  C   UNL     1      41.065 -10.755  10.782  1.00  0.00     0.040 A 
HETATM   28 CL   UNL     1      41.293 -10.859  12.495  1.00  0.00    -0.084 Cl
HETATM   29  C   UNL     1      39.818 -11.134  10.273  1.00  0.00     0.024 A 
HETATM   30  C   UNL     1      39.584 -11.096   8.901  1.00  0.00     0.002 A 
HETATM   31  C   UNL     1      40.599 -10.690   8.041  1.00  0.00     0.001 A 
HETATM   32  C   UNL     1      41.844 -10.314   8.555  1.00  0.00     0.009 A 
ENDBRANCH  24  26
ENDBRANCH  20  23
ENDBRANCH   2  19
TORSDOF 6
ENDMDL
MODEL 3
REMARK VINA RESULT:      -8.9      0.858      1.274
REMARK  6 active torsions:
REMARK  status: ('A' for Active; 'I' for Inactive)
REMARK    1  A    between atoms: O_2  and  C_3 
REMARK    2  A    between atoms: C_6  and  C_7 
REMARK    3  A    between atoms: C_11  and  C_12 
REMARK       I    between atoms: C_12  and  N_13 
REMARK    4  A    between atoms: N_13  and  N_14 
REMARK       I    between atoms: N_14  and  C_15 
REMARK    5  A    between atoms: C_15  and  C_16 
REMARK    6  A    between atoms: C_17  and  C_18 
ROOT
HETATM    1  C   UNL     1      39.363 -12.992   6.041  1.00  0.00     0.288 C 
HETATM    2  N   UNL     1      39.771 -12.976   7.356  1.00  0.00    -0.262 N 
HETATM    3  O   UNL     1      38.505 -12.222   5.613  1.00  0.00    -0.264 OA
HETATM    4  H   UNL     1      40.417 -13.653   7.754  1.00  0.00     0.190 HD
ENDROOT
BRANCH   1   5
HETATM    5  C   UNL     1      40.010 -13.969   5.209  1.00  0.00     0.121 A 
HETATM    6  N   UNL     1      39.917 -13.933   3.847  1.00  0.00    -0.272 N 
HETATM    7  N   UNL     1      40.593 -14.909   3.222  1.00  0.00    -0.174 NA
HETATM    8  H   UNL     1      39.408 -13.255   3.287  1.00  0.00     0.189 HD
HETATM    9  C   UNL     1      41.134 -15.636   4.213  1.00  0.00     0.089 A 
HETATM   10  C   UNL     1      40.795 -15.073   5.476  1.00  0.00     0.071 A 
BRANCH   9  11
HETATM   11  C   UNL     1      41.957 -16.819   3.945  1.00  0.00    -0.005 A 
HETATM   12  C   UNL     1      41.871 -17.483   2.713  1.00  0.00     0.016 A 
HETATM   13  C   UNL     1      42.672 -18.599   2.435  1.00  0.00     0.037 A 
HETATM   14  C   UNL     1      43.571 -19.070   3.390  1.00  0.00     0.068 A 
HETATM   15  C   UNL     1      43.650 -18.426   4.626  1.00  0.00     0.037 A 
HETATM   16  C   UNL     1      42.853 -17.309   4.903  1.00  0.00     0.016 A 
BRANCH  14  17
HETATM   17  O   UNL     1      44.412 -20.139   3.247  1.00  0.00    -0.356 OA
HETATM   18  C   UNL     1      44.084 -21.081   2.234  1.00  0.00     0.210 C 
ENDBRANCH  14  17
ENDBRANCH   9  11
ENDBRANCH   1   5
BRANCH   2  19
HETATM   19  N   UNL     1      39.102 -12.156   8.269  1.00  0.00    -0.267 N 
HETATM   20  C   UNL     1      39.672 -10.945   8.594  1.00  0.00     0.240 C 
HETATM   21  O   UNL     1      40.728 -10.562   8.099  1.00  0.00    -0.271 OA
HETATM   22  H   UNL     1      38.223 -12.498   8.645  1.00  0.00     0.190 HD
BRANCH  20  23
HETATM   23  C   UNL     1      38.987 -10.104   9.613  1.00  0.00     0.089 A 
HETATM   24  C   UNL     1      39.609  -9.659  10.925  1.00  0.00     0.034 A 
HETATM   25  C   UNL     1      39.328  -8.654   9.832  1.00  0.00     0.025 A 
BRANCH  24  26
HETATM   26  C   UNL     1      41.025 -10.030  11.322  1.00  0.00    -0.031 A 
HETATM   27  C   UNL     1      41.317 -11.134  12.149  1.00  0.00     0.040 A 
HETATM   28 CL   UNL     1      40.050 -12.136  12.772  1.00  0.00    -0.084 Cl
HETATM   29  C   UNL     1      42.630 -11.455  12.509  1.00  0.00     0.024 A 
HETATM   30  C   UNL     1      43.688 -10.671  12.059  1.00  0.00     0.002 A 
HETATM   31  C   UNL     1      43.432  -9.562  11.261  1.00  0.00     0.001 A 
HETATM   32  C   UNL     1      42.117  -9.243  10.906  1.00  0.00     0.009 A 
ENDBRANCH  24  26
ENDBRANCH  20  23
ENDBRANCH   2  19
TORSDOF 6
ENDMDL
MODEL 4
REMARK VINA RESULT:      -8.5      7.304      9.112
REMARK  6 active torsions:
REMARK  status: ('A' for Active; 'I' for Inactive)
REMARK    1  A    between atoms: O_2  and  C_3 
REMARK    2  A    between atoms: C_6  and  C_7 
REMARK    3  A    between atoms: C_11  and  C_12 
REMARK       I    between atoms: C_12  and  N_13 
REMARK    4  A    between atoms: N_13  and  N_14 
REMARK       I    between atoms: N_14  and  C_15 
REMARK    5  A    between atoms: C_15  and  C_16 
REMARK    6  A    between atoms: C_17  and  C_18 
ROOT
HETATM    1  C   UNL     1      40.829 -15.126  -0.798  1.00  0.00     0.288 C 
HETATM    2  N   UNL     1      41.733 -15.097  -1.836  1.00  0.00    -0.262 N 
HETATM    3  O   UNL     1      39.807 -14.441  -0.801  1.00  0.00    -0.264 OA
HETATM    4  H   UNL     1      42.623 -15.589  -1.824  1.00  0.00     0.190 HD
ENDROOT
BRANCH   1   5
HETATM    5  C   UNL     1      41.165 -16.009   0.285  1.00  0.00     0.121 A 
HETATM    6  N   UNL     1      40.310 -16.236   1.325  1.00  0.00    -0.272 N 
HETATM    7  N   UNL     1      40.772 -17.099   2.241  1.00  0.00    -0.174 NA
HETATM    8  H   UNL     1      39.387 -15.830   1.456  1.00  0.00     0.189 HD
HETATM    9  C   UNL     1      41.995 -17.438   1.803  1.00  0.00     0.089 A 
HETATM   10  C   UNL     1      42.275 -16.778   0.572  1.00  0.00     0.071 A 
BRANCH   9  11
HETATM   11  C   UNL     1      42.850 -18.375   2.539  1.00  0.00    -0.005 A 
HETATM   12  C   UNL     1      43.510 -19.414   1.868  1.00  0.00     0.016 A 
HETATM   13  C   UNL     1      44.350 -20.299   2.556  1.00  0.00     0.037 A 
HETATM   14  C   UNL     1      44.540 -20.159   3.929  1.00  0.00     0.068 A 
HETATM   15  C   UNL     1      43.871 -19.139   4.607  1.00  0.00     0.037 A 
HETATM   16  C   UNL     1      43.035 -18.252   3.921  1.00  0.00     0.016 A 
BRANCH  14  17
HETATM   17  O   UNL     1      45.333 -20.946   4.719  1.00  0.00    -0.356 OA
HETATM   18  C   UNL     1      44.834 -22.238   5.042  1.00  0.00     0.210 C 
ENDBRANCH  14  17
ENDBRANCH   9  11
ENDBRANCH   1   5
BRANCH   2  19
HETATM   19  N   UNL     1      41.561 -14.168  -2.866  1.00  0.00    -0.267 N 
HETATM   20  C   UNL     1      42.300 -13.007  -2.824  1.00  0.00     0.240 C 
HETATM   21  O   UNL     1      43.107 -12.773  -1.929  1.00  0.00    -0.271 OA
HETATM   22  H   UNL     1      40.897 -14.402  -3.599  1.00  0.00     0.190 HD
BRANCH  20  23
HETATM   23  C   UNL     1      42.067 -11.994  -3.890  1.00  0.00     0.089 A 
HETATM   24  C   UNL     1      41.049 -10.870  -3.806  1.00  0.00     0.034 A 
HETATM   25  C   UNL     1      42.529 -10.566  -3.769  1.00  0.00     0.025 A 
BRANCH  24  26
HETATM   26  C   UNL     1      40.162 -10.664  -2.593  1.00  0.00    -0.031 A 
HETATM   27  C   UNL     1      38.953 -11.367  -2.408  1.00  0.00     0.040 A 
HETATM   28 CL   UNL     1      38.406 -12.516  -3.581  1.00  0.00    -0.084 Cl
HETATM   29  C   UNL     1      38.146 -11.157  -1.285  1.00  0.00     0.024 A 
HETATM   30  C   UNL     1      38.522 -10.227  -0.320  1.00  0.00     0.002 A 
HETATM   31  C   UNL     1      39.696  -9.501  -0.485  1.00  0.00     0.001 A 
HETATM   32  C   UNL     1      40.498  -9.712  -1.610  1.00  0.00     0.009 A 
ENDBRANCH  24  26
ENDBRANCH  20  23
ENDBRANCH   2  19
TORSDOF 6
ENDMDL
MODEL 5
REMARK VINA RESULT:      -8.5      7.098      8.703
REMARK  6 active torsions:
REMARK  status: ('A' for Active; 'I' for Inactive)
REMARK    1  A    between atoms: O_2  and  C_3 
REMARK    2  A    between atoms: C_6  and  C_7 
REMARK    3  A    between atoms: C_11  and  C_12 
REMARK       I    between atoms: C_12  and  N_13 
REMARK    4  A    between atoms: N_13  and  N_14 
REMARK       I    between atoms: N_14  and  C_15 
REMARK    5  A    between atoms: C_15  and  C_16 
REMARK    6  A    between atoms: C_17  and  C_18 
ROOT
HETATM    1  C   UNL     1      41.276 -14.780  -0.002  1.00  0.00     0.288 C 
HETATM    2  N   UNL     1      41.692 -14.832  -1.313  1.00  0.00    -0.262 N 
HETATM    3  O   UNL     1      40.374 -14.031   0.370  1.00  0.00    -0.264 OA
HETATM    4  H   UNL     1      42.487 -15.380  -1.631  1.00  0.00     0.190 HD
ENDROOT
BRANCH   1   5
HETATM    5  C   UNL     1      41.970 -15.660   0.899  1.00  0.00     0.121 A 
HETATM    6  N   UNL     1      42.559 -15.204   2.043  1.00  0.00    -0.272 N 
HETATM    7  N   UNL     1      43.150 -16.159   2.777  1.00  0.00    -0.174 NA
HETATM    8  H   UNL     1      42.582 -14.245   2.378  1.00  0.00     0.189 HD
HETATM    9  C   UNL     1      42.966 -17.289   2.076  1.00  0.00     0.089 A 
HETATM   10  C   UNL     1      42.224 -17.017   0.892  1.00  0.00     0.071 A 
BRANCH   9  11
HETATM   11  C   UNL     1      43.477 -18.581   2.543  1.00  0.00    -0.005 A 
HETATM   12  C   UNL     1      43.987 -18.719   3.842  1.00  0.00     0.016 A 
HETATM   13  C   UNL     1      44.453 -19.955   4.309  1.00  0.00     0.037 A 
HETATM   14  C   UNL     1      44.421 -21.074   3.479  1.00  0.00     0.068 A 
HETATM   15  C   UNL     1      43.933 -20.941   2.178  1.00  0.00     0.037 A 
HETATM   16  C   UNL     1      43.463 -19.708   1.712  1.00  0.00     0.016 A 
BRANCH  14  17
HETATM   17  O   UNL     1      44.836 -22.334   3.808  1.00  0.00    -0.356 OA
HETATM   18  C   UNL     1      45.251 -22.541   5.153  1.00  0.00     0.210 C 
ENDBRANCH  14  17
ENDBRANCH   9  11
ENDBRANCH   1   5
BRANCH   2  19
HETATM   19  N   UNL     1      41.172 -13.917  -2.232  1.00  0.00    -0.267 N 
HETATM   20  C   UNL     1      42.053 -13.106  -2.912  1.00  0.00     0.240 C 
HETATM   21  O   UNL     1      43.268 -13.173  -2.749  1.00  0.00    -0.271 OA
HETATM   22  H   UNL     1      40.163 -13.900  -2.353  1.00  0.00     0.190 HD
BRANCH  20  23
HETATM   23  C   UNL     1      41.489 -12.091  -3.842  1.00  0.00     0.089 A 
HETATM   24  C   UNL     1      41.457 -10.596  -3.574  1.00  0.00     0.034 A 
HETATM   25  C   UNL     1      42.353 -11.160  -4.652  1.00  0.00     0.025 A 
BRANCH  24  26
HETATM   26  C   UNL     1      42.021  -9.984  -2.306  1.00  0.00    -0.031 A 
HETATM   27  C   UNL     1      41.297  -9.941  -1.096  1.00  0.00     0.040 A 
HETATM   28 CL   UNL     1      39.696 -10.590  -0.997  1.00  0.00    -0.084 Cl
HETATM   29  C   UNL     1      41.835  -9.366   0.060  1.00  0.00     0.024 A 
HETATM   30  C   UNL     1      43.109  -8.807   0.034  1.00  0.00     0.002 A 
HETATM   31  C   UNL     1      43.838  -8.812  -1.149  1.00  0.00     0.001 A 
HETATM   32  C   UNL     1      43.297  -9.385  -2.304  1.00  0.00     0.009 A 
ENDBRANCH  24  26
ENDBRANCH  20  23
ENDBRANCH   2  19
TORSDOF 6
ENDMDL
MODEL 6
REMARK VINA RESULT:      -8.4      6.342      9.681
REMARK  6 active torsions:
REMARK  status: ('A' for Active; 'I' for Inactive)
REMARK    1  A    between atoms: O_2  and  C_3 
REMARK    2  A    between atoms: C_6  and  C_7 
REMARK    3  A    between atoms: C_11  and  C_12 
REMARK       I    between atoms: C_12  and  N_13 
REMARK    4  A    between atoms: N_13  and  N_14 
REMARK       I    between atoms: N_14  and  C_15 
REMARK    5  A    between atoms: C_15  and  C_16 
REMARK    6  A    between atoms: C_17  and  C_18 
ROOT
HETATM    1  C   UNL     1      41.188 -15.986   0.503  1.00  0.00     0.288 C 
HETATM    2  N   UNL     1      42.342 -16.667   0.186  1.00  0.00    -0.262 N 
HETATM    3  O   UNL     1      40.519 -16.261   1.499  1.00  0.00    -0.264 OA
HETATM    4  H   UNL     1      42.868 -16.516  -0.672  1.00  0.00     0.190 HD
ENDROOT
BRANCH   1   5
HETATM    5  C   UNL     1      40.821 -14.939  -0.410  1.00  0.00     0.121 A 
HETATM    6  N   UNL     1      39.561 -14.412  -0.437  1.00  0.00    -0.272 N 
HETATM    7  N   UNL     1      39.392 -13.432  -1.337  1.00  0.00    -0.174 NA
HETATM    8  H   UNL     1      38.775 -14.681   0.148  1.00  0.00     0.189 HD
HETATM    9  C   UNL     1      40.582 -13.324  -1.950  1.00  0.00     0.089 A 
HETATM   10  C   UNL     1      41.508 -14.251  -1.391  1.00  0.00     0.071 A 
BRANCH   9  11
HETATM   11  C   UNL     1      40.816 -12.352  -3.022  1.00  0.00    -0.005 A 
HETATM   12  C   UNL     1      42.121 -12.046  -3.434  1.00  0.00     0.016 A 
HETATM   13  C   UNL     1      42.356 -11.139  -4.476  1.00  0.00     0.037 A 
HETATM   14  C   UNL     1      41.286 -10.521  -5.120  1.00  0.00     0.068 A 
HETATM   15  C   UNL     1      39.985 -10.806  -4.703  1.00  0.00     0.037 A 
HETATM   16  C   UNL     1      39.748 -11.715  -3.666  1.00  0.00     0.016 A 
BRANCH  14  17
HETATM   17  O   UNL     1      41.373  -9.626  -6.150  1.00  0.00    -0.356 OA
HETATM   18  C   UNL     1      42.540  -8.813  -6.195  1.00  0.00     0.210 C 
ENDBRANCH  14  17
ENDBRANCH   9  11
ENDBRANCH   1   5
BRANCH   2  19
HETATM   19  N   UNL     1      42.703 -17.788   0.937  1.00  0.00    -0.267 N 
HETATM   20  C   UNL     1      43.938 -17.794   1.545  1.00  0.00     0.240 C 
HETATM   21  O   UNL     1      44.717 -16.848   1.461  1.00  0.00    -0.271 OA
HETATM   22  H   UNL     1      42.027 -18.544   0.998  1.00  0.00     0.190 HD
BRANCH  20  23
HETATM   23  C   UNL     1      44.342 -19.016   2.292  1.00  0.00     0.089 A 
HETATM   24  C   UNL     1      44.036 -19.274   3.757  1.00  0.00     0.034 A 
HETATM   25  C   UNL     1      43.362 -20.092   2.680  1.00  0.00     0.025 A 
BRANCH  24  26
HETATM   26  C   UNL     1      43.262 -18.289   4.612  1.00  0.00    -0.031 A 
HETATM   27  C   UNL     1      43.823 -17.660   5.743  1.00  0.00     0.040 A 
HETATM   28 CL   UNL     1      45.451 -17.991   6.226  1.00  0.00    -0.084 Cl
HETATM   29  C   UNL     1      43.088 -16.759   6.522  1.00  0.00     0.024 A 
HETATM   30  C   UNL     1      41.766 -16.472   6.196  1.00  0.00     0.002 A 
HETATM   31  C   UNL     1      41.177 -17.093   5.102  1.00  0.00     0.001 A 
HETATM   32  C   UNL     1      41.913 -17.995   4.327  1.00  0.00     0.009 A 
ENDBRANCH  24  26
ENDBRANCH  20  23
ENDBRANCH   2  19
TORSDOF 6
ENDMDL
MODEL 7
REMARK VINA RESULT:      -8.4      7.081      9.019
REMARK  6 active torsions:
REMARK  status: ('A' for Active; 'I' for Inactive)
REMARK    1  A    between atoms: O_2  and  C_3 
REMARK    2  A    between atoms: C_6  and  C_7 
REMARK    3  A    between atoms: C_11  and  C_12 
REMARK       I    between atoms: C_12  and  N_13 
REMARK    4  A    between atoms: N_13  and  N_14 
REMARK       I    between atoms: N_14  and  C_15 
REMARK    5  A    between atoms: C_15  and  C_16 
REMARK    6  A    between atoms: C_17  and  C_18 
ROOT
HETATM    1  C   UNL     1      41.442 -14.839   0.020  1.00  0.00     0.288 C 
HETATM    2  N   UNL     1      40.105 -15.141  -0.116  1.00  0.00    -0.262 N 
HETATM    3  O   UNL     1      42.001 -14.009  -0.696  1.00  0.00    -0.264 OA
HETATM    4  H   UNL     1      39.638 -15.879   0.405  1.00  0.00     0.190 HD
ENDROOT
BRANCH   1   5
HETATM    5  C   UNL     1      42.133 -15.563   1.051  1.00  0.00     0.121 A 
HETATM    6  N   UNL     1      42.636 -14.940   2.157  1.00  0.00    -0.272 N 
HETATM    7  N   UNL     1      43.237 -15.764   3.029  1.00  0.00    -0.174 NA
HETATM    8  H   UNL     1      42.590 -13.948   2.373  1.00  0.00     0.189 HD
HETATM    9  C   UNL     1      43.151 -16.978   2.464  1.00  0.00     0.089 A 
HETATM   10  C   UNL     1      42.458 -16.894   1.223  1.00  0.00     0.071 A 
BRANCH   9  11
HETATM   11  C   UNL     1      43.704 -18.173   3.108  1.00  0.00    -0.005 A 
HETATM   12  C   UNL     1      44.064 -18.150   4.463  1.00  0.00     0.016 A 
HETATM   13  C   UNL     1      44.569 -19.293   5.097  1.00  0.00     0.037 A 
HETATM   14  C   UNL     1      44.725 -20.478   4.381  1.00  0.00     0.068 A 
HETATM   15  C   UNL     1      44.387 -20.505   3.027  1.00  0.00     0.037 A 
HETATM   16  C   UNL     1      43.879 -19.365   2.394  1.00  0.00     0.016 A 
BRANCH  14  17
HETATM   17  O   UNL     1      45.198 -21.663   4.875  1.00  0.00    -0.356 OA
HETATM   18  C   UNL     1      44.757 -22.849   4.225  1.00  0.00     0.210 C 
ENDBRANCH  14  17
ENDBRANCH   9  11
ENDBRANCH   1   5
BRANCH   2  19
HETATM   19  N   UNL     1      39.385 -14.591  -1.180  1.00  0.00    -0.267 N 
HETATM   20  C   UNL     1      38.583 -13.501  -0.928  1.00  0.00     0.240 C 
HETATM   21  O   UNL     1      38.495 -12.993   0.187  1.00  0.00    -0.271 OA
HETATM   22  H   UNL     1      39.496 -15.026  -2.091  1.00  0.00     0.190 HD
BRANCH  20  23
HETATM   23  C   UNL     1      37.772 -12.958  -2.051  1.00  0.00     0.089 A 
HETATM   24  C   UNL     1      38.300 -12.022  -3.125  1.00  0.00     0.034 A 
HETATM   25  C   UNL     1      37.918 -13.444  -3.469  1.00  0.00     0.025 A 
BRANCH  24  26
HETATM   26  C   UNL     1      39.742 -11.554  -3.159  1.00  0.00    -0.031 A 
HETATM   27  C   UNL     1      40.178 -10.389  -2.494  1.00  0.00     0.040 A 
HETATM   28 CL   UNL     1      39.068  -9.413  -1.594  1.00  0.00    -0.084 Cl
HETATM   29  C   UNL     1      41.512  -9.971  -2.544  1.00  0.00     0.024 A 
HETATM   30  C   UNL     1      42.445 -10.702  -3.272  1.00  0.00     0.002 A 
HETATM   31  C   UNL     1      42.042 -11.842  -3.959  1.00  0.00     0.001 A 
HETATM   32  C   UNL     1      40.708 -12.255  -3.909  1.00  0.00     0.009 A 
ENDBRANCH  24  26
ENDBRANCH  20  23
ENDBRANCH   2  19
TORSDOF 6
ENDMDL
MODEL 8
REMARK VINA RESULT:      -8.4      6.452      9.222
REMARK  6 active torsions:
REMARK  status: ('A' for Active; 'I' for Inactive)
REMARK    1  A    between atoms: O_2  and  C_3 
REMARK    2  A    between atoms: C_6  and  C_7 
REMARK    3  A    between atoms: C_11  and  C_12 
REMARK       I    between atoms: C_12  and  N_13 
REMARK    4  A    between atoms: N_13  and  N_14 
REMARK       I    between atoms: N_14  and  C_15 
REMARK    5  A    between atoms: C_15  and  C_16 
REMARK    6  A    between atoms: C_17  and  C_18 
ROOT
HETATM    1  C   UNL     1      42.256 -13.664   1.887  1.00  0.00     0.288 C 
HETATM    2  N   UNL     1      41.405 -13.989   0.854  1.00  0.00    -0.262 N 
HETATM    3  O   UNL     1      42.673 -12.519   2.055  1.00  0.00    -0.264 OA
HETATM    4  H   UNL     1      41.111 -14.940   0.644  1.00  0.00     0.190 HD
ENDROOT
BRANCH   1   5
HETATM    5  C   UNL     1      42.623 -14.755   2.748  1.00  0.00     0.121 A 
HETATM    6  N   UNL     1      42.486 -14.683   4.104  1.00  0.00    -0.272 N 
HETATM    7  N   UNL     1      42.859 -15.794   4.757  1.00  0.00    -0.174 NA
HETATM    8  H   UNL     1      42.133 -13.895   4.641  1.00  0.00     0.189 HD
HETATM    9  C   UNL     1      43.285 -16.627   3.793  1.00  0.00     0.089 A 
HETATM   10  C   UNL     1      43.146 -16.012   2.517  1.00  0.00     0.071 A 
BRANCH   9  11
HETATM   11  C   UNL     1      43.791 -17.968   4.098  1.00  0.00    -0.005 A 
HETATM   12  C   UNL     1      44.040 -18.351   5.423  1.00  0.00     0.016 A 
HETATM   13  C   UNL     1      44.499 -19.640   5.729  1.00  0.00     0.037 A 
HETATM   14  C   UNL     1      44.719 -20.564   4.711  1.00  0.00     0.068 A 
HETATM   15  C   UNL     1      44.492 -20.184   3.387  1.00  0.00     0.037 A 
HETATM   16  C   UNL     1      44.030 -18.900   3.080  1.00  0.00     0.016 A 
BRANCH  14  17
HETATM   17  O   UNL     1      45.158 -21.850   4.869  1.00  0.00    -0.356 OA
HETATM   18  C   UNL     1      44.682 -22.808   3.932  1.00  0.00     0.210 C 
ENDBRANCH  14  17
ENDBRANCH   9  11
ENDBRANCH   1   5
BRANCH   2  19
HETATM   19  N   UNL     1      41.104 -13.026  -0.112  1.00  0.00    -0.267 N 
HETATM   20  C   UNL     1      39.803 -12.584  -0.207  1.00  0.00     0.240 C 
HETATM   21  O   UNL     1      38.914 -12.994   0.534  1.00  0.00    -0.271 OA
HETATM   22  H   UNL     1      41.868 -12.698  -0.696  1.00  0.00     0.190 HD
BRANCH  20  23
HETATM   23  C   UNL     1      39.477 -11.605  -1.279  1.00  0.00     0.089 A 
HETATM   24  C   UNL     1      39.043 -11.976  -2.686  1.00  0.00     0.034 A 
HETATM   25  C   UNL     1      38.066 -11.333  -1.730  1.00  0.00     0.025 A 
BRANCH  24  26
HETATM   26  C   UNL     1      38.889 -13.416  -3.136  1.00  0.00    -0.031 A 
HETATM   27  C   UNL     1      39.985 -14.210  -3.532  1.00  0.00     0.040 A 
HETATM   28 CL   UNL     1      41.592 -13.568  -3.532  1.00  0.00    -0.084 Cl
HETATM   29  C   UNL     1      39.819 -15.535  -3.951  1.00  0.00     0.024 A 
HETATM   30  C   UNL     1      38.547 -16.098  -3.996  1.00  0.00     0.002 A 
HETATM   31  C   UNL     1      37.443 -15.334  -3.635  1.00  0.00     0.001 A 
HETATM   32  C   UNL     1      37.613 -14.010  -3.219  1.00  0.00     0.009 A 
ENDBRANCH  24  26
ENDBRANCH  20  23
ENDBRANCH   2  19
TORSDOF 6
ENDMDL
MODEL 9
REMARK VINA RESULT:      -8.4      6.958     10.160
REMARK  6 active torsions:
REMARK  status: ('A' for Active; 'I' for Inactive)
REMARK    1  A    between atoms: O_2  and  C_3 
REMARK    2  A    between atoms: C_6  and  C_7 
REMARK    3  A    between atoms: C_11  and  C_12 
REMARK       I    between atoms: C_12  and  N_13 
REMARK    4  A    between atoms: N_13  and  N_14 
REMARK       I    between atoms: N_14  and  C_15 
REMARK    5  A    between atoms: C_15  and  C_16 
REMARK    6  A    between atoms: C_17  and  C_18 
ROOT
HETATM    1  C   UNL     1      41.195 -14.706  -0.775  1.00  0.00     0.288 C 
HETATM    2  N   UNL     1      41.385 -16.050  -0.546  1.00  0.00    -0.262 N 
HETATM    3  O   UNL     1      42.054 -13.868  -0.505  1.00  0.00    -0.264 OA
HETATM    4  H   UNL     1      40.664 -16.754  -0.684  1.00  0.00     0.190 HD
ENDROOT
BRANCH   1   5
HETATM    5  C   UNL     1      39.925 -14.354  -1.349  1.00  0.00     0.121 A 
HETATM    6  N   UNL     1      38.801 -14.217  -0.586  1.00  0.00    -0.272 N 
HETATM    7  N   UNL     1      37.705 -13.869  -1.276  1.00  0.00    -0.174 NA
HETATM    8  H   UNL     1      38.727 -14.343   0.420  1.00  0.00     0.189 HD
HETATM    9  C   UNL     1      38.115 -13.798  -2.553  1.00  0.00     0.089 A 
HETATM   10  C   UNL     1      39.506 -14.090  -2.638  1.00  0.00     0.071 A 
BRANCH   9  11
HETATM   11  C   UNL     1      37.199 -13.447  -3.642  1.00  0.00    -0.005 A 
HETATM   12  C   UNL     1      36.497 -14.445  -4.331  1.00  0.00     0.016 A 
HETATM   13  C   UNL     1      35.598 -14.120  -5.357  1.00  0.00     0.037 A 
HETATM   14  C   UNL     1      35.392 -12.789  -5.711  1.00  0.00     0.068 A 
HETATM   15  C   UNL     1      36.102 -11.790  -5.042  1.00  0.00     0.037 A 
HETATM   16  C   UNL     1      36.996 -12.113  -4.015  1.00  0.00     0.016 A 
BRANCH  14  17
HETATM   17  O   UNL     1      34.544 -12.334  -6.683  1.00  0.00    -0.356 OA
HETATM   18  C   UNL     1      34.054 -11.007  -6.535  1.00  0.00     0.210 C 
ENDBRANCH  14  17
ENDBRANCH   9  11
ENDBRANCH   1   5
BRANCH   2  19
HETATM   19  N   UNL     1      42.531 -16.472   0.134  1.00  0.00    -0.267 N 
HETATM   20  C   UNL     1      42.402 -17.486   1.057  1.00  0.00     0.240 C 
HETATM   21  O   UNL     1      41.328 -18.034   1.287  1.00  0.00    -0.271 OA
HETATM   22  H   UNL     1      43.405 -16.008  -0.094  1.00  0.00     0.190 HD
BRANCH  20  23
HETATM   23  C   UNL     1      43.613 -17.888   1.823  1.00  0.00     0.089 A 
HETATM   24  C   UNL     1      43.813 -17.653   3.310  1.00  0.00     0.034 A 
HETATM   25  C   UNL     1      43.622 -19.054   2.776  1.00  0.00     0.025 A 
BRANCH  24  26
HETATM   26  C   UNL     1      42.765 -16.980   4.175  1.00  0.00    -0.031 A 
HETATM   27  C   UNL     1      42.594 -15.580   4.211  1.00  0.00     0.040 A 
HETATM   28 CL   UNL     1      43.594 -14.540   3.256  1.00  0.00    -0.084 Cl
HETATM   29  C   UNL     1      41.625 -14.979   5.021  1.00  0.00     0.024 A 
HETATM   30  C   UNL     1      40.807 -15.763   5.830  1.00  0.00     0.002 A 
HETATM   31  C   UNL     1      40.967 -17.144   5.836  1.00  0.00     0.001 A 
HETATM   32  C   UNL     1      41.938 -17.741   5.026  1.00  0.00     0.009 A 
ENDBRANCH  24  26
ENDBRANCH  20  23
ENDBRANCH   2  19
TORSDOF 6
ENDMDL
MODEL 10
REMARK VINA RESULT:      -8.3      6.249      8.141
REMARK  6 active torsions:
REMARK  status: ('A' for Active; 'I' for Inactive)
REMARK    1  A    between atoms: O_2  and  C_3 
REMARK    2  A    between atoms: C_6  and  C_7 
REMARK    3  A    between atoms: C_11  and  C_12 
REMARK       I    between atoms: C_12  and  N_13 
REMARK    4  A    between atoms: N_13  and  N_14 
REMARK       I    between atoms: N_14  and  C_15 
REMARK    5  A    between atoms: C_15  and  C_16 
REMARK    6  A    between atoms: C_17  and  C_18 
ROOT
HETATM    1  C   UNL     1      39.713 -14.878   1.780  1.00  0.00     0.288 C 
HETATM    2  N   UNL     1      39.855 -15.083   0.426  1.00  0.00    -0.262 N 
HETATM    3  O   UNL     1      38.983 -13.999   2.236  1.00  0.00    -0.264 OA
HETATM    4  H   UNL     1      40.512 -15.747   0.022  1.00  0.00     0.190 HD
ENDROOT
BRANCH   1   5
HETATM    5  C   UNL     1      40.476 -15.761   2.619  1.00  0.00     0.121 A 
HETATM    6  N   UNL     1      40.358 -15.748   3.979  1.00  0.00    -0.272 N 
HETATM    7  N   UNL     1      41.129 -16.647   4.609  1.00  0.00    -0.174 NA
HETATM    8  H   UNL     1      39.755 -15.146   4.533  1.00  0.00     0.189 HD
HETATM    9  C   UNL     1      41.805 -17.263   3.626  1.00  0.00     0.089 A 
HETATM   10  C   UNL     1      41.418 -16.738   2.360  1.00  0.00     0.071 A 
BRANCH   9  11
HETATM   11  C   UNL     1      42.776 -18.326   3.902  1.00  0.00    -0.005 A 
HETATM   12  C   UNL     1      43.410 -19.002   2.850  1.00  0.00     0.016 A 
HETATM   13  C   UNL     1      44.359 -20.002   3.102  1.00  0.00     0.037 A 
HETATM   14  C   UNL     1      44.685 -20.344   4.413  1.00  0.00     0.068 A 
HETATM   15  C   UNL     1      44.044 -19.689   5.465  1.00  0.00     0.037 A 
HETATM   16  C   UNL     1      43.099 -18.687   5.216  1.00  0.00     0.016 A 
BRANCH  14  17
HETATM   17  O   UNL     1      45.593 -21.292   4.797  1.00  0.00    -0.356 OA
HETATM   18  C   UNL     1      45.080 -22.583   5.103  1.00  0.00     0.210 C 
ENDBRANCH  14  17
ENDBRANCH   9  11
ENDBRANCH   1   5
BRANCH   2  19
HETATM   19  N   UNL     1      39.262 -14.187  -0.467  1.00  0.00    -0.267 N 
HETATM   20  C   UNL     1      39.899 -13.942  -1.662  1.00  0.00     0.240 C 
HETATM   21  O   UNL     1      40.953 -14.492  -1.971  1.00  0.00    -0.271 OA
HETATM   22  H   UNL     1      38.382 -13.764  -0.186  1.00  0.00     0.190 HD
BRANCH  20  23
HETATM   23  C   UNL     1      39.295 -12.940  -2.582  1.00  0.00     0.089 A 
HETATM   24  C   UNL     1      39.763 -11.502  -2.721  1.00  0.00     0.034 A 
HETATM   25  C   UNL     1      39.971 -12.486  -3.848  1.00  0.00     0.025 A 
BRANCH  24  26
HETATM   26  C   UNL     1      40.926 -10.944  -1.924  1.00  0.00    -0.031 A 
HETATM   27  C   UNL     1      40.796 -10.521  -0.585  1.00  0.00     0.040 A 
HETATM   28 CL   UNL     1      39.273 -10.613   0.231  1.00  0.00    -0.084 Cl
HETATM   29  C   UNL     1      41.882 -10.003   0.130  1.00  0.00     0.024 A 
HETATM   30  C   UNL     1      43.126  -9.882  -0.482  1.00  0.00     0.002 A 
HETATM   31  C   UNL     1      43.281 -10.267  -1.808  1.00  0.00     0.001 A 
HETATM   32  C   UNL     1      42.193 -10.782  -2.520  1.00  0.00     0.009 A 
ENDBRANCH  24  26
ENDBRANCH  20  23
ENDBRANCH   2  19
TORSDOF 6
ENDMDL
