MODEL 1
REMARK VINA RESULT:      -9.4      0.000      0.000
REMARK  6 active torsions:
REMARK  status: ('A' for Active; 'I' for Inactive)
REMARK    1  A    between atoms: C_5  and  N_6 
REMARK       I    between atoms: N_6  and  C_7 
REMARK    2  A    between atoms: C_7  and  C_8 
REMARK    3  A    between atoms: C_8  and  N_9 
REMARK    4  A    between atoms: C_8  and  C_17 
REMARK       I    between atoms: N_9  and  C_10 
REMARK    5  A    between atoms: C_10  and  C_11 
REMARK    6  A    between atoms: C_17  and  C_18 
ROOT
HETATM    1  C   UNL     1      43.686 -15.040   6.021  1.00  0.00     0.181 C 
ENDROOT
BRANCH   1   2
HETATM    2  C   UNL     1      42.864 -14.177   5.033  1.00  0.00     0.245 C 
HETATM    3  N   UNL     1      41.541 -14.558   4.909  1.00  0.00    -0.325 N 
HETATM    4  H   UNL     1      41.206 -15.239   5.591  1.00  0.00     0.169 HD
HETATM    5  O   UNL     1      43.398 -13.229   4.459  1.00  0.00    -0.271 OA
BRANCH   3   6
HETATM    6  C   UNL     1      40.586 -14.083   3.991  1.00  0.00     0.034 A 
HETATM    7  C   UNL     1      40.088 -12.781   3.981  1.00  0.00     0.030 A 
HETATM    8  C   UNL     1      39.161 -12.381   3.011  1.00  0.00     0.009 A 
HETATM    9  C   UNL     1      38.715 -13.278   2.036  1.00  0.00    -0.062 A 
HETATM   10  C   UNL     1      37.761 -12.833   0.969  1.00  0.00     0.048 C 
HETATM   11  C   UNL     1      39.224 -14.580   2.037  1.00  0.00     0.009 A 
HETATM   12  C   UNL     1      40.145 -14.980   3.011  1.00  0.00     0.030 A 
ENDBRANCH   3   6
ENDBRANCH   1   2
BRANCH   1  13
HETATM   13  N   UNL     1      44.012 -14.275   7.231  1.00  0.00    -0.342 N 
HETATM   14  C   UNL     1      45.135 -13.496   7.382  1.00  0.00     0.276 C 
HETATM   15  O   UNL     1      46.027 -13.471   6.536  1.00  0.00    -0.265 OA
HETATM   16  H   UNL     1      43.340 -14.265   7.990  1.00  0.00     0.163 HD
BRANCH  14  17
HETATM   17  C   UNL     1      45.158 -12.716   8.601  1.00  0.00     0.142 A 
HETATM   18  O   UNL     1      44.431 -13.140   9.685  1.00  0.00    -0.317 OA
HETATM   19  C   UNL     1      44.610 -12.221  10.669  1.00  0.00     0.143 A 
HETATM   20  C   UNL     1      45.442 -11.213  10.244  1.00  0.00     0.027 A 
HETATM   21  C   UNL     1      45.798 -11.531   8.911  1.00  0.00     0.045 A 
ENDBRANCH  14  17
ENDBRANCH   1  13
BRANCH   1  22
HETATM   22  C   UNL     1      43.055 -16.408   6.333  1.00  0.00     0.075 C 
BRANCH  22  23
HETATM   23  C   UNL     1      43.717 -17.614   5.730  1.00  0.00    -0.028 A 
HETATM   24  C   UNL     1      43.454 -18.106   4.406  1.00  0.00    -0.002 A 
HETATM   25  C   UNL     1      44.282 -19.206   4.190  1.00  0.00     0.042 A 
HETATM   26  C   UNL     1      42.589 -17.703   3.369  1.00  0.00     0.014 A 
HETATM   27  C   UNL     1      44.291 -19.923   2.987  1.00  0.00     0.030 A 
HETATM   28  N   UNL     1      45.018 -19.386   5.335  1.00  0.00    -0.365 N 
HETATM   29  C   UNL     1      43.423 -19.502   1.976  1.00  0.00     0.002 A 
HETATM   30  C   UNL     1      42.581 -18.409   2.161  1.00  0.00     0.001 A 
HETATM   31  H   UNL     1      45.714 -20.107   5.463  1.00  0.00     0.165 HD
HETATM   32  C   UNL     1      44.683 -18.441   6.270  1.00  0.00     0.096 A 
ENDBRANCH  22  23
ENDBRANCH   1  22
TORSDOF 6
ENDMDL
MODEL 2
REMARK VINA RESULT:      -8.9      3.575      8.347
REMARK  6 active torsions:
REMARK  status: ('A' for Active; 'I' for Inactive)
REMARK    1  A    between atoms: C_5  and  N_6 
REMARK       I    between atoms: N_6  and  C_7 
REMARK    2  A    between atoms: C_7  and  C_8 
REMARK    3  A    between atoms: C_8  and  N_9 
REMARK    4  A    between atoms: C_8  and  C_17 
REMARK       I    between atoms: N_9  and  C_10 
REMARK    5  A    between atoms: C_10  and  C_11 
REMARK    6  A    between atoms: C_17  and  C_18 
ROOT
HETATM    1  C   UNL     1      42.611 -15.676   1.549  1.00  0.00     0.181 C 
ENDROOT
BRANCH   1   2
HETATM    2  C   UNL     1      43.437 -16.982   1.629  1.00  0.00     0.245 C 
HETATM    3  N   UNL     1      42.779 -18.036   2.232  1.00  0.00    -0.325 N 
HETATM    4  H   UNL     1      41.782 -17.902   2.402  1.00  0.00     0.169 HD
HETATM    5  O   UNL     1      44.570 -17.018   1.151  1.00  0.00    -0.271 OA
BRANCH   3   6
HETATM    6  C   UNL     1      43.303 -19.292   2.593  1.00  0.00     0.034 A 
HETATM    7  C   UNL     1      43.233 -20.430   1.791  1.00  0.00     0.030 A 
HETATM    8  C   UNL     1      43.809 -21.634   2.212  1.00  0.00     0.009 A 
HETATM    9  C   UNL     1      44.463 -21.720   3.446  1.00  0.00    -0.062 A 
HETATM   10  C   UNL     1      45.122 -22.997   3.872  1.00  0.00     0.048 C 
HETATM   11  C   UNL     1      44.545 -20.576   4.244  1.00  0.00     0.009 A 
HETATM   12  C   UNL     1      43.963 -19.376   3.824  1.00  0.00     0.030 A 
ENDBRANCH   3   6
ENDBRANCH   1   2
BRANCH   1  13
HETATM   13  N   UNL     1      41.733 -15.687   0.372  1.00  0.00    -0.342 N 
HETATM   14  C   UNL     1      41.486 -14.596  -0.428  1.00  0.00     0.276 C 
HETATM   15  O   UNL     1      41.904 -13.475  -0.144  1.00  0.00    -0.265 OA
HETATM   16  H   UNL     1      41.325 -16.570   0.084  1.00  0.00     0.163 HD
BRANCH  14  17
HETATM   17  C   UNL     1      40.714 -14.892  -1.615  1.00  0.00     0.142 A 
HETATM   18  O   UNL     1      39.509 -14.265  -1.808  1.00  0.00    -0.317 OA
HETATM   19  C   UNL     1      38.993 -14.740  -2.972  1.00  0.00     0.143 A 
HETATM   20  C   UNL     1      39.843 -15.660  -3.537  1.00  0.00     0.027 A 
HETATM   21  C   UNL     1      40.954 -15.759  -2.665  1.00  0.00     0.045 A 
ENDBRANCH  14  17
ENDBRANCH   1  13
BRANCH   1  22
HETATM   22  C   UNL     1      41.862 -15.328   2.847  1.00  0.00     0.075 C 
BRANCH  22  23
HETATM   23  C   UNL     1      42.701 -14.954   4.035  1.00  0.00    -0.028 A 
HETATM   24  C   UNL     1      42.769 -15.716   5.251  1.00  0.00    -0.002 A 
HETATM   25  C   UNL     1      43.677 -15.083   6.099  1.00  0.00     0.042 A 
HETATM   26  C   UNL     1      42.143 -16.897   5.700  1.00  0.00     0.014 A 
HETATM   27  C   UNL     1      43.993 -15.573   7.372  1.00  0.00     0.030 A 
HETATM   28  N   UNL     1      44.142 -13.976   5.434  1.00  0.00    -0.365 N 
HETATM   29  C   UNL     1      43.357 -16.745   7.792  1.00  0.00     0.002 A 
HETATM   30  C   UNL     1      42.443 -17.399   6.971  1.00  0.00     0.001 A 
HETATM   31  H   UNL     1      44.825 -13.329   5.803  1.00  0.00     0.165 HD
HETATM   32  C   UNL     1      43.558 -13.883   4.197  1.00  0.00     0.096 A 
ENDBRANCH  22  23
ENDBRANCH   1  22
TORSDOF 6
ENDMDL
MODEL 3
REMARK VINA RESULT:      -8.5      1.418      5.532
REMARK  6 active torsions:
REMARK  status: ('A' for Active; 'I' for Inactive)
REMARK    1  A    between atoms: C_5  and  N_6 
REMARK       I    between atoms: N_6  and  C_7 
REMARK    2  A    between atoms: C_7  and  C_8 
REMARK    3  A    between atoms: C_8  and  N_9 
REMARK    4  A    between atoms: C_8  and  C_17 
REMARK       I    between atoms: N_9  and  C_10 
REMARK    5  A    between atoms: C_10  and  C_11 
REMARK    6  A    between atoms: C_17  and  C_18 
ROOT
HETATM    1  C   UNL     1      43.084 -14.848   6.016  1.00  0.00     0.181 C 
ENDROOT
BRANCH   1   2
HETATM    2  C   UNL     1      43.595 -16.306   5.920  1.00  0.00     0.245 C 
HETATM    3  N   UNL     1      43.697 -16.790   4.631  1.00  0.00    -0.325 N 
HETATM    4  H   UNL     1      43.595 -16.102   3.885  1.00  0.00     0.169 HD
HETATM    5  O   UNL     1      43.893 -16.917   6.946  1.00  0.00    -0.271 OA
BRANCH   3   6
HETATM    6  C   UNL     1      43.977 -18.108   4.220  1.00  0.00     0.034 A 
HETATM    7  C   UNL     1      44.686 -19.033   4.985  1.00  0.00     0.030 A 
HETATM    8  C   UNL     1      44.893 -20.335   4.515  1.00  0.00     0.009 A 
HETATM    9  C   UNL     1      44.397 -20.732   3.269  1.00  0.00    -0.062 A 
HETATM   10  C   UNL     1      44.577 -22.141   2.790  1.00  0.00     0.048 C 
HETATM   11  C   UNL     1      43.675 -19.809   2.508  1.00  0.00     0.009 A 
HETATM   12  C   UNL     1      43.475 -18.507   2.976  1.00  0.00     0.030 A 
ENDBRANCH   3   6
ENDBRANCH   1   2
BRANCH   1  13
HETATM   13  N   UNL     1      43.604 -14.193   7.222  1.00  0.00    -0.342 N 
HETATM   14  C   UNL     1      44.826 -13.568   7.306  1.00  0.00     0.276 C 
HETATM   15  O   UNL     1      45.641 -13.611   6.385  1.00  0.00    -0.265 OA
HETATM   16  H   UNL     1      43.003 -14.137   8.037  1.00  0.00     0.163 HD
BRANCH  14  17
HETATM   17  C   UNL     1      45.049 -12.861   8.548  1.00  0.00     0.142 A 
HETATM   18  O   UNL     1      44.378 -13.257   9.678  1.00  0.00    -0.317 OA
HETATM   19  C   UNL     1      44.751 -12.417  10.678  1.00  0.00     0.143 A 
HETATM   20  C   UNL     1      45.651 -11.486  10.218  1.00  0.00     0.027 A 
HETATM   21  C   UNL     1      45.846 -11.772   8.845  1.00  0.00     0.045 A 
ENDBRANCH  14  17
ENDBRANCH   1  13
BRANCH   1  22
HETATM   22  C   UNL     1      43.315 -14.019   4.741  1.00  0.00     0.075 C 
BRANCH  22  23
HETATM   23  C   UNL     1      42.101 -13.420   4.091  1.00  0.00    -0.028 A 
HETATM   24  C   UNL     1      41.148 -14.164   3.314  1.00  0.00    -0.002 A 
HETATM   25  C   UNL     1      40.145 -13.281   2.915  1.00  0.00     0.042 A 
HETATM   26  C   UNL     1      41.047 -15.515   2.926  1.00  0.00     0.014 A 
HETATM   27  C   UNL     1      39.044 -13.682   2.148  1.00  0.00     0.030 A 
HETATM   28  N   UNL     1      40.472 -12.047   3.419  1.00  0.00    -0.365 N 
HETATM   29  C   UNL     1      38.969 -15.028   1.776  1.00  0.00     0.002 A 
HETATM   30  C   UNL     1      39.955 -15.934   2.157  1.00  0.00     0.001 A 
HETATM   31  H   UNL     1      39.918 -11.211   3.297  1.00  0.00     0.165 HD
HETATM   32  C   UNL     1      41.648 -12.116   4.121  1.00  0.00     0.096 A 
ENDBRANCH  22  23
ENDBRANCH   1  22
TORSDOF 6
ENDMDL
MODEL 4
REMARK VINA RESULT:      -8.5      3.743      9.013
REMARK  6 active torsions:
REMARK  status: ('A' for Active; 'I' for Inactive)
REMARK    1  A    between atoms: C_5  and  N_6 
REMARK       I    between atoms: N_6  and  C_7 
REMARK    2  A    between atoms: C_7  and  C_8 
REMARK    3  A    between atoms: C_8  and  N_9 
REMARK    4  A    between atoms: C_8  and  C_17 
REMARK       I    between atoms: N_9  and  C_10 
REMARK    5  A    between atoms: C_10  and  C_11 
REMARK    6  A    between atoms: C_17  and  C_18 
ROOT
HETATM    1  C   UNL     1      41.740 -15.305   0.255  1.00  0.00     0.181 C 
ENDROOT
BRANCH   1   2
HETATM    2  C   UNL     1      41.835 -16.640   1.031  1.00  0.00     0.245 C 
HETATM    3  N   UNL     1      43.021 -16.817   1.719  1.00  0.00    -0.325 N 
HETATM    4  H   UNL     1      43.624 -15.997   1.786  1.00  0.00     0.169 HD
HETATM    5  O   UNL     1      40.887 -17.425   1.016  1.00  0.00    -0.271 OA
BRANCH   3   6
HETATM    6  C   UNL     1      43.474 -17.972   2.382  1.00  0.00     0.034 A 
HETATM    7  C   UNL     1      43.805 -19.165   1.740  1.00  0.00     0.030 A 
HETATM    8  C   UNL     1      44.279 -20.259   2.473  1.00  0.00     0.009 A 
HETATM    9  C   UNL     1      44.427 -20.179   3.861  1.00  0.00    -0.062 A 
HETATM   10  C   UNL     1      44.982 -21.336   4.637  1.00  0.00     0.048 C 
HETATM   11  C   UNL     1      44.109 -18.980   4.504  1.00  0.00     0.009 A 
HETATM   12  C   UNL     1      43.629 -17.890   3.770  1.00  0.00     0.030 A 
ENDBRANCH   3   6
ENDBRANCH   1   2
BRANCH   1  13
HETATM   13  N   UNL     1      40.697 -15.376  -0.776  1.00  0.00    -0.342 N 
HETATM   14  C   UNL     1      40.764 -14.751  -1.999  1.00  0.00     0.276 C 
HETATM   15  O   UNL     1      41.676 -13.975  -2.282  1.00  0.00    -0.265 OA
HETATM   16  H   UNL     1      39.895 -15.975  -0.609  1.00  0.00     0.163 HD
BRANCH  14  17
HETATM   17  C   UNL     1      39.690 -15.097  -2.904  1.00  0.00     0.142 A 
HETATM   18  O   UNL     1      39.901 -16.052  -3.867  1.00  0.00    -0.317 OA
HETATM   19  C   UNL     1      38.752 -16.158  -4.582  1.00  0.00     0.143 A 
HETATM   20  C   UNL     1      37.800 -15.293  -4.099  1.00  0.00     0.027 A 
HETATM   21  C   UNL     1      38.402 -14.608  -3.016  1.00  0.00     0.045 A 
ENDBRANCH  14  17
ENDBRANCH   1  13
BRANCH   1  22
HETATM   22  C   UNL     1      41.604 -14.066   1.156  1.00  0.00     0.075 C 
BRANCH  22  23
HETATM   23  C   UNL     1      41.172 -14.302   2.575  1.00  0.00    -0.028 A 
HETATM   24  C   UNL     1      42.052 -14.241   3.709  1.00  0.00    -0.002 A 
HETATM   25  C   UNL     1      41.286 -14.472   4.852  1.00  0.00     0.042 A 
HETATM   26  C   UNL     1      43.432 -13.998   3.864  1.00  0.00     0.014 A 
HETATM   27  C   UNL     1      41.831 -14.470   6.141  1.00  0.00     0.030 A 
HETATM   28  N   UNL     1      39.994 -14.673   4.436  1.00  0.00    -0.365 N 
HETATM   29  C   UNL     1      43.202 -14.227   6.266  1.00  0.00     0.002 A 
HETATM   30  C   UNL     1      43.995 -13.996   5.145  1.00  0.00     0.001 A 
HETATM   31  H   UNL     1      39.213 -14.853   5.051  1.00  0.00     0.165 HD
HETATM   32  C   UNL     1      39.914 -14.580   3.070  1.00  0.00     0.096 A 
ENDBRANCH  22  23
ENDBRANCH   1  22
TORSDOF 6
ENDMDL
MODEL 5
REMARK VINA RESULT:      -8.3      2.114      6.496
REMARK  6 active torsions:
REMARK  status: ('A' for Active; 'I' for Inactive)
REMARK    1  A    between atoms: C_5  and  N_6 
REMARK       I    between atoms: N_6  and  C_7 
REMARK    2  A    between atoms: C_7  and  C_8 
REMARK    3  A    between atoms: C_8  and  N_9 
REMARK    4  A    between atoms: C_8  and  C_17 
REMARK       I    between atoms: N_9  and  C_10 
REMARK    5  A    between atoms: C_10  and  C_11 
REMARK    6  A    between atoms: C_17  and  C_18 
ROOT
HETATM    1  C   UNL     1      42.054 -16.314   3.819  1.00  0.00     0.181 C 
ENDROOT
BRANCH   1   2
HETATM    2  C   UNL     1      42.209 -15.603   5.185  1.00  0.00     0.245 C 
HETATM    3  N   UNL     1      43.106 -14.552   5.182  1.00  0.00    -0.325 N 
HETATM    4  H   UNL     1      43.435 -14.248   4.265  1.00  0.00     0.169 HD
HETATM    5  O   UNL     1      41.540 -15.977   6.147  1.00  0.00    -0.271 OA
BRANCH   3   6
HETATM    6  C   UNL     1      43.580 -13.815   6.283  1.00  0.00     0.034 A 
HETATM    7  C   UNL     1      44.776 -14.083   6.948  1.00  0.00     0.030 A 
HETATM    8  C   UNL     1      45.191 -13.280   8.017  1.00  0.00     0.009 A 
HETATM    9  C   UNL     1      44.415 -12.196   8.440  1.00  0.00    -0.062 A 
HETATM   10  C   UNL     1      44.887 -11.308   9.552  1.00  0.00     0.048 C 
HETATM   11  C   UNL     1      43.224 -11.919   7.765  1.00  0.00     0.009 A 
HETATM   12  C   UNL     1      42.807 -12.726   6.702  1.00  0.00     0.030 A 
ENDBRANCH   3   6
ENDBRANCH   1   2
BRANCH   1  13
HETATM   13  N   UNL     1      41.344 -15.454   2.864  1.00  0.00    -0.342 N 
HETATM   14  C   UNL     1      40.277 -15.857   2.096  1.00  0.00     0.276 C 
HETATM   15  O   UNL     1      39.902 -17.028   2.069  1.00  0.00    -0.265 OA
HETATM   16  H   UNL     1      41.610 -14.477   2.804  1.00  0.00     0.163 HD
BRANCH  14  17
HETATM   17  C   UNL     1      39.645 -14.791   1.348  1.00  0.00     0.142 A 
HETATM   18  O   UNL     1      40.427 -13.880   0.684  1.00  0.00    -0.317 OA
HETATM   19  C   UNL     1      39.588 -12.988   0.096  1.00  0.00     0.143 A 
HETATM   20  C   UNL     1      38.279 -13.305   0.366  1.00  0.00     0.027 A 
HETATM   21  C   UNL     1      38.313 -14.469   1.172  1.00  0.00     0.045 A 
ENDBRANCH  14  17
ENDBRANCH   1  13
BRANCH   1  22
HETATM   22  C   UNL     1      43.370 -16.873   3.251  1.00  0.00     0.075 C 
BRANCH  22  23
HETATM   23  C   UNL     1      43.915 -18.114   3.898  1.00  0.00    -0.028 A 
HETATM   24  C   UNL     1      43.944 -19.408   3.273  1.00  0.00    -0.002 A 
HETATM   25  C   UNL     1      44.557 -20.293   4.159  1.00  0.00     0.042 A 
HETATM   26  C   UNL     1      43.512 -19.899   2.024  1.00  0.00     0.014 A 
HETATM   27  C   UNL     1      44.761 -21.645   3.858  1.00  0.00     0.030 A 
HETATM   28  N   UNL     1      44.883 -19.575   5.283  1.00  0.00    -0.365 N 
HETATM   29  C   UNL     1      44.322 -22.106   2.613  1.00  0.00     0.002 A 
HETATM   30  C   UNL     1      43.704 -21.248   1.708  1.00  0.00     0.001 A 
HETATM   31  H   UNL     1      45.351 -19.957   6.092  1.00  0.00     0.165 HD
HETATM   32  C   UNL     1      44.496 -18.268   5.141  1.00  0.00     0.096 A 
ENDBRANCH  22  23
ENDBRANCH   1  22
TORSDOF 6
ENDMDL
MODEL 6
REMARK VINA RESULT:      -8.3      1.697      5.946
REMARK  6 active torsions:
REMARK  status: ('A' for Active; 'I' for Inactive)
REMARK    1  A    between atoms: C_5  and  N_6 
REMARK       I    between atoms: N_6  and  C_7 
REMARK    2  A    between atoms: C_7  and  C_8 
REMARK    3  A    between atoms: C_8  and  N_9 
REMARK    4  A    between atoms: C_8  and  C_17 
REMARK       I    between atoms: N_9  and  C_10 
REMARK    5  A    between atoms: C_10  and  C_11 
REMARK    6  A    between atoms: C_17  and  C_18 
ROOT
HETATM    1  C   UNL     1      41.546 -15.098   5.409  1.00  0.00     0.181 C 
ENDROOT
BRANCH   1   2
HETATM    2  C   UNL     1      41.990 -16.573   5.256  1.00  0.00     0.245 C 
HETATM    3  N   UNL     1      42.908 -16.789   4.246  1.00  0.00    -0.325 N 
HETATM    4  H   UNL     1      43.320 -15.954   3.829  1.00  0.00     0.169 HD
HETATM    5  O   UNL     1      41.545 -17.428   6.020  1.00  0.00    -0.271 OA
BRANCH   3   6
HETATM    6  C   UNL     1      43.383 -18.021   3.756  1.00  0.00     0.034 A 
HETATM    7  C   UNL     1      44.237 -18.867   4.463  1.00  0.00     0.030 A 
HETATM    8  C   UNL     1      44.637 -20.092   3.915  1.00  0.00     0.009 A 
HETATM    9  C   UNL     1      44.192 -20.489   2.650  1.00  0.00    -0.062 A 
HETATM   10  C   UNL     1      44.582 -21.822   2.088  1.00  0.00     0.048 C 
HETATM   11  C   UNL     1      43.325 -19.647   1.948  1.00  0.00     0.009 A 
HETATM   12  C   UNL     1      42.931 -18.421   2.494  1.00  0.00     0.030 A 
ENDBRANCH   3   6
ENDBRANCH   1   2
BRANCH   1  13
HETATM   13  N   UNL     1      42.356 -14.415   6.426  1.00  0.00    -0.342 N 
HETATM   14  C   UNL     1      43.644 -13.975   6.232  1.00  0.00     0.276 C 
HETATM   15  O   UNL     1      44.268 -14.229   5.203  1.00  0.00    -0.265 OA
HETATM   16  H   UNL     1      41.923 -14.191   7.316  1.00  0.00     0.163 HD
BRANCH  14  17
HETATM   17  C   UNL     1      44.177 -13.193   7.326  1.00  0.00     0.142 A 
HETATM   18  O   UNL     1      43.388 -12.238   7.918  1.00  0.00    -0.317 OA
HETATM   19  C   UNL     1      44.136 -11.646   8.884  1.00  0.00     0.143 A 
HETATM   20  C   UNL     1      45.393 -12.200   8.930  1.00  0.00     0.027 A 
HETATM   21  C   UNL     1      45.421 -13.199   7.928  1.00  0.00     0.045 A 
ENDBRANCH  14  17
ENDBRANCH   1  13
BRANCH   1  22
HETATM   22  C   UNL     1      41.479 -14.323   4.082  1.00  0.00     0.075 C 
BRANCH  22  23
HETATM   23  C   UNL     1      40.392 -14.714   3.122  1.00  0.00    -0.028 A 
HETATM   24  C   UNL     1      39.464 -13.791   2.529  1.00  0.00    -0.002 A 
HETATM   25  C   UNL     1      38.640 -14.513   1.667  1.00  0.00     0.042 A 
HETATM   26  C   UNL     1      39.262 -12.400   2.643  1.00  0.00     0.014 A 
HETATM   27  C   UNL     1      37.624 -13.914   0.912  1.00  0.00     0.030 A 
HETATM   28  N   UNL     1      39.040 -15.825   1.734  1.00  0.00    -0.365 N 
HETATM   29  C   UNL     1      37.445 -12.535   1.045  1.00  0.00     0.002 A 
HETATM   30  C   UNL     1      38.249 -11.786   1.899  1.00  0.00     0.001 A 
HETATM   31  H   UNL     1      38.627 -16.579   1.204  1.00  0.00     0.165 HD
HETATM   32  C   UNL     1      40.087 -15.959   2.609  1.00  0.00     0.096 A 
ENDBRANCH  22  23
ENDBRANCH   1  22
TORSDOF 6
ENDMDL
MODEL 7
REMARK VINA RESULT:      -8.0      2.936      4.037
REMARK  6 active torsions:
REMARK  status: ('A' for Active; 'I' for Inactive)
REMARK    1  A    between atoms: C_5  and  N_6 
REMARK       I    between atoms: N_6  and  C_7 
REMARK    2  A    between atoms: C_7  and  C_8 
REMARK    3  A    between atoms: C_8  and  N_9 
REMARK    4  A    between atoms: C_8  and  C_17 
REMARK       I    between atoms: N_9  and  C_10 
REMARK    5  A    between atoms: C_10  and  C_11 
REMARK    6  A    between atoms: C_17  and  C_18 
ROOT
HETATM    1  C   UNL     1      41.827 -15.899   3.654  1.00  0.00     0.181 C 
ENDROOT
BRANCH   1   2
HETATM    2  C   UNL     1      41.048 -16.047   2.325  1.00  0.00     0.245 C 
HETATM    3  N   UNL     1      41.423 -15.152   1.342  1.00  0.00    -0.325 N 
HETATM    4  H   UNL     1      42.270 -14.614   1.527  1.00  0.00     0.169 HD
HETATM    5  O   UNL     1      40.196 -16.928   2.211  1.00  0.00    -0.271 OA
BRANCH   3   6
HETATM    6  C   UNL     1      40.809 -14.927   0.095  1.00  0.00     0.034 A 
HETATM    7  C   UNL     1      41.233 -15.506  -1.101  1.00  0.00     0.030 A 
HETATM    8  C   UNL     1      40.546 -15.254  -2.295  1.00  0.00     0.009 A 
HETATM    9  C   UNL     1      39.425 -14.418  -2.312  1.00  0.00    -0.062 A 
HETATM   10  C   UNL     1      38.662 -14.191  -3.582  1.00  0.00     0.048 C 
HETATM   11  C   UNL     1      38.992 -13.850  -1.111  1.00  0.00     0.009 A 
HETATM   12  C   UNL     1      39.684 -14.096   0.079  1.00  0.00     0.030 A 
ENDBRANCH   3   6
ENDBRANCH   1   2
BRANCH   1  13
HETATM   13  N   UNL     1      41.599 -14.574   4.244  1.00  0.00    -0.342 N 
HETATM   14  C   UNL     1      42.331 -13.450   3.943  1.00  0.00     0.276 C 
HETATM   15  O   UNL     1      43.327 -13.497   3.223  1.00  0.00    -0.265 OA
HETATM   16  H   UNL     1      40.811 -14.455   4.871  1.00  0.00     0.163 HD
BRANCH  14  17
HETATM   17  C   UNL     1      41.819 -12.231   4.532  1.00  0.00     0.142 A 
HETATM   18  O   UNL     1      41.883 -12.063   5.893  1.00  0.00    -0.317 OA
HETATM   19  C   UNL     1      41.317 -10.860   6.173  1.00  0.00     0.143 A 
HETATM   20  C   UNL     1      40.891 -10.246   5.019  1.00  0.00     0.027 A 
HETATM   21  C   UNL     1      41.216 -11.127   3.960  1.00  0.00     0.045 A 
ENDBRANCH  14  17
ENDBRANCH   1  13
BRANCH   1  22
HETATM   22  C   UNL     1      41.586 -17.045   4.652  1.00  0.00     0.075 C 
BRANCH  22  23
HETATM   23  C   UNL     1      42.735 -17.980   4.901  1.00  0.00    -0.028 A 
HETATM   24  C   UNL     1      43.245 -18.912   3.933  1.00  0.00    -0.002 A 
HETATM   25  C   UNL     1      44.330 -19.570   4.510  1.00  0.00     0.042 A 
HETATM   26  C   UNL     1      42.884 -19.243   2.611  1.00  0.00     0.014 A 
HETATM   27  C   UNL     1      45.074 -20.543   3.831  1.00  0.00     0.030 A 
HETATM   28  N   UNL     1      44.475 -19.070   5.780  1.00  0.00    -0.365 N 
HETATM   29  C   UNL     1      44.693 -20.853   2.522  1.00  0.00     0.002 A 
HETATM   30  C   UNL     1      43.613 -20.215   1.918  1.00  0.00     0.001 A 
HETATM   31  H   UNL     1      45.192 -19.355   6.432  1.00  0.00     0.165 HD
HETATM   32  C   UNL     1      43.518 -18.119   6.029  1.00  0.00     0.096 A 
ENDBRANCH  22  23
ENDBRANCH   1  22
TORSDOF 6
ENDMDL
MODEL 8
REMARK VINA RESULT:      -7.9      3.688      6.656
REMARK  6 active torsions:
REMARK  status: ('A' for Active; 'I' for Inactive)
REMARK    1  A    between atoms: C_5  and  N_6 
REMARK       I    between atoms: N_6  and  C_7 
REMARK    2  A    between atoms: C_7  and  C_8 
REMARK    3  A    between atoms: C_8  and  N_9 
REMARK    4  A    between atoms: C_8  and  C_17 
REMARK       I    between atoms: N_9  and  C_10 
REMARK    5  A    between atoms: C_10  and  C_11 
REMARK    6  A    between atoms: C_17  and  C_18 
ROOT
HETATM    1  C   UNL     1      41.920 -16.884   3.081  1.00  0.00     0.181 C 
ENDROOT
BRANCH   1   2
HETATM    2  C   UNL     1      41.174 -16.382   1.822  1.00  0.00     0.245 C 
HETATM    3  N   UNL     1      41.983 -15.760   0.890  1.00  0.00    -0.325 N 
HETATM    4  H   UNL     1      42.988 -15.847   1.042  1.00  0.00     0.169 HD
HETATM    5  O   UNL     1      39.964 -16.576   1.711  1.00  0.00    -0.271 OA
BRANCH   3   6
HETATM    6  C   UNL     1      41.592 -15.066  -0.270  1.00  0.00     0.034 A 
HETATM    7  C   UNL     1      41.140 -15.683  -1.437  1.00  0.00     0.030 A 
HETATM    8  C   UNL     1      40.740 -14.915  -2.537  1.00  0.00     0.009 A 
HETATM    9  C   UNL     1      40.788 -13.519  -2.490  1.00  0.00    -0.062 A 
HETATM   10  C   UNL     1      40.311 -12.699  -3.652  1.00  0.00     0.048 C 
HETATM   11  C   UNL     1      41.227 -12.900  -1.317  1.00  0.00     0.009 A 
HETATM   12  C   UNL     1      41.633 -13.668  -0.220  1.00  0.00     0.030 A 
ENDBRANCH   3   6
ENDBRANCH   1   2
BRANCH   1  13
HETATM   13  N   UNL     1      42.406 -18.255   2.884  1.00  0.00    -0.342 N 
HETATM   14  C   UNL     1      43.591 -18.582   2.267  1.00  0.00     0.276 C 
HETATM   15  O   UNL     1      44.293 -17.734   1.720  1.00  0.00    -0.265 OA
HETATM   16  H   UNL     1      41.870 -19.019   3.283  1.00  0.00     0.163 HD
BRANCH  14  17
HETATM   17  C   UNL     1      43.928 -19.988   2.332  1.00  0.00     0.142 A 
HETATM   18  O   UNL     1      43.521 -20.825   1.324  1.00  0.00    -0.317 OA
HETATM   19  C   UNL     1      43.944 -22.075   1.648  1.00  0.00     0.143 A 
HETATM   20  C   UNL     1      44.620 -22.061   2.844  1.00  0.00     0.027 A 
HETATM   21  C   UNL     1      44.612 -20.716   3.287  1.00  0.00     0.045 A 
ENDBRANCH  14  17
ENDBRANCH   1  13
BRANCH   1  22
HETATM   22  C   UNL     1      43.017 -15.929   3.581  1.00  0.00     0.075 C 
BRANCH  22  23
HETATM   23  C   UNL     1      43.136 -15.750   5.068  1.00  0.00    -0.028 A 
HETATM   24  C   UNL     1      43.378 -16.820   5.996  1.00  0.00    -0.002 A 
HETATM   25  C   UNL     1      43.466 -16.263   7.271  1.00  0.00     0.042 A 
HETATM   26  C   UNL     1      43.542 -18.213   5.859  1.00  0.00     0.014 A 
HETATM   27  C   UNL     1      43.712 -17.030   8.417  1.00  0.00     0.030 A 
HETATM   28  N   UNL     1      43.278 -14.910   7.133  1.00  0.00    -0.365 N 
HETATM   29  C   UNL     1      43.869 -18.409   8.252  1.00  0.00     0.002 A 
HETATM   30  C   UNL     1      43.784 -18.996   6.993  1.00  0.00     0.001 A 
HETATM   31  H   UNL     1      43.300 -14.246   7.894  1.00  0.00     0.165 HD
HETATM   32  C   UNL     1      43.072 -14.591   5.815  1.00  0.00     0.096 A 
ENDBRANCH  22  23
ENDBRANCH   1  22
TORSDOF 6
ENDMDL
MODEL 9
REMARK VINA RESULT:      -7.9      3.537      5.252
REMARK  6 active torsions:
REMARK  status: ('A' for Active; 'I' for Inactive)
REMARK    1  A    between atoms: C_5  and  N_6 
REMARK       I    between atoms: N_6  and  C_7 
REMARK    2  A    between atoms: C_7  and  C_8 
REMARK    3  A    between atoms: C_8  and  N_9 
REMARK    4  A    between atoms: C_8  and  C_17 
REMARK       I    between atoms: N_9  and  C_10 
REMARK    5  A    between atoms: C_10  and  C_11 
REMARK    6  A    between atoms: C_17  and  C_18 
ROOT
HETATM    1  C   UNL     1      42.286 -15.961   1.370  1.00  0.00     0.181 C 
ENDROOT
BRANCH   1   2
HETATM    2  C   UNL     1      41.819 -15.444  -0.012  1.00  0.00     0.245 C 
HETATM    3  N   UNL     1      42.147 -14.127  -0.268  1.00  0.00    -0.325 N 
HETATM    4  H   UNL     1      42.796 -13.693   0.388  1.00  0.00     0.169 HD
HETATM    5  O   UNL     1      41.232 -16.204  -0.782  1.00  0.00    -0.271 OA
BRANCH   3   6
HETATM    6  C   UNL     1      41.736 -13.327  -1.351  1.00  0.00     0.034 A 
HETATM    7  C   UNL     1      42.494 -13.119  -2.502  1.00  0.00     0.030 A 
HETATM    8  C   UNL     1      41.997 -12.332  -3.548  1.00  0.00     0.009 A 
HETATM    9  C   UNL     1      40.734 -11.739  -3.458  1.00  0.00    -0.062 A 
HETATM   10  C   UNL     1      40.183 -10.939  -4.601  1.00  0.00     0.048 C 
HETATM   11  C   UNL     1      39.968 -11.958  -2.310  1.00  0.00     0.009 A 
HETATM   12  C   UNL     1      40.469 -12.739  -1.263  1.00  0.00     0.030 A 
ENDBRANCH   3   6
ENDBRANCH   1   2
BRANCH   1  13
HETATM   13  N   UNL     1      41.593 -15.249   2.452  1.00  0.00    -0.342 N 
HETATM   14  C   UNL     1      42.027 -14.072   3.014  1.00  0.00     0.276 C 
HETATM   15  O   UNL     1      43.114 -13.576   2.723  1.00  0.00    -0.265 OA
HETATM   16  H   UNL     1      40.700 -15.609   2.771  1.00  0.00     0.163 HD
BRANCH  14  17
HETATM   17  C   UNL     1      41.097 -13.482   3.952  1.00  0.00     0.142 A 
HETATM   18  O   UNL     1      40.037 -12.750   3.479  1.00  0.00    -0.317 OA
HETATM   19  C   UNL     1      39.350 -12.298   4.560  1.00  0.00     0.143 A 
HETATM   20  C   UNL     1      39.943 -12.725   5.723  1.00  0.00     0.027 A 
HETATM   21  C   UNL     1      41.069 -13.491   5.334  1.00  0.00     0.045 A 
ENDBRANCH  14  17
ENDBRANCH   1  13
BRANCH   1  22
HETATM   22  C   UNL     1      42.216 -17.490   1.523  1.00  0.00     0.075 C 
BRANCH  22  23
HETATM   23  C   UNL     1      43.035 -18.100   2.624  1.00  0.00    -0.028 A 
HETATM   24  C   UNL     1      43.489 -19.463   2.636  1.00  0.00    -0.002 A 
HETATM   25  C   UNL     1      44.250 -19.647   3.790  1.00  0.00     0.042 A 
HETATM   26  C   UNL     1      43.327 -20.554   1.758  1.00  0.00     0.014 A 
HETATM   27  C   UNL     1      44.859 -20.867   4.109  1.00  0.00     0.030 A 
HETATM   28  N   UNL     1      44.256 -18.450   4.461  1.00  0.00    -0.365 N 
HETATM   29  C   UNL     1      44.682 -21.932   3.222  1.00  0.00     0.002 A 
HETATM   30  C   UNL     1      43.926 -21.782   2.063  1.00  0.00     0.001 A 
HETATM   31  H   UNL     1      44.742 -18.282   5.332  1.00  0.00     0.165 HD
HETATM   32  C   UNL     1      43.525 -17.515   3.775  1.00  0.00     0.096 A 
ENDBRANCH  22  23
ENDBRANCH   1  22
TORSDOF 6
ENDMDL
MODEL 10
REMARK VINA RESULT:      -7.8      3.576      6.954
REMARK  6 active torsions:
REMARK  status: ('A' for Active; 'I' for Inactive)
REMARK    1  A    between atoms: C_5  and  N_6 
REMARK       I    between atoms: N_6  and  C_7 
REMARK    2  A    between atoms: C_7  and  C_8 
REMARK    3  A    between atoms: C_8  and  N_9 
REMARK    4  A    between atoms: C_8  and  C_17 
REMARK       I    between atoms: N_9  and  C_10 
REMARK    5  A    between atoms: C_10  and  C_11 
REMARK    6  A    between atoms: C_17  and  C_18 
ROOT
HETATM    1  C   UNL     1      41.999 -16.820   3.260  1.00  0.00     0.181 C 
ENDROOT
BRANCH   1   2
HETATM    2  C   UNL     1      41.085 -16.552   2.040  1.00  0.00     0.245 C 
HETATM    3  N   UNL     1      41.647 -15.738   1.075  1.00  0.00    -0.325 N 
HETATM    4  H   UNL     1      42.643 -15.544   1.179  1.00  0.00     0.169 HD
HETATM    5  O   UNL     1      39.971 -17.073   1.985  1.00  0.00    -0.271 OA
BRANCH   3   6
HETATM    6  C   UNL     1      41.026 -15.187  -0.062  1.00  0.00     0.034 A 
HETATM    7  C   UNL     1      41.175 -15.687  -1.355  1.00  0.00     0.030 A 
HETATM    8  C   UNL     1      40.495 -15.098  -2.428  1.00  0.00     0.009 A 
HETATM    9  C   UNL     1      39.657 -13.997  -2.225  1.00  0.00    -0.062 A 
HETATM   10  C   UNL     1      38.892 -13.399  -3.367  1.00  0.00     0.048 C 
HETATM   11  C   UNL     1      39.497 -13.504  -0.927  1.00  0.00     0.009 A 
HETATM   12  C   UNL     1      40.182 -14.090   0.143  1.00  0.00     0.030 A 
ENDBRANCH   3   6
ENDBRANCH   1   2
BRANCH   1  13
HETATM   13  N   UNL     1      42.491 -18.204   3.246  1.00  0.00    -0.342 N 
HETATM   14  C   UNL     1      43.311 -18.730   2.276  1.00  0.00     0.276 C 
HETATM   15  O   UNL     1      43.608 -18.098   1.263  1.00  0.00    -0.265 OA
HETATM   16  H   UNL     1      42.268 -18.802   4.034  1.00  0.00     0.163 HD
BRANCH  14  17
HETATM   17  C   UNL     1      43.789 -20.065   2.561  1.00  0.00     0.142 A 
HETATM   18  O   UNL     1      44.381 -20.324   3.772  1.00  0.00    -0.317 OA
HETATM   19  C   UNL     1      44.754 -21.630   3.763  1.00  0.00     0.143 A 
HETATM   20  C   UNL     1      44.412 -22.222   2.571  1.00  0.00     0.027 A 
HETATM   21  C   UNL     1      43.789 -21.216   1.795  1.00  0.00     0.045 A 
ENDBRANCH  14  17
ENDBRANCH   1  13
BRANCH   1  22
HETATM   22  C   UNL     1      43.126 -15.789   3.437  1.00  0.00     0.075 C 
BRANCH  22  23
HETATM   23  C   UNL     1      42.975 -14.804   4.561  1.00  0.00    -0.028 A 
HETATM   24  C   UNL     1      42.208 -13.592   4.478  1.00  0.00    -0.002 A 
HETATM   25  C   UNL     1      42.269 -12.966   5.722  1.00  0.00     0.042 A 
HETATM   26  C   UNL     1      41.459 -12.978   3.453  1.00  0.00     0.014 A 
HETATM   27  C   UNL     1      41.615 -11.758   5.995  1.00  0.00     0.030 A 
HETATM   28  N   UNL     1      43.045 -13.757   6.532  1.00  0.00    -0.365 N 
HETATM   29  C   UNL     1      40.880 -11.171   4.961  1.00  0.00     0.002 A 
HETATM   30  C   UNL     1      40.802 -11.769   3.707  1.00  0.00     0.001 A 
HETATM   31  H   UNL     1      43.254 -13.557   7.500  1.00  0.00     0.165 HD
HETATM   32  C   UNL     1      43.481 -14.860   5.844  1.00  0.00     0.096 A 
ENDBRANCH  22  23
ENDBRANCH   1  22
TORSDOF 6
ENDMDL
