MODEL 1
REMARK VINA RESULT:      -7.5      0.000      0.000
REMARK  10 active torsions:
REMARK  status: ('A' for Active; 'I' for Inactive)
REMARK    1  A    between atoms: C_2  and  C_3 
REMARK    2  A    between atoms: C_3  and  N_4 
REMARK    3  A    between atoms: C_7  and  C_8 
REMARK       I    between atoms: C_8  and  N_9 
REMARK    4  A    between atoms: N_9  and  C_10 
REMARK    5  A    between atoms: C_10  and  C_11 
REMARK    6  A    between atoms: C_11  and  O_12 
REMARK    7  A    between atoms: C_11  and  C_13 
REMARK    8  A    between atoms: C_13  and  O_14 
REMARK    9  A    between atoms: O_14  and  C_15 
REMARK   10  A    between atoms: C_23  and  C_24 
ROOT
HETATM    1  C   UNL     1      41.279 -16.551   5.001  1.00  0.00     0.255 C 
HETATM    2  N   UNL     1      41.990 -16.199   6.133  1.00  0.00    -0.354 N 
HETATM    3  O   UNL     1      40.948 -17.716   4.808  1.00  0.00    -0.268 OA
HETATM    4  H   UNL     1      42.274 -15.236   6.251  1.00  0.00     0.162 HD
ENDROOT
BRANCH   2   5
HETATM    5  C   UNL     1      42.191 -17.110   7.253  1.00  0.00     0.156 C 
BRANCH   5   6
HETATM    6  C   UNL     1      43.613 -17.148   7.845  1.00  0.00     0.160 C 
BRANCH   6   7
HETATM    7  O   UNL     1      43.583 -17.512   9.230  1.00  0.00    -0.392 OA
HETATM    8  H   UNL     1      44.188 -16.910   9.717  1.00  0.00     0.210 HD
ENDBRANCH   6   7
BRANCH   6   9
HETATM    9  C   UNL     1      44.555 -18.070   7.060  1.00  0.00     0.209 C 
BRANCH   9  10
HETATM   10  O   UNL     1      44.478 -17.727   5.672  1.00  0.00    -0.349 OA
BRANCH  10  11
HETATM   11  C   UNL     1      44.465 -18.764   4.781  1.00  0.00     0.069 A 
HETATM   12  C   UNL     1      44.792 -20.008   5.327  1.00  0.00     0.043 A 
HETATM   13  C   UNL     1      44.812 -21.162   4.534  1.00  0.00    -0.059 A 
HETATM   14  C   UNL     1      45.176 -22.489   5.127  1.00  0.00     0.048 C 
HETATM   15  C   UNL     1      44.536 -21.049   3.167  1.00  0.00     0.007 A 
HETATM   16  C   UNL     1      44.222 -19.808   2.614  1.00  0.00     0.003 A 
HETATM   17  C   UNL     1      44.184 -18.666   3.418  1.00  0.00     0.037 A 
ENDBRANCH  10  11
ENDBRANCH   9  10
ENDBRANCH   6   9
ENDBRANCH   5   6
ENDBRANCH   2   5
BRANCH   1  18
HETATM   18  C   UNL     1      40.962 -15.444   4.112  1.00  0.00     0.075 A 
HETATM   19  C   UNL     1      40.935 -14.078   4.493  1.00  0.00     0.158 A 
HETATM   20  N   UNL     1      40.596 -13.256   3.507  1.00  0.00    -0.183 NA
HETATM   21  N   UNL     1      40.349 -14.081   2.473  1.00  0.00    -0.268 N 
HETATM   22  C   UNL     1      40.592 -15.413   2.768  1.00  0.00     0.052 A 
BRANCH  21  23
HETATM   23  C   UNL     1      39.790 -13.526   1.240  1.00  0.00     0.106 C 
HETATM   24  C   UNL     1      40.602 -12.353   0.673  1.00  0.00     0.034 C 
BRANCH  23  25
HETATM   25  C   UNL     1      38.295 -13.181   1.397  1.00  0.00     0.022 C 
HETATM   26  C   UNL     1      37.332 -14.165   0.743  1.00  0.00     0.007 C 
ENDBRANCH  23  25
ENDBRANCH  21  23
BRANCH  22  27
HETATM   27  C   UNL     1      40.460 -16.533   1.728  1.00  0.00     0.038 A 
HETATM   28  C   UNL     1      41.274 -16.498   0.457  1.00  0.00     0.011 A 
HETATM   29  C   UNL     1      41.570 -17.526   1.499  1.00  0.00     0.011 A 
ENDBRANCH  22  27
ENDBRANCH   1  18
TORSDOF 10
ENDMDL
MODEL 2
REMARK VINA RESULT:      -7.2      1.941      2.516
REMARK  10 active torsions:
REMARK  status: ('A' for Active; 'I' for Inactive)
REMARK    1  A    between atoms: C_2  and  C_3 
REMARK    2  A    between atoms: C_3  and  N_4 
REMARK    3  A    between atoms: C_7  and  C_8 
REMARK       I    between atoms: C_8  and  N_9 
REMARK    4  A    between atoms: N_9  and  C_10 
REMARK    5  A    between atoms: C_10  and  C_11 
REMARK    6  A    between atoms: C_11  and  O_12 
REMARK    7  A    between atoms: C_11  and  C_13 
REMARK    8  A    between atoms: C_13  and  O_14 
REMARK    9  A    between atoms: O_14  and  C_15 
REMARK   10  A    between atoms: C_23  and  C_24 
ROOT
HETATM    1  C   UNL     1      41.112 -14.205   3.763  1.00  0.00     0.255 C 
HETATM    2  N   UNL     1      42.108 -14.902   4.420  1.00  0.00    -0.354 N 
HETATM    3  O   UNL     1      40.048 -13.959   4.321  1.00  0.00    -0.268 OA
HETATM    4  H   UNL     1      42.964 -15.115   3.925  1.00  0.00     0.162 HD
ENDROOT
BRANCH   2   5
HETATM    5  C   UNL     1      42.060 -15.184   5.850  1.00  0.00     0.156 C 
BRANCH   5   6
HETATM    6  C   UNL     1      41.337 -16.484   6.257  1.00  0.00     0.160 C 
BRANCH   6   7
HETATM    7  O   UNL     1      39.918 -16.292   6.290  1.00  0.00    -0.392 OA
HETATM    8  H   UNL     1      39.490 -17.126   5.997  1.00  0.00     0.210 HD
ENDBRANCH   6   7
BRANCH   6   9
HETATM    9  C   UNL     1      41.706 -17.671   5.359  1.00  0.00     0.209 C 
BRANCH   9  10
HETATM   10  O   UNL     1      43.094 -17.575   5.021  1.00  0.00    -0.349 OA
BRANCH  10  11
HETATM   11  C   UNL     1      43.615 -18.582   4.257  1.00  0.00     0.069 A 
HETATM   12  C   UNL     1      44.047 -19.699   4.979  1.00  0.00     0.043 A 
HETATM   13  C   UNL     1      44.596 -20.810   4.328  1.00  0.00    -0.059 A 
HETATM   14  C   UNL     1      45.068 -21.997   5.113  1.00  0.00     0.048 C 
HETATM   15  C   UNL     1      44.742 -20.777   2.937  1.00  0.00     0.007 A 
HETATM   16  C   UNL     1      44.324 -19.660   2.213  1.00  0.00     0.003 A 
HETATM   17  C   UNL     1      43.759 -18.565   2.871  1.00  0.00     0.037 A 
ENDBRANCH  10  11
ENDBRANCH   9  10
ENDBRANCH   6   9
ENDBRANCH   5   6
ENDBRANCH   2   5
BRANCH   1  18
HETATM   18  C   UNL     1      41.449 -13.794   2.408  1.00  0.00     0.075 A 
HETATM   19  C   UNL     1      42.097 -12.580   2.064  1.00  0.00     0.158 A 
HETATM   20  N   UNL     1      42.276 -12.423   0.759  1.00  0.00    -0.183 NA
HETATM   21  N   UNL     1      41.703 -13.515   0.222  1.00  0.00    -0.268 N 
HETATM   22  C   UNL     1      41.221 -14.400   1.173  1.00  0.00     0.052 A 
BRANCH  21  23
HETATM   23  C   UNL     1      41.571 -13.606  -1.233  1.00  0.00     0.106 C 
HETATM   24  C   UNL     1      42.602 -12.762  -1.995  1.00  0.00     0.034 C 
BRANCH  23  25
HETATM   25  C   UNL     1      40.128 -13.324  -1.693  1.00  0.00     0.022 C 
HETATM   26  C   UNL     1      39.659 -11.885  -1.507  1.00  0.00     0.007 C 
ENDBRANCH  23  25
ENDBRANCH  21  23
BRANCH  22  27
HETATM   27  C   UNL     1      40.598 -15.754   0.809  1.00  0.00     0.038 A 
HETATM   28  C   UNL     1      41.472 -16.963   0.577  1.00  0.00     0.011 A 
HETATM   29  C   UNL     1      40.594 -16.904   1.784  1.00  0.00     0.011 A 
ENDBRANCH  22  27
ENDBRANCH   1  18
TORSDOF 10
ENDMDL
MODEL 3
REMARK VINA RESULT:      -7.2      1.717      3.088
REMARK  10 active torsions:
REMARK  status: ('A' for Active; 'I' for Inactive)
REMARK    1  A    between atoms: C_2  and  C_3 
REMARK    2  A    between atoms: C_3  and  N_4 
REMARK    3  A    between atoms: C_7  and  C_8 
REMARK       I    between atoms: C_8  and  N_9 
REMARK    4  A    between atoms: N_9  and  C_10 
REMARK    5  A    between atoms: C_10  and  C_11 
REMARK    6  A    between atoms: C_11  and  O_12 
REMARK    7  A    between atoms: C_11  and  C_13 
REMARK    8  A    between atoms: C_13  and  O_14 
REMARK    9  A    between atoms: O_14  and  C_15 
REMARK   10  A    between atoms: C_23  and  C_24 
ROOT
HETATM    1  C   UNL     1      42.783 -15.969   5.930  1.00  0.00     0.255 C 
HETATM    2  N   UNL     1      42.468 -17.065   6.711  1.00  0.00    -0.354 N 
HETATM    3  O   UNL     1      43.623 -15.157   6.302  1.00  0.00    -0.268 OA
HETATM    4  H   UNL     1      41.751 -17.702   6.392  1.00  0.00     0.162 HD
ENDROOT
BRANCH   2   5
HETATM    5  C   UNL     1      43.247 -17.448   7.882  1.00  0.00     0.156 C 
BRANCH   5   6
HETATM    6  C   UNL     1      44.226 -18.623   7.685  1.00  0.00     0.160 C 
BRANCH   6   7
HETATM    7  O   UNL     1      43.659 -19.849   8.164  1.00  0.00    -0.392 OA
HETATM    8  H   UNL     1      42.717 -19.878   7.888  1.00  0.00     0.210 HD
ENDBRANCH   6   7
BRANCH   6   9
HETATM    9  C   UNL     1      44.689 -18.768   6.230  1.00  0.00     0.209 C 
BRANCH   9  10
HETATM   10  O   UNL     1      44.716 -20.161   5.897  1.00  0.00    -0.349 OA
BRANCH  10  11
HETATM   11  C   UNL     1      44.522 -20.484   4.583  1.00  0.00     0.069 A 
HETATM   12  C   UNL     1      44.175 -19.408   3.762  1.00  0.00     0.043 A 
HETATM   13  C   UNL     1      43.953 -19.588   2.391  1.00  0.00    -0.059 A 
HETATM   14  C   UNL     1      43.569 -18.429   1.521  1.00  0.00     0.048 C 
HETATM   15  C   UNL     1      44.046 -20.876   1.854  1.00  0.00     0.007 A 
HETATM   16  C   UNL     1      44.379 -21.956   2.671  1.00  0.00     0.003 A 
HETATM   17  C   UNL     1      44.620 -21.762   4.033  1.00  0.00     0.037 A 
ENDBRANCH  10  11
ENDBRANCH   9  10
ENDBRANCH   6   9
ENDBRANCH   5   6
ENDBRANCH   2   5
BRANCH   1  18
HETATM   18  C   UNL     1      42.062 -15.893   4.669  1.00  0.00     0.075 A 
HETATM   19  C   UNL     1      41.323 -16.956   4.089  1.00  0.00     0.158 A 
HETATM   20  N   UNL     1      40.771 -16.648   2.922  1.00  0.00    -0.183 NA
HETATM   21  N   UNL     1      41.181 -15.386   2.697  1.00  0.00    -0.268 N 
HETATM   22  C   UNL     1      41.931 -14.863   3.738  1.00  0.00     0.052 A 
BRANCH  21  23
HETATM   23  C   UNL     1      40.886 -14.763   1.406  1.00  0.00     0.106 C 
HETATM   24  C   UNL     1      39.383 -14.622   1.123  1.00  0.00     0.034 C 
BRANCH  23  25
HETATM   25  C   UNL     1      41.635 -15.460   0.253  1.00  0.00     0.022 C 
HETATM   26  C   UNL     1      41.013 -15.279  -1.127  1.00  0.00     0.007 C 
ENDBRANCH  23  25
ENDBRANCH  21  23
BRANCH  22  27
HETATM   27  C   UNL     1      42.442 -13.416   3.750  1.00  0.00     0.038 A 
HETATM   28  C   UNL     1      41.482 -12.263   3.578  1.00  0.00     0.011 A 
HETATM   29  C   UNL     1      42.142 -12.488   4.899  1.00  0.00     0.011 A 
ENDBRANCH  22  27
ENDBRANCH   1  18
TORSDOF 10
ENDMDL
MODEL 4
REMARK VINA RESULT:      -7.2      4.684      7.989
REMARK  10 active torsions:
REMARK  status: ('A' for Active; 'I' for Inactive)
REMARK    1  A    between atoms: C_2  and  C_3 
REMARK    2  A    between atoms: C_3  and  N_4 
REMARK    3  A    between atoms: C_7  and  C_8 
REMARK       I    between atoms: C_8  and  N_9 
REMARK    4  A    between atoms: N_9  and  C_10 
REMARK    5  A    between atoms: C_10  and  C_11 
REMARK    6  A    between atoms: C_11  and  O_12 
REMARK    7  A    between atoms: C_11  and  C_13 
REMARK    8  A    between atoms: C_13  and  O_14 
REMARK    9  A    between atoms: O_14  and  C_15 
REMARK   10  A    between atoms: C_23  and  C_24 
ROOT
HETATM    1  C   UNL     1      43.160 -15.552   6.088  1.00  0.00     0.255 C 
HETATM    2  N   UNL     1      44.328 -15.051   6.631  1.00  0.00    -0.354 N 
HETATM    3  O   UNL     1      42.103 -14.941   6.206  1.00  0.00    -0.268 OA
HETATM    4  H   UNL     1      45.179 -15.589   6.541  1.00  0.00     0.162 HD
ENDROOT
BRANCH   2   5
HETATM    5  C   UNL     1      44.433 -13.697   7.163  1.00  0.00     0.156 C 
BRANCH   5   6
HETATM    6  C   UNL     1      45.836 -13.263   7.630  1.00  0.00     0.160 C 
BRANCH   6   7
HETATM    7  O   UNL     1      46.672 -12.941   6.512  1.00  0.00    -0.392 OA
HETATM    8  H   UNL     1      46.120 -12.487   5.839  1.00  0.00     0.210 HD
ENDBRANCH   6   7
BRANCH   6   9
HETATM    9  C   UNL     1      45.793 -12.102   8.631  1.00  0.00     0.209 C 
BRANCH   9  10
HETATM   10  O   UNL     1      44.873 -12.433   9.677  1.00  0.00    -0.349 OA
BRANCH  10  11
HETATM   11  C   UNL     1      43.997 -11.456  10.061  1.00  0.00     0.069 A 
HETATM   12  C   UNL     1      44.137 -11.035  11.386  1.00  0.00     0.043 A 
HETATM   13  C   UNL     1      43.312 -10.035  11.916  1.00  0.00    -0.059 A 
HETATM   14  C   UNL     1      43.461  -9.599  13.342  1.00  0.00     0.048 C 
HETATM   15  C   UNL     1      42.313  -9.483  11.107  1.00  0.00     0.007 A 
HETATM   16  C   UNL     1      42.161  -9.908   9.788  1.00  0.00     0.003 A 
HETATM   17  C   UNL     1      43.003 -10.892   9.263  1.00  0.00     0.037 A 
ENDBRANCH  10  11
ENDBRANCH   9  10
ENDBRANCH   6   9
ENDBRANCH   5   6
ENDBRANCH   2   5
BRANCH   1  18
HETATM   18  C   UNL     1      43.311 -16.812   5.376  1.00  0.00     0.075 A 
HETATM   19  C   UNL     1      43.290 -18.095   5.981  1.00  0.00     0.158 A 
HETATM   20  N   UNL     1      43.470 -19.091   5.123  1.00  0.00    -0.183 NA
HETATM   21  N   UNL     1      43.659 -18.470   3.945  1.00  0.00    -0.268 N 
HETATM   22  C   UNL     1      43.534 -17.092   4.028  1.00  0.00     0.052 A 
BRANCH  21  23
HETATM   23  C   UNL     1      44.048 -19.263   2.778  1.00  0.00     0.106 C 
HETATM   24  C   UNL     1      42.888 -19.539   1.811  1.00  0.00     0.034 C 
BRANCH  23  25
HETATM   25  C   UNL     1      44.788 -20.552   3.187  1.00  0.00     0.022 C 
HETATM   26  C   UNL     1      44.423 -21.793   2.379  1.00  0.00     0.007 C 
ENDBRANCH  23  25
ENDBRANCH  21  23
BRANCH  22  27
HETATM   27  C   UNL     1      43.626 -16.173   2.804  1.00  0.00     0.038 A 
HETATM   28  C   UNL     1      42.380 -15.768   2.054  1.00  0.00     0.011 A 
HETATM   29  C   UNL     1      43.129 -14.751   2.852  1.00  0.00     0.011 A 
ENDBRANCH  22  27
ENDBRANCH   1  18
TORSDOF 10
ENDMDL
MODEL 5
REMARK VINA RESULT:      -7.2      5.126      7.447
REMARK  10 active torsions:
REMARK  status: ('A' for Active; 'I' for Inactive)
REMARK    1  A    between atoms: C_2  and  C_3 
REMARK    2  A    between atoms: C_3  and  N_4 
REMARK    3  A    between atoms: C_7  and  C_8 
REMARK       I    between atoms: C_8  and  N_9 
REMARK    4  A    between atoms: N_9  and  C_10 
REMARK    5  A    between atoms: C_10  and  C_11 
REMARK    6  A    between atoms: C_11  and  O_12 
REMARK    7  A    between atoms: C_11  and  C_13 
REMARK    8  A    between atoms: C_13  and  O_14 
REMARK    9  A    between atoms: O_14  and  C_15 
REMARK   10  A    between atoms: C_23  and  C_24 
ROOT
HETATM    1  C   UNL     1      44.881 -12.733   8.656  1.00  0.00     0.255 C 
HETATM    2  N   UNL     1      44.174 -13.760   8.060  1.00  0.00    -0.354 N 
HETATM    3  O   UNL     1      45.975 -12.392   8.221  1.00  0.00    -0.268 OA
HETATM    4  H   UNL     1      43.287 -14.039   8.458  1.00  0.00     0.162 HD
ENDROOT
BRANCH   2   5
HETATM    5  C   UNL     1      44.555 -14.338   6.777  1.00  0.00     0.156 C 
BRANCH   5   6
HETATM    6  C   UNL     1      43.509 -14.225   5.650  1.00  0.00     0.160 C 
BRANCH   6   7
HETATM    7  O   UNL     1      44.088 -13.660   4.467  1.00  0.00    -0.392 OA
HETATM    8  H   UNL     1      44.635 -12.890   4.733  1.00  0.00     0.210 HD
ENDBRANCH   6   7
BRANCH   6   9
HETATM    9  C   UNL     1      42.830 -15.565   5.337  1.00  0.00     0.209 C 
BRANCH   9  10
HETATM   10  O   UNL     1      43.733 -16.624   5.673  1.00  0.00    -0.349 OA
BRANCH  10  11
HETATM   11  C   UNL     1      43.894 -17.614   4.745  1.00  0.00     0.069 A 
HETATM   12  C   UNL     1      43.708 -17.209   3.421  1.00  0.00     0.043 A 
HETATM   13  C   UNL     1      43.848 -18.115   2.362  1.00  0.00    -0.059 A 
HETATM   14  C   UNL     1      43.633 -17.674   0.946  1.00  0.00     0.048 C 
HETATM   15  C   UNL     1      44.143 -19.452   2.650  1.00  0.00     0.007 A 
HETATM   16  C   UNL     1      44.318 -19.865   3.971  1.00  0.00     0.003 A 
HETATM   17  C   UNL     1      44.196 -18.948   5.018  1.00  0.00     0.037 A 
ENDBRANCH  10  11
ENDBRANCH   9  10
ENDBRANCH   6   9
ENDBRANCH   5   6
ENDBRANCH   2   5
BRANCH   1  18
HETATM   18  C   UNL     1      44.213 -12.113   9.791  1.00  0.00     0.075 A 
HETATM   19  C   UNL     1      44.451 -12.437  11.151  1.00  0.00     0.158 A 
HETATM   20  N   UNL     1      43.702 -11.748  12.002  1.00  0.00    -0.183 NA
HETATM   21  N   UNL     1      42.924 -10.992  11.206  1.00  0.00    -0.268 N 
HETATM   22  C   UNL     1      43.216 -11.141   9.859  1.00  0.00     0.052 A 
BRANCH  21  23
HETATM   23  C   UNL     1      41.846 -10.204  11.806  1.00  0.00     0.106 C 
HETATM   24  C   UNL     1      42.244  -8.752  12.106  1.00  0.00     0.034 C 
BRANCH  23  25
HETATM   25  C   UNL     1      41.241 -10.911  13.035  1.00  0.00     0.022 C 
HETATM   26  C   UNL     1      40.130 -11.907  12.727  1.00  0.00     0.007 C 
ENDBRANCH  23  25
ENDBRANCH  21  23
BRANCH  22  27
HETATM   27  C   UNL     1      42.519 -10.325   8.763  1.00  0.00     0.038 A 
HETATM   28  C   UNL     1      41.948 -11.009   7.544  1.00  0.00     0.011 A 
HETATM   29  C   UNL     1      41.029 -10.403   8.553  1.00  0.00     0.011 A 
ENDBRANCH  22  27
ENDBRANCH   1  18
TORSDOF 10
ENDMDL
MODEL 6
REMARK VINA RESULT:      -7.1      3.182      7.925
REMARK  10 active torsions:
REMARK  status: ('A' for Active; 'I' for Inactive)
REMARK    1  A    between atoms: C_2  and  C_3 
REMARK    2  A    between atoms: C_3  and  N_4 
REMARK    3  A    between atoms: C_7  and  C_8 
REMARK       I    between atoms: C_8  and  N_9 
REMARK    4  A    between atoms: N_9  and  C_10 
REMARK    5  A    between atoms: C_10  and  C_11 
REMARK    6  A    between atoms: C_11  and  O_12 
REMARK    7  A    between atoms: C_11  and  C_13 
REMARK    8  A    between atoms: C_13  and  O_14 
REMARK    9  A    between atoms: O_14  and  C_15 
REMARK   10  A    between atoms: C_23  and  C_24 
ROOT
HETATM    1  C   UNL     1      40.770 -15.588   2.119  1.00  0.00     0.255 C 
HETATM    2  N   UNL     1      41.327 -14.342   2.340  1.00  0.00    -0.354 N 
HETATM    3  O   UNL     1      39.563 -15.710   1.945  1.00  0.00    -0.268 OA
HETATM    4  H   UNL     1      42.322 -14.275   2.509  1.00  0.00     0.162 HD
ENDROOT
BRANCH   2   5
HETATM    5  C   UNL     1      40.582 -13.102   2.158  1.00  0.00     0.156 C 
BRANCH   5   6
HETATM    6  C   UNL     1      41.212 -12.073   1.198  1.00  0.00     0.160 C 
BRANCH   6   7
HETATM    7  O   UNL     1      42.643 -12.149   1.231  1.00  0.00    -0.392 OA
HETATM    8  H   UNL     1      42.900 -12.748   1.965  1.00  0.00     0.210 HD
ENDBRANCH   6   7
BRANCH   6   9
HETATM    9  C   UNL     1      40.692 -12.210  -0.239  1.00  0.00     0.209 C 
BRANCH   9  10
HETATM   10  O   UNL     1      39.729 -13.268  -0.278  1.00  0.00    -0.349 OA
BRANCH  10  11
HETATM   11  C   UNL     1      39.760 -14.090  -1.370  1.00  0.00     0.069 A 
HETATM   12  C   UNL     1      38.590 -14.090  -2.134  1.00  0.00     0.043 A 
HETATM   13  C   UNL     1      38.480 -14.878  -3.286  1.00  0.00    -0.059 A 
HETATM   14  C   UNL     1      37.215 -14.881  -4.091  1.00  0.00     0.048 C 
HETATM   15  C   UNL     1      39.550 -15.703  -3.646  1.00  0.00     0.007 A 
HETATM   16  C   UNL     1      40.716 -15.717  -2.880  1.00  0.00     0.003 A 
HETATM   17  C   UNL     1      40.823 -14.911  -1.744  1.00  0.00     0.037 A 
ENDBRANCH  10  11
ENDBRANCH   9  10
ENDBRANCH   6   9
ENDBRANCH   5   6
ENDBRANCH   2   5
BRANCH   1  18
HETATM   18  C   UNL     1      41.724 -16.686   2.097  1.00  0.00     0.075 A 
HETATM   19  C   UNL     1      42.569 -17.007   1.004  1.00  0.00     0.158 A 
HETATM   20  N   UNL     1      43.338 -18.068   1.217  1.00  0.00    -0.183 NA
HETATM   21  N   UNL     1      42.971 -18.488   2.441  1.00  0.00    -0.268 N 
HETATM   22  C   UNL     1      42.028 -17.668   3.040  1.00  0.00     0.052 A 
BRANCH  21  23
HETATM   23  C   UNL     1      43.510 -19.750   2.950  1.00  0.00     0.106 C 
HETATM   24  C   UNL     1      44.703 -19.570   3.899  1.00  0.00     0.034 C 
BRANCH  23  25
HETATM   25  C   UNL     1      43.815 -20.740   1.808  1.00  0.00     0.022 C 
HETATM   26  C   UNL     1      44.310 -22.111   2.254  1.00  0.00     0.007 C 
ENDBRANCH  23  25
ENDBRANCH  21  23
BRANCH  22  27
HETATM   27  C   UNL     1      41.515 -17.894   4.468  1.00  0.00     0.038 A 
HETATM   28  C   UNL     1      42.310 -17.405   5.654  1.00  0.00     0.011 A 
HETATM   29  C   UNL     1      41.013 -16.750   5.311  1.00  0.00     0.011 A 
ENDBRANCH  22  27
ENDBRANCH   1  18
TORSDOF 10
ENDMDL
MODEL 7
REMARK VINA RESULT:      -7.0      2.787      7.054
REMARK  10 active torsions:
REMARK  status: ('A' for Active; 'I' for Inactive)
REMARK    1  A    between atoms: C_2  and  C_3 
REMARK    2  A    between atoms: C_3  and  N_4 
REMARK    3  A    between atoms: C_7  and  C_8 
REMARK       I    between atoms: C_8  and  N_9 
REMARK    4  A    between atoms: N_9  and  C_10 
REMARK    5  A    between atoms: C_10  and  C_11 
REMARK    6  A    between atoms: C_11  and  O_12 
REMARK    7  A    between atoms: C_11  and  C_13 
REMARK    8  A    between atoms: C_13  and  O_14 
REMARK    9  A    between atoms: O_14  and  C_15 
REMARK   10  A    between atoms: C_23  and  C_24 
ROOT
HETATM    1  C   UNL     1      41.378 -17.223   1.814  1.00  0.00     0.255 C 
HETATM    2  N   UNL     1      41.604 -15.920   1.413  1.00  0.00    -0.354 N 
HETATM    3  O   UNL     1      40.820 -18.019   1.067  1.00  0.00    -0.268 OA
HETATM    4  H   UNL     1      42.041 -15.278   2.061  1.00  0.00     0.162 HD
ENDROOT
BRANCH   2   5
HETATM    5  C   UNL     1      41.413 -15.474   0.038  1.00  0.00     0.156 C 
BRANCH   5   6
HETATM    6  C   UNL     1      41.591 -13.963  -0.211  1.00  0.00     0.160 C 
BRANCH   6   7
HETATM    7  O   UNL     1      40.757 -13.519  -1.289  1.00  0.00    -0.392 OA
HETATM    8  H   UNL     1      39.938 -14.060  -1.284  1.00  0.00     0.210 HD
ENDBRANCH   6   7
BRANCH   6   9
HETATM    9  C   UNL     1      41.345 -13.123   1.049  1.00  0.00     0.209 C 
BRANCH   9  10
HETATM   10  O   UNL     1      42.592 -12.948   1.731  1.00  0.00    -0.349 OA
BRANCH  10  11
HETATM   11  C   UNL     1      42.637 -13.333   3.042  1.00  0.00     0.069 A 
HETATM   12  C   UNL     1      41.452 -13.123   3.753  1.00  0.00     0.043 A 
HETATM   13  C   UNL     1      41.350 -13.476   5.104  1.00  0.00    -0.059 A 
HETATM   14  C   UNL     1      40.078 -13.235   5.861  1.00  0.00     0.048 C 
HETATM   15  C   UNL     1      42.468 -14.012   5.751  1.00  0.00     0.007 A 
HETATM   16  C   UNL     1      43.657 -14.212   5.050  1.00  0.00     0.003 A 
HETATM   17  C   UNL     1      43.742 -13.875   3.697  1.00  0.00     0.037 A 
ENDBRANCH  10  11
ENDBRANCH   9  10
ENDBRANCH   6   9
ENDBRANCH   5   6
ENDBRANCH   2   5
BRANCH   1  18
HETATM   18  C   UNL     1      41.866 -17.544   3.147  1.00  0.00     0.075 A 
HETATM   19  C   UNL     1      41.263 -17.118   4.358  1.00  0.00     0.158 A 
HETATM   20  N   UNL     1      41.908 -17.522   5.445  1.00  0.00    -0.183 NA
HETATM   21  N   UNL     1      42.975 -18.182   4.959  1.00  0.00    -0.268 N 
HETATM   22  C   UNL     1      42.982 -18.263   3.575  1.00  0.00     0.052 A 
BRANCH  21  23
HETATM   23  C   UNL     1      44.010 -18.641   5.886  1.00  0.00     0.106 C 
HETATM   24  C   UNL     1      43.672 -19.973   6.571  1.00  0.00     0.034 C 
BRANCH  23  25
HETATM   25  C   UNL     1      44.394 -17.544   6.899  1.00  0.00     0.022 C 
HETATM   26  C   UNL     1      43.811 -17.720   8.296  1.00  0.00     0.007 C 
ENDBRANCH  23  25
ENDBRANCH  21  23
BRANCH  22  27
HETATM   27  C   UNL     1      44.051 -19.035   2.792  1.00  0.00     0.038 A 
HETATM   28  C   UNL     1      44.279 -20.505   3.051  1.00  0.00     0.011 A 
HETATM   29  C   UNL     1      43.676 -20.064   1.758  1.00  0.00     0.011 A 
ENDBRANCH  22  27
ENDBRANCH   1  18
TORSDOF 10
ENDMDL
MODEL 8
REMARK VINA RESULT:      -7.0      1.926      2.900
REMARK  10 active torsions:
REMARK  status: ('A' for Active; 'I' for Inactive)
REMARK    1  A    between atoms: C_2  and  C_3 
REMARK    2  A    between atoms: C_3  and  N_4 
REMARK    3  A    between atoms: C_7  and  C_8 
REMARK       I    between atoms: C_8  and  N_9 
REMARK    4  A    between atoms: N_9  and  C_10 
REMARK    5  A    between atoms: C_10  and  C_11 
REMARK    6  A    between atoms: C_11  and  O_12 
REMARK    7  A    between atoms: C_11  and  C_13 
REMARK    8  A    between atoms: C_13  and  O_14 
REMARK    9  A    between atoms: O_14  and  C_15 
REMARK   10  A    between atoms: C_23  and  C_24 
ROOT
HETATM    1  C   UNL     1      42.516 -13.759   3.072  1.00  0.00     0.255 C 
HETATM    2  N   UNL     1      41.711 -14.259   4.078  1.00  0.00    -0.354 N 
HETATM    3  O   UNL     1      43.733 -13.716   3.209  1.00  0.00    -0.268 OA
HETATM    4  H   UNL     1      40.708 -14.256   3.948  1.00  0.00     0.162 HD
ENDROOT
BRANCH   2   5
HETATM    5  C   UNL     1      42.244 -14.963   5.238  1.00  0.00     0.156 C 
BRANCH   5   6
HETATM    6  C   UNL     1      41.376 -16.112   5.787  1.00  0.00     0.160 C 
BRANCH   6   7
HETATM    7  O   UNL     1      40.034 -15.672   6.027  1.00  0.00    -0.392 OA
HETATM    8  H   UNL     1      39.422 -16.368   5.703  1.00  0.00     0.210 HD
ENDBRANCH   6   7
BRANCH   6   9
HETATM    9  C   UNL     1      41.390 -17.349   4.880  1.00  0.00     0.209 C 
BRANCH   9  10
HETATM   10  O   UNL     1      42.553 -17.291   4.047  1.00  0.00    -0.349 OA
BRANCH  10  11
HETATM   11  C   UNL     1      43.378 -18.381   4.064  1.00  0.00     0.069 A 
HETATM   12  C   UNL     1      43.236 -19.239   2.970  1.00  0.00     0.043 A 
HETATM   13  C   UNL     1      44.021 -20.392   2.850  1.00  0.00    -0.059 A 
HETATM   14  C   UNL     1      43.851 -21.313   1.679  1.00  0.00     0.048 C 
HETATM   15  C   UNL     1      44.932 -20.699   3.865  1.00  0.00     0.007 A 
HETATM   16  C   UNL     1      45.070 -19.853   4.966  1.00  0.00     0.003 A 
HETATM   17  C   UNL     1      44.296 -18.694   5.065  1.00  0.00     0.037 A 
ENDBRANCH  10  11
ENDBRANCH   9  10
ENDBRANCH   6   9
ENDBRANCH   5   6
ENDBRANCH   2   5
BRANCH   1  18
HETATM   18  C   UNL     1      41.803 -13.325   1.880  1.00  0.00     0.075 A 
HETATM   19  C   UNL     1      41.647 -11.975   1.471  1.00  0.00     0.158 A 
HETATM   20  N   UNL     1      40.937 -11.834   0.360  1.00  0.00    -0.183 NA
HETATM   21  N   UNL     1      40.575 -13.091   0.048  1.00  0.00    -0.268 N 
HETATM   22  C   UNL     1      41.103 -14.040   0.909  1.00  0.00     0.052 A 
BRANCH  21  23
HETATM   23  C   UNL     1      39.636 -13.308  -1.054  1.00  0.00     0.106 C 
HETATM   24  C   UNL     1      40.056 -12.621  -2.361  1.00  0.00     0.034 C 
BRANCH  23  25
HETATM   25  C   UNL     1      38.191 -12.958  -0.647  1.00  0.00     0.022 C 
HETATM   26  C   UNL     1      37.568 -13.884   0.391  1.00  0.00     0.007 C 
ENDBRANCH  23  25
ENDBRANCH  21  23
BRANCH  22  27
HETATM   27  C   UNL     1      40.898 -15.548   0.712  1.00  0.00     0.038 A 
HETATM   28  C   UNL     1      41.388 -16.230  -0.542  1.00  0.00     0.011 A 
HETATM   29  C   UNL     1      42.057 -16.510   0.763  1.00  0.00     0.011 A 
ENDBRANCH  22  27
ENDBRANCH   1  18
TORSDOF 10
ENDMDL
MODEL 9
REMARK VINA RESULT:      -7.0      2.948      7.570
REMARK  10 active torsions:
REMARK  status: ('A' for Active; 'I' for Inactive)
REMARK    1  A    between atoms: C_2  and  C_3 
REMARK    2  A    between atoms: C_3  and  N_4 
REMARK    3  A    between atoms: C_7  and  C_8 
REMARK       I    between atoms: C_8  and  N_9 
REMARK    4  A    between atoms: N_9  and  C_10 
REMARK    5  A    between atoms: C_10  and  C_11 
REMARK    6  A    between atoms: C_11  and  O_12 
REMARK    7  A    between atoms: C_11  and  C_13 
REMARK    8  A    between atoms: C_13  and  O_14 
REMARK    9  A    between atoms: O_14  and  C_15 
REMARK   10  A    between atoms: C_23  and  C_24 
ROOT
HETATM    1  C   UNL     1      43.203 -14.880   3.261  1.00  0.00     0.255 C 
HETATM    2  N   UNL     1      41.887 -14.662   3.621  1.00  0.00    -0.354 N 
HETATM    3  O   UNL     1      44.006 -13.953   3.236  1.00  0.00    -0.268 OA
HETATM    4  H   UNL     1      41.241 -15.440   3.605  1.00  0.00     0.162 HD
ENDROOT
BRANCH   2   5
HETATM    5  C   UNL     1      41.425 -13.406   4.201  1.00  0.00     0.156 C 
BRANCH   5   6
HETATM    6  C   UNL     1      40.861 -12.373   3.207  1.00  0.00     0.160 C 
BRANCH   6   7
HETATM    7  O   UNL     1      41.910 -11.778   2.433  1.00  0.00    -0.392 OA
HETATM    8  H   UNL     1      42.325 -12.482   1.888  1.00  0.00     0.210 HD
ENDBRANCH   6   7
BRANCH   6   9
HETATM    9  C   UNL     1      39.777 -12.960   2.294  1.00  0.00     0.209 C 
BRANCH   9  10
HETATM   10  O   UNL     1      40.395 -13.877   1.383  1.00  0.00    -0.349 OA
BRANCH  10  11
HETATM   11  C   UNL     1      39.827 -13.994   0.145  1.00  0.00     0.069 A 
HETATM   12  C   UNL     1      40.647 -14.583  -0.821  1.00  0.00     0.043 A 
HETATM   13  C   UNL     1      40.194 -14.774  -2.132  1.00  0.00    -0.059 A 
HETATM   14  C   UNL     1      41.087 -15.396  -3.164  1.00  0.00     0.048 C 
HETATM   15  C   UNL     1      38.914 -14.331  -2.478  1.00  0.00     0.007 A 
HETATM   16  C   UNL     1      38.095 -13.730  -1.521  1.00  0.00     0.003 A 
HETATM   17  C   UNL     1      38.549 -13.563  -0.210  1.00  0.00     0.037 A 
ENDBRANCH  10  11
ENDBRANCH   9  10
ENDBRANCH   6   9
ENDBRANCH   5   6
ENDBRANCH   2   5
BRANCH   1  18
HETATM   18  C   UNL     1      43.528 -16.263   2.948  1.00  0.00     0.075 A 
HETATM   19  C   UNL     1      43.889 -16.743   1.663  1.00  0.00     0.158 A 
HETATM   20  N   UNL     1      44.119 -18.049   1.627  1.00  0.00    -0.183 NA
HETATM   21  N   UNL     1      43.865 -18.455   2.885  1.00  0.00    -0.268 N 
HETATM   22  C   UNL     1      43.543 -17.412   3.739  1.00  0.00     0.052 A 
BRANCH  21  23
HETATM   23  C   UNL     1      43.865 -19.888   3.183  1.00  0.00     0.106 C 
HETATM   24  C   UNL     1      45.178 -20.383   3.805  1.00  0.00     0.034 C 
BRANCH  23  25
HETATM   25  C   UNL     1      43.446 -20.724   1.958  1.00  0.00     0.022 C 
HETATM   26  C   UNL     1      44.284 -21.973   1.709  1.00  0.00     0.007 C 
ENDBRANCH  23  25
ENDBRANCH  21  23
BRANCH  22  27
HETATM   27  C   UNL     1      43.292 -17.613   5.239  1.00  0.00     0.038 A 
HETATM   28  C   UNL     1      44.449 -17.715   6.203  1.00  0.00     0.011 A 
HETATM   29  C   UNL     1      43.563 -16.513   6.233  1.00  0.00     0.011 A 
ENDBRANCH  22  27
ENDBRANCH   1  18
TORSDOF 10
ENDMDL
MODEL 10
REMARK VINA RESULT:      -6.9      4.945      8.251
REMARK  10 active torsions:
REMARK  status: ('A' for Active; 'I' for Inactive)
REMARK    1  A    between atoms: C_2  and  C_3 
REMARK    2  A    between atoms: C_3  and  N_4 
REMARK    3  A    between atoms: C_7  and  C_8 
REMARK       I    between atoms: C_8  and  N_9 
REMARK    4  A    between atoms: N_9  and  C_10 
REMARK    5  A    between atoms: C_10  and  C_11 
REMARK    6  A    between atoms: C_11  and  O_12 
REMARK    7  A    between atoms: C_11  and  C_13 
REMARK    8  A    between atoms: C_13  and  O_14 
REMARK    9  A    between atoms: O_14  and  C_15 
REMARK   10  A    between atoms: C_23  and  C_24 
ROOT
HETATM    1  C   UNL     1      40.081 -13.910   5.442  1.00  0.00     0.255 C 
HETATM    2  N   UNL     1      40.208 -13.240   6.644  1.00  0.00    -0.354 N 
HETATM    3  O   UNL     1      39.386 -13.453   4.542  1.00  0.00    -0.268 OA
HETATM    4  H   UNL     1      40.766 -13.655   7.378  1.00  0.00     0.162 HD
ENDROOT
BRANCH   2   5
HETATM    5  C   UNL     1      39.731 -11.876   6.840  1.00  0.00     0.156 C 
BRANCH   5   6
HETATM    6  C   UNL     1      39.256 -11.527   8.265  1.00  0.00     0.160 C 
BRANCH   6   7
HETATM    7  O   UNL     1      38.867 -12.706   8.979  1.00  0.00    -0.392 OA
HETATM    8  H   UNL     1      39.521 -12.859   9.696  1.00  0.00     0.210 HD
ENDBRANCH   6   7
BRANCH   6   9
HETATM    9  C   UNL     1      40.300 -10.730   9.057  1.00  0.00     0.209 C 
BRANCH   9  10
HETATM   10  O   UNL     1      40.326 -11.222  10.401  1.00  0.00    -0.349 OA
BRANCH  10  11
HETATM   11  C   UNL     1      41.379 -10.830  11.181  1.00  0.00     0.069 A 
HETATM   12  C   UNL     1      42.637 -11.042  10.612  1.00  0.00     0.043 A 
HETATM   13  C   UNL     1      43.807 -10.683  11.293  1.00  0.00    -0.059 A 
HETATM   14  C   UNL     1      45.153 -10.927  10.680  1.00  0.00     0.048 C 
HETATM   15  C   UNL     1      43.703 -10.138  12.577  1.00  0.00     0.007 A 
HETATM   16  C   UNL     1      42.449  -9.935  13.155  1.00  0.00     0.003 A 
HETATM   17  C   UNL     1      41.288 -10.278  12.458  1.00  0.00     0.037 A 
ENDBRANCH  10  11
ENDBRANCH   9  10
ENDBRANCH   6   9
ENDBRANCH   5   6
ENDBRANCH   2   5
BRANCH   1  18
HETATM   18  C   UNL     1      40.840 -15.149   5.352  1.00  0.00     0.075 A 
HETATM   19  C   UNL     1      40.638 -16.287   6.174  1.00  0.00     0.158 A 
HETATM   20  N   UNL     1      41.470 -17.287   5.913  1.00  0.00    -0.183 NA
HETATM   21  N   UNL     1      42.264 -16.799   4.943  1.00  0.00    -0.268 N 
HETATM   22  C   UNL     1      41.905 -15.524   4.534  1.00  0.00     0.052 A 
BRANCH  21  23
HETATM   23  C   UNL     1      43.420 -17.585   4.508  1.00  0.00     0.106 C 
HETATM   24  C   UNL     1      43.145 -18.439   3.263  1.00  0.00     0.034 C 
BRANCH  23  25
HETATM   25  C   UNL     1      44.014 -18.411   5.665  1.00  0.00     0.022 C 
HETATM   26  C   UNL     1      45.030 -17.675   6.532  1.00  0.00     0.007 C 
ENDBRANCH  23  25
ENDBRANCH  21  23
BRANCH  22  27
HETATM   27  C   UNL     1      42.609 -14.789   3.386  1.00  0.00     0.038 A 
HETATM   28  C   UNL     1      42.686 -13.282   3.375  1.00  0.00     0.011 A 
HETATM   29  C   UNL     1      43.925 -14.086   3.595  1.00  0.00     0.011 A 
ENDBRANCH  22  27
ENDBRANCH   1  18
TORSDOF 10
ENDMDL
