MODEL 1
REMARK VINA RESULT:      -9.5      0.000      0.000
REMARK  7 active torsions:
REMARK  status: ('A' for Active; 'I' for Inactive)
REMARK    1  A    between atoms: C_5  and  N_6 
REMARK       I    between atoms: N_6  and  C_7 
REMARK    2  A    between atoms: C_7  and  C_8 
REMARK    3  A    between atoms: C_8  and  N_9 
REMARK    4  A    between atoms: N_12  and  C_13 
REMARK    5  A    between atoms: C_13  and  C_14 
REMARK    6  A    between atoms: C_29  and  C_30 
REMARK       I    between atoms: C_30  and  N_31 
REMARK    7  A    between atoms: N_31  and  C_32 
ROOT
HETATM    1  N   UNL     1      40.966 -12.931   4.657  1.00  0.00    -0.290 N 
HETATM    2  C   UNL     1      40.009 -13.520   3.848  1.00  0.00     0.332 C 
HETATM    3  O   UNL     1      38.999 -12.892   3.519  1.00  0.00    -0.246 OA
HETATM    4  N   UNL     1      40.247 -14.822   3.439  1.00  0.00    -0.261 N 
HETATM    5  C   UNL     1      41.239 -15.638   3.959  1.00  0.00     0.264 C 
HETATM    6  O   UNL     1      41.427 -16.802   3.612  1.00  0.00    -0.267 OA
HETATM    7  C   UNL     1      42.120 -15.043   4.977  1.00  0.00     0.059 A 
HETATM    8  C   UNL     1      41.986 -13.690   5.288  1.00  0.00     0.056 A 
HETATM    9  C   UNL     1      43.115 -15.833   5.577  1.00  0.00     0.020 A 
HETATM   10  C   UNL     1      43.994 -15.268   6.499  1.00  0.00     0.018 A 
HETATM   11  C   UNL     1      43.879 -13.913   6.817  1.00  0.00     0.034 A 
HETATM   12  C   UNL     1      42.866 -13.134   6.226  1.00  0.00     0.048 A 
ENDROOT
BRANCH   1  13
HETATM   13  C   UNL     1      40.966 -11.467   4.737  1.00  0.00     0.237 C 
BRANCH  13  14
HETATM   14  C   UNL     1      40.315 -10.867   5.983  1.00  0.00     0.240 C 
HETATM   15  N   UNL     1      41.221 -10.439   6.937  1.00  0.00    -0.326 N 
HETATM   16  H   UNL     1      42.206 -10.512   6.689  1.00  0.00     0.169 HD
HETATM   17  O   UNL     1      39.094 -10.907   6.104  1.00  0.00    -0.271 OA
BRANCH  15  18
HETATM   18  C   UNL     1      40.937 -10.000   8.247  1.00  0.00     0.034 A 
HETATM   19  C   UNL     1      40.954  -8.662   8.642  1.00  0.00     0.030 A 
HETATM   20  C   UNL     1      40.615  -8.300   9.952  1.00  0.00     0.009 A 
HETATM   21  C   UNL     1      40.252  -9.271  10.888  1.00  0.00    -0.062 A 
HETATM   22  C   UNL     1      39.913  -8.876  12.295  1.00  0.00     0.048 C 
HETATM   23  C   UNL     1      40.264 -10.615  10.504  1.00  0.00     0.009 A 
HETATM   24  C   UNL     1      40.593 -10.975   9.191  1.00  0.00     0.030 A 
ENDBRANCH  15  18
ENDBRANCH  13  14
ENDBRANCH   1  13
BRANCH   4  25
HETATM   25  C   UNL     1      39.463 -15.326   2.317  1.00  0.00     0.175 C 
BRANCH  25  26
HETATM   26  C   UNL     1      39.929 -14.678   1.025  1.00  0.00    -0.037 A 
HETATM   27  C   UNL     1      39.012 -14.006   0.197  1.00  0.00     0.048 A 
HETATM   28  C   UNL     1      39.455 -13.545  -1.025  1.00  0.00     0.105 A 
HETATM   29  C   UNL     1      40.755 -13.717  -1.438  1.00  0.00     0.105 A 
HETATM   30  O   UNL     1      38.695 -12.911  -1.958  1.00  0.00    -0.323 OA
HETATM   31  O   UNL     1      40.976 -13.213  -2.681  1.00  0.00    -0.323 OA
HETATM   32  C   UNL     1      41.687 -14.353  -0.650  1.00  0.00     0.040 A 
HETATM   33  C   UNL     1      39.661 -12.722  -3.013  1.00  0.00     0.352 A 
HETATM   34  C   UNL     1      41.267 -14.840   0.591  1.00  0.00     0.012 A 
ENDBRANCH  25  26
ENDBRANCH   4  25
BRANCH  11  35
HETATM   35  C   UNL     1      44.788 -13.251   7.789  1.00  0.00     0.252 C 
HETATM   36  N   UNL     1      44.192 -12.763   8.929  1.00  0.00    -0.352 N 
HETATM   37  H   UNL     1      43.224 -13.006   9.085  1.00  0.00     0.163 HD
HETATM   38  O   UNL     1      45.982 -13.218   7.544  1.00  0.00    -0.268 OA
BRANCH  36  39
HETATM   39  C   UNL     1      44.885 -12.205  10.092  1.00  0.00     0.084 C 
HETATM   40  C   UNL     1      45.060 -10.683  10.015  1.00  0.00     0.025 C 
HETATM   41  C   UNL     1      43.938  -9.882  10.664  1.00  0.00     0.002 C 
HETATM   42  C   UNL     1      43.661 -10.357  12.084  1.00  0.00     0.000 C 
HETATM   43  C   UNL     1      43.323 -11.841  12.132  1.00  0.00     0.002 C 
HETATM   44  C   UNL     1      44.378 -12.709  11.452  1.00  0.00     0.025 C 
ENDBRANCH  36  39
ENDBRANCH  11  35
TORSDOF 7
ENDMDL
MODEL 2
REMARK VINA RESULT:      -9.3      3.284      8.124
REMARK  7 active torsions:
REMARK  status: ('A' for Active; 'I' for Inactive)
REMARK    1  A    between atoms: C_5  and  N_6 
REMARK       I    between atoms: N_6  and  C_7 
REMARK    2  A    between atoms: C_7  and  C_8 
REMARK    3  A    between atoms: C_8  and  N_9 
REMARK    4  A    between atoms: N_12  and  C_13 
REMARK    5  A    between atoms: C_13  and  C_14 
REMARK    6  A    between atoms: C_29  and  C_30 
REMARK       I    between atoms: C_30  and  N_31 
REMARK    7  A    between atoms: N_31  and  C_32 
ROOT
HETATM    1  N   UNL     1      40.588 -15.990   2.598  1.00  0.00    -0.290 N 
HETATM    2  C   UNL     1      41.366 -16.983   2.025  1.00  0.00     0.332 C 
HETATM    3  O   UNL     1      40.897 -17.715   1.150  1.00  0.00    -0.246 OA
HETATM    4  N   UNL     1      42.669 -17.099   2.480  1.00  0.00    -0.261 N 
HETATM    5  C   UNL     1      43.168 -16.461   3.604  1.00  0.00     0.264 C 
HETATM    6  O   UNL     1      44.317 -16.591   4.018  1.00  0.00    -0.267 OA
HETATM    7  C   UNL     1      42.246 -15.563   4.320  1.00  0.00     0.059 A 
HETATM    8  C   UNL     1      40.979 -15.322   3.787  1.00  0.00     0.056 A 
HETATM    9  C   UNL     1      42.677 -14.923   5.493  1.00  0.00     0.020 A 
HETATM   10  C   UNL     1      41.835 -14.025   6.149  1.00  0.00     0.018 A 
HETATM   11  C   UNL     1      40.567 -13.767   5.626  1.00  0.00     0.034 A 
HETATM   12  C   UNL     1      40.136 -14.428   4.460  1.00  0.00     0.048 A 
ENDROOT
BRANCH   1  13
HETATM   13  C   UNL     1      39.396 -15.563   1.858  1.00  0.00     0.237 C 
BRANCH  13  14
HETATM   14  C   UNL     1      39.608 -14.445   0.838  1.00  0.00     0.240 C 
HETATM   15  N   UNL     1      40.190 -14.869  -0.343  1.00  0.00    -0.326 N 
HETATM   16  H   UNL     1      40.358 -15.869  -0.431  1.00  0.00     0.169 HD
HETATM   17  O   UNL     1      39.370 -13.284   1.157  1.00  0.00    -0.271 OA
BRANCH  15  18
HETATM   18  C   UNL     1      40.662 -14.062  -1.399  1.00  0.00     0.034 A 
HETATM   19  C   UNL     1      39.933 -13.789  -2.558  1.00  0.00     0.030 A 
HETATM   20  C   UNL     1      40.450 -12.940  -3.544  1.00  0.00     0.009 A 
HETATM   21  C   UNL     1      41.706 -12.348  -3.387  1.00  0.00    -0.062 A 
HETATM   22  C   UNL     1      42.262 -11.459  -4.458  1.00  0.00     0.048 C 
HETATM   23  C   UNL     1      42.452 -12.644  -2.242  1.00  0.00     0.009 A 
HETATM   24  C   UNL     1      41.929 -13.485  -1.252  1.00  0.00     0.030 A 
ENDBRANCH  15  18
ENDBRANCH  13  14
ENDBRANCH   1  13
BRANCH   4  25
HETATM   25  C   UNL     1      43.599 -17.866   1.658  1.00  0.00     0.175 C 
BRANCH  25  26
HETATM   26  C   UNL     1      43.755 -19.268   2.221  1.00  0.00    -0.037 A 
HETATM   27  C   UNL     1      44.303 -19.462   3.501  1.00  0.00     0.048 A 
HETATM   28  C   UNL     1      44.542 -20.755   3.917  1.00  0.00     0.105 A 
HETATM   29  C   UNL     1      44.251 -21.839   3.123  1.00  0.00     0.105 A 
HETATM   30  O   UNL     1      45.099 -21.118   5.104  1.00  0.00    -0.323 OA
HETATM   31  O   UNL     1      44.587 -23.018   3.711  1.00  0.00    -0.323 OA
HETATM   32  C   UNL     1      43.697 -21.693   1.872  1.00  0.00     0.040 A 
HETATM   33  C   UNL     1      45.144 -22.553   4.957  1.00  0.00     0.352 A 
HETATM   34  C   UNL     1      43.451 -20.394   1.417  1.00  0.00     0.012 A 
ENDBRANCH  25  26
ENDBRANCH   4  25
BRANCH  11  35
HETATM   35  C   UNL     1      39.625 -12.818   6.275  1.00  0.00     0.252 C 
HETATM   36  N   UNL     1      40.116 -12.137   7.365  1.00  0.00    -0.352 N 
HETATM   37  H   UNL     1      41.104 -12.226   7.557  1.00  0.00     0.163 HD
HETATM   38  O   UNL     1      38.515 -12.671   5.789  1.00  0.00    -0.268 OA
BRANCH  36  39
HETATM   39  C   UNL     1      39.441 -11.053   8.080  1.00  0.00     0.084 C 
HETATM   40  C   UNL     1      39.715 -11.065   9.589  1.00  0.00     0.025 C 
HETATM   41  C   UNL     1      40.906 -10.219  10.024  1.00  0.00     0.002 C 
HETATM   42  C   UNL     1      40.820  -8.804   9.468  1.00  0.00     0.000 C 
HETATM   43  C   UNL     1      40.715  -8.795   7.949  1.00  0.00     0.002 C 
HETATM   44  C   UNL     1      39.573  -9.666   7.430  1.00  0.00     0.025 C 
ENDBRANCH  36  39
ENDBRANCH  11  35
TORSDOF 7
ENDMDL
MODEL 3
REMARK VINA RESULT:      -9.2      2.664      6.470
REMARK  7 active torsions:
REMARK  status: ('A' for Active; 'I' for Inactive)
REMARK    1  A    between atoms: C_5  and  N_6 
REMARK       I    between atoms: N_6  and  C_7 
REMARK    2  A    between atoms: C_7  and  C_8 
REMARK    3  A    between atoms: C_8  and  N_9 
REMARK    4  A    between atoms: N_12  and  C_13 
REMARK    5  A    between atoms: C_13  and  C_14 
REMARK    6  A    between atoms: C_29  and  C_30 
REMARK       I    between atoms: C_30  and  N_31 
REMARK    7  A    between atoms: N_31  and  C_32 
ROOT
HETATM    1  N   UNL     1      42.873 -13.018   5.358  1.00  0.00    -0.290 N 
HETATM    2  C   UNL     1      43.185 -13.466   4.085  1.00  0.00     0.332 C 
HETATM    3  O   UNL     1      44.362 -13.629   3.753  1.00  0.00    -0.246 OA
HETATM    4  N   UNL     1      42.124 -13.716   3.231  1.00  0.00    -0.261 N 
HETATM    5  C   UNL     1      40.814 -13.337   3.475  1.00  0.00     0.264 C 
HETATM    6  O   UNL     1      39.882 -13.537   2.700  1.00  0.00    -0.267 OA
HETATM    7  C   UNL     1      40.545 -12.671   4.760  1.00  0.00     0.059 A 
HETATM    8  C   UNL     1      41.576 -12.548   5.692  1.00  0.00     0.056 A 
HETATM    9  C   UNL     1      39.247 -12.220   5.047  1.00  0.00     0.020 A 
HETATM   10  C   UNL     1      38.965 -11.640   6.284  1.00  0.00     0.018 A 
HETATM   11  C   UNL     1      39.984 -11.516   7.231  1.00  0.00     0.034 A 
HETATM   12  C   UNL     1      41.287 -11.952   6.927  1.00  0.00     0.048 A 
ENDROOT
BRANCH   1  13
HETATM   13  C   UNL     1      43.903 -13.166   6.391  1.00  0.00     0.237 C 
BRANCH  13  14
HETATM   14  C   UNL     1      44.108 -14.579   6.933  1.00  0.00     0.240 C 
HETATM   15  N   UNL     1      43.911 -15.574   5.992  1.00  0.00    -0.326 N 
HETATM   16  H   UNL     1      43.714 -15.264   5.043  1.00  0.00     0.169 HD
HETATM   17  O   UNL     1      44.308 -14.742   8.134  1.00  0.00    -0.271 OA
BRANCH  15  18
HETATM   18  C   UNL     1      43.862 -16.965   6.219  1.00  0.00     0.034 A 
HETATM   19  C   UNL     1      42.792 -17.618   6.833  1.00  0.00     0.030 A 
HETATM   20  C   UNL     1      42.795 -19.010   6.983  1.00  0.00     0.009 A 
HETATM   21  C   UNL     1      43.869 -19.773   6.518  1.00  0.00    -0.062 A 
HETATM   22  C   UNL     1      43.875 -21.262   6.703  1.00  0.00     0.048 C 
HETATM   23  C   UNL     1      44.956 -19.120   5.930  1.00  0.00     0.009 A 
HETATM   24  C   UNL     1      44.946 -17.729   5.772  1.00  0.00     0.030 A 
ENDBRANCH  15  18
ENDBRANCH  13  14
ENDBRANCH   1  13
BRANCH   4  25
HETATM   25  C   UNL     1      42.395 -14.520   2.044  1.00  0.00     0.175 C 
BRANCH  25  26
HETATM   26  C   UNL     1      42.593 -15.974   2.435  1.00  0.00    -0.037 A 
HETATM   27  C   UNL     1      43.739 -16.672   2.015  1.00  0.00     0.048 A 
HETATM   28  C   UNL     1      43.814 -18.023   2.286  1.00  0.00     0.105 A 
HETATM   29  C   UNL     1      42.814 -18.685   2.956  1.00  0.00     0.105 A 
HETATM   30  O   UNL     1      44.829 -18.851   1.919  1.00  0.00    -0.323 OA
HETATM   31  O   UNL     1      43.073 -20.013   3.097  1.00  0.00    -0.323 OA
HETATM   32  C   UNL     1      41.685 -18.035   3.401  1.00  0.00     0.040 A 
HETATM   33  C   UNL     1      44.342 -20.115   2.418  1.00  0.00     0.352 A 
HETATM   34  C   UNL     1      41.575 -16.668   3.133  1.00  0.00     0.012 A 
ENDBRANCH  25  26
ENDBRANCH   4  25
BRANCH  11  35
HETATM   35  C   UNL     1      39.747 -10.910   8.568  1.00  0.00     0.252 C 
HETATM   36  N   UNL     1      40.790 -11.000   9.460  1.00  0.00    -0.352 N 
HETATM   37  H   UNL     1      41.673 -11.342   9.105  1.00  0.00     0.163 HD
HETATM   38  O   UNL     1      38.685 -10.346   8.774  1.00  0.00    -0.268 OA
BRANCH  36  39
HETATM   39  C   UNL     1      40.857 -10.362  10.776  1.00  0.00     0.084 C 
HETATM   40  C   UNL     1      41.110 -11.356  11.915  1.00  0.00     0.025 C 
HETATM   41  C   UNL     1      42.579 -11.562  12.263  1.00  0.00     0.002 C 
HETATM   42  C   UNL     1      43.291 -10.235  12.490  1.00  0.00     0.000 C 
HETATM   43  C   UNL     1      43.177  -9.314  11.284  1.00  0.00     0.002 C 
HETATM   44  C   UNL     1      41.732  -9.099  10.839  1.00  0.00     0.025 C 
ENDBRANCH  36  39
ENDBRANCH  11  35
TORSDOF 7
ENDMDL
MODEL 4
REMARK VINA RESULT:      -8.7      2.462      6.278
REMARK  7 active torsions:
REMARK  status: ('A' for Active; 'I' for Inactive)
REMARK    1  A    between atoms: C_5  and  N_6 
REMARK       I    between atoms: N_6  and  C_7 
REMARK    2  A    between atoms: C_7  and  C_8 
REMARK    3  A    between atoms: C_8  and  N_9 
REMARK    4  A    between atoms: N_12  and  C_13 
REMARK    5  A    between atoms: C_13  and  C_14 
REMARK    6  A    between atoms: C_29  and  C_30 
REMARK       I    between atoms: C_30  and  N_31 
REMARK    7  A    between atoms: N_31  and  C_32 
ROOT
HETATM    1  N   UNL     1      41.808 -13.931   4.217  1.00  0.00    -0.290 N 
HETATM    2  C   UNL     1      41.348 -14.517   3.049  1.00  0.00     0.332 C 
HETATM    3  O   UNL     1      42.003 -15.405   2.498  1.00  0.00    -0.246 OA
HETATM    4  N   UNL     1      40.139 -14.060   2.553  1.00  0.00    -0.261 N 
HETATM    5  C   UNL     1      39.485 -12.924   3.002  1.00  0.00     0.264 C 
HETATM    6  O   UNL     1      38.427 -12.508   2.537  1.00  0.00    -0.267 OA
HETATM    7  C   UNL     1      40.111 -12.197   4.120  1.00  0.00     0.059 A 
HETATM    8  C   UNL     1      41.249 -12.731   4.727  1.00  0.00     0.056 A 
HETATM    9  C   UNL     1      39.523 -11.012   4.589  1.00  0.00     0.020 A 
HETATM   10  C   UNL     1      40.071 -10.346   5.684  1.00  0.00     0.018 A 
HETATM   11  C   UNL     1      41.206 -10.869   6.309  1.00  0.00     0.034 A 
HETATM   12  C   UNL     1      41.800 -12.047   5.818  1.00  0.00     0.048 A 
ENDROOT
BRANCH   1  13
HETATM   13  C   UNL     1      42.818 -14.668   4.984  1.00  0.00     0.237 C 
BRANCH  13  14
HETATM   14  C   UNL     1      42.744 -16.192   4.894  1.00  0.00     0.240 C 
HETATM   15  N   UNL     1      43.781 -16.762   4.178  1.00  0.00    -0.326 N 
HETATM   16  H   UNL     1      44.502 -16.126   3.843  1.00  0.00     0.169 HD
HETATM   17  O   UNL     1      41.759 -16.775   5.339  1.00  0.00    -0.271 OA
BRANCH  15  18
HETATM   18  C   UNL     1      43.903 -18.110   3.780  1.00  0.00     0.034 A 
HETATM   19  C   UNL     1      43.517 -18.592   2.529  1.00  0.00     0.030 A 
HETATM   20  C   UNL     1      43.712 -19.936   2.189  1.00  0.00     0.009 A 
HETATM   21  C   UNL     1      44.298 -20.822   3.097  1.00  0.00    -0.062 A 
HETATM   22  C   UNL     1      44.482 -22.265   2.734  1.00  0.00     0.048 C 
HETATM   23  C   UNL     1      44.657 -20.349   4.363  1.00  0.00     0.009 A 
HETATM   24  C   UNL     1      44.471 -19.002   4.696  1.00  0.00     0.030 A 
ENDBRANCH  15  18
ENDBRANCH  13  14
ENDBRANCH   1  13
BRANCH   4  25
HETATM   25  C   UNL     1      39.466 -14.890   1.560  1.00  0.00     0.175 C 
BRANCH  25  26
HETATM   26  C   UNL     1      39.696 -14.325   0.168  1.00  0.00    -0.037 A 
HETATM   27  C   UNL     1      41.003 -14.143  -0.317  1.00  0.00     0.048 A 
HETATM   28  C   UNL     1      41.163 -13.510  -1.532  1.00  0.00     0.105 A 
HETATM   29  C   UNL     1      40.089 -13.071  -2.270  1.00  0.00     0.105 A 
HETATM   30  O   UNL     1      42.352 -13.221  -2.127  1.00  0.00    -0.323 OA
HETATM   31  O   UNL     1      40.467 -12.453  -3.420  1.00  0.00    -0.323 OA
HETATM   32  C   UNL     1      38.794 -13.247  -1.839  1.00  0.00     0.040 A 
HETATM   33  C   UNL     1      41.903 -12.533  -3.313  1.00  0.00     0.352 A 
HETATM   34  C   UNL     1      38.598 -13.876  -0.606  1.00  0.00     0.012 A 
ENDBRANCH  25  26
ENDBRANCH   4  25
BRANCH  11  35
HETATM   35  C   UNL     1      41.836 -10.208   7.481  1.00  0.00     0.252 C 
HETATM   36  N   UNL     1      42.511 -11.038   8.346  1.00  0.00    -0.352 N 
HETATM   37  H   UNL     1      42.645 -11.997   8.056  1.00  0.00     0.163 HD
HETATM   38  O   UNL     1      41.754  -8.995   7.582  1.00  0.00    -0.268 OA
BRANCH  36  39
HETATM   39  C   UNL     1      43.330 -10.616   9.484  1.00  0.00     0.084 C 
HETATM   40  C   UNL     1      42.497 -10.234  10.715  1.00  0.00     0.025 C 
HETATM   41  C   UNL     1      42.249 -11.377  11.691  1.00  0.00     0.002 C 
HETATM   42  C   UNL     1      43.545 -12.081  12.070  1.00  0.00     0.000 C 
HETATM   43  C   UNL     1      44.286 -12.606  10.848  1.00  0.00     0.002 C 
HETATM   44  C   UNL     1      44.527 -11.528   9.795  1.00  0.00     0.025 C 
ENDBRANCH  36  39
ENDBRANCH  11  35
TORSDOF 7
ENDMDL
MODEL 5
REMARK VINA RESULT:      -8.7      4.319      8.164
REMARK  7 active torsions:
REMARK  status: ('A' for Active; 'I' for Inactive)
REMARK    1  A    between atoms: C_5  and  N_6 
REMARK       I    between atoms: N_6  and  C_7 
REMARK    2  A    between atoms: C_7  and  C_8 
REMARK    3  A    between atoms: C_8  and  N_9 
REMARK    4  A    between atoms: N_12  and  C_13 
REMARK    5  A    between atoms: C_13  and  C_14 
REMARK    6  A    between atoms: C_29  and  C_30 
REMARK       I    between atoms: C_30  and  N_31 
REMARK    7  A    between atoms: N_31  and  C_32 
ROOT
HETATM    1  N   UNL     1      40.377 -11.644   1.616  1.00  0.00    -0.290 N 
HETATM    2  C   UNL     1      41.074 -12.577   0.866  1.00  0.00     0.332 C 
HETATM    3  O   UNL     1      42.308 -12.569   0.851  1.00  0.00    -0.246 OA
HETATM    4  N   UNL     1      40.322 -13.498   0.155  1.00  0.00    -0.261 N 
HETATM    5  C   UNL     1      38.953 -13.410  -0.041  1.00  0.00     0.264 C 
HETATM    6  O   UNL     1      38.297 -14.214  -0.697  1.00  0.00    -0.267 OA
HETATM    7  C   UNL     1      38.264 -12.280   0.604  1.00  0.00     0.059 A 
HETATM    8  C   UNL     1      38.985 -11.432   1.446  1.00  0.00     0.056 A 
HETATM    9  C   UNL     1      36.884 -12.108   0.405  1.00  0.00     0.020 A 
HETATM   10  C   UNL     1      36.207 -11.077   1.057  1.00  0.00     0.018 A 
HETATM   11  C   UNL     1      36.912 -10.223   1.908  1.00  0.00     0.034 A 
HETATM   12  C   UNL     1      38.298 -10.391   2.085  1.00  0.00     0.048 A 
ENDROOT
BRANCH   1  13
HETATM   13  C   UNL     1      41.110 -10.966   2.690  1.00  0.00     0.237 C 
BRANCH  13  14
HETATM   14  C   UNL     1      41.352 -11.787   3.956  1.00  0.00     0.240 C 
HETATM   15  N   UNL     1      41.767 -13.084   3.712  1.00  0.00    -0.326 N 
HETATM   16  H   UNL     1      41.924 -13.332   2.737  1.00  0.00     0.169 HD
HETATM   17  O   UNL     1      41.064 -11.308   5.050  1.00  0.00    -0.271 OA
BRANCH  15  18
HETATM   18  C   UNL     1      41.909 -14.126   4.652  1.00  0.00     0.034 A 
HETATM   19  C   UNL     1      40.837 -14.758   5.283  1.00  0.00     0.030 A 
HETATM   20  C   UNL     1      41.056 -15.817   6.172  1.00  0.00     0.009 A 
HETATM   21  C   UNL     1      42.351 -16.263   6.444  1.00  0.00    -0.062 A 
HETATM   22  C   UNL     1      42.578 -17.383   7.415  1.00  0.00     0.048 C 
HETATM   23  C   UNL     1      43.429 -15.612   5.837  1.00  0.00     0.009 A 
HETATM   24  C   UNL     1      43.208 -14.560   4.940  1.00  0.00     0.030 A 
ENDBRANCH  15  18
ENDBRANCH  13  14
ENDBRANCH   1  13
BRANCH   4  25
HETATM   25  C   UNL     1      41.009 -14.689  -0.332  1.00  0.00     0.175 C 
BRANCH  25  26
HETATM   26  C   UNL     1      41.352 -15.604   0.831  1.00  0.00    -0.037 A 
HETATM   27  C   UNL     1      42.685 -15.989   1.061  1.00  0.00     0.048 A 
HETATM   28  C   UNL     1      42.932 -16.920   2.049  1.00  0.00     0.105 A 
HETATM   29  C   UNL     1      41.920 -17.460   2.806  1.00  0.00     0.105 A 
HETATM   30  O   UNL     1      44.150 -17.428   2.374  1.00  0.00    -0.323 OA
HETATM   31  O   UNL     1      42.375 -18.375   3.703  1.00  0.00    -0.323 OA
HETATM   32  C   UNL     1      40.605 -17.096   2.625  1.00  0.00     0.040 A 
HETATM   33  C   UNL     1      43.787 -18.365   3.410  1.00  0.00     0.352 A 
HETATM   34  C   UNL     1      40.321 -16.162   1.625  1.00  0.00     0.012 A 
ENDBRANCH  25  26
ENDBRANCH   4  25
BRANCH  11  35
HETATM   35  C   UNL     1      36.248  -9.109   2.633  1.00  0.00     0.252 C 
HETATM   36  N   UNL     1      34.899  -9.260   2.860  1.00  0.00    -0.352 N 
HETATM   37  H   UNL     1      34.494 -10.160   2.644  1.00  0.00     0.163 HD
HETATM   38  O   UNL     1      36.929  -8.170   3.012  1.00  0.00    -0.268 OA
BRANCH  36  39
HETATM   39  C   UNL     1      34.057  -8.379   3.671  1.00  0.00     0.084 C 
HETATM   40  C   UNL     1      32.705  -8.071   3.017  1.00  0.00     0.025 C 
HETATM   41  C   UNL     1      31.580  -9.023   3.406  1.00  0.00     0.002 C 
HETATM   42  C   UNL     1      31.468  -9.167   4.918  1.00  0.00     0.000 C 
HETATM   43  C   UNL     1      32.774  -9.637   5.544  1.00  0.00     0.002 C 
HETATM   44  C   UNL     1      33.963  -8.761   5.157  1.00  0.00     0.025 C 
ENDBRANCH  36  39
ENDBRANCH  11  35
TORSDOF 7
ENDMDL
MODEL 6
REMARK VINA RESULT:      -8.6      2.852      6.982
REMARK  7 active torsions:
REMARK  status: ('A' for Active; 'I' for Inactive)
REMARK    1  A    between atoms: C_5  and  N_6 
REMARK       I    between atoms: N_6  and  C_7 
REMARK    2  A    between atoms: C_7  and  C_8 
REMARK    3  A    between atoms: C_8  and  N_9 
REMARK    4  A    between atoms: N_12  and  C_13 
REMARK    5  A    between atoms: C_13  and  C_14 
REMARK    6  A    between atoms: C_29  and  C_30 
REMARK       I    between atoms: C_30  and  N_31 
REMARK    7  A    between atoms: N_31  and  C_32 
ROOT
HETATM    1  N   UNL     1      40.859 -14.423   1.495  1.00  0.00    -0.290 N 
HETATM    2  C   UNL     1      41.513 -14.611   0.289  1.00  0.00     0.332 C 
HETATM    3  O   UNL     1      41.883 -15.739  -0.050  1.00  0.00    -0.246 OA
HETATM    4  N   UNL     1      41.718 -13.489  -0.495  1.00  0.00    -0.261 N 
HETATM    5  C   UNL     1      41.529 -12.185  -0.065  1.00  0.00     0.264 C 
HETATM    6  O   UNL     1      41.741 -11.192  -0.756  1.00  0.00    -0.267 OA
HETATM    7  C   UNL     1      41.025 -12.008   1.308  1.00  0.00     0.059 A 
HETATM    8  C   UNL     1      40.672 -13.133   2.055  1.00  0.00     0.056 A 
HETATM    9  C   UNL     1      40.857 -10.711   1.820  1.00  0.00     0.020 A 
HETATM   10  C   UNL     1      40.325 -10.528   3.096  1.00  0.00     0.018 A 
HETATM   11  C   UNL     1      39.960 -11.642   3.854  1.00  0.00     0.034 A 
HETATM   12  C   UNL     1      40.151 -12.938   3.341  1.00  0.00     0.048 A 
ENDROOT
BRANCH   1  13
HETATM   13  C   UNL     1      40.251 -15.603   2.119  1.00  0.00     0.237 C 
BRANCH  13  14
HETATM   14  C   UNL     1      41.147 -16.390   3.074  1.00  0.00     0.240 C 
HETATM   15  N   UNL     1      42.003 -17.273   2.440  1.00  0.00    -0.326 N 
HETATM   16  H   UNL     1      41.988 -17.263   1.422  1.00  0.00     0.169 HD
HETATM   17  O   UNL     1      40.979 -16.281   4.286  1.00  0.00    -0.271 OA
BRANCH  15  18
HETATM   18  C   UNL     1      42.823 -18.248   3.044  1.00  0.00     0.034 A 
HETATM   19  C   UNL     1      43.216 -18.216   4.383  1.00  0.00     0.030 A 
HETATM   20  C   UNL     1      43.995 -19.247   4.923  1.00  0.00     0.009 A 
HETATM   21  C   UNL     1      44.394 -20.327   4.133  1.00  0.00    -0.062 A 
HETATM   22  C   UNL     1      45.248 -21.415   4.714  1.00  0.00     0.048 C 
HETATM   23  C   UNL     1      44.028 -20.346   2.784  1.00  0.00     0.009 A 
HETATM   24  C   UNL     1      43.240 -19.321   2.248  1.00  0.00     0.030 A 
ENDBRANCH  15  18
ENDBRANCH  13  14
ENDBRANCH   1  13
BRANCH   4  25
HETATM   25  C   UNL     1      42.061 -13.704  -1.897  1.00  0.00     0.175 C 
BRANCH  25  26
HETATM   26  C   UNL     1      40.834 -14.161  -2.667  1.00  0.00    -0.037 A 
HETATM   27  C   UNL     1      39.734 -13.300  -2.826  1.00  0.00     0.048 A 
HETATM   28  C   UNL     1      38.595 -13.802  -3.422  1.00  0.00     0.105 A 
HETATM   29  C   UNL     1      38.520 -15.101  -3.865  1.00  0.00     0.105 A 
HETATM   30  O   UNL     1      37.435 -13.120  -3.618  1.00  0.00    -0.323 OA
HETATM   31  O   UNL     1      37.304 -15.399  -4.396  1.00  0.00    -0.323 OA
HETATM   32  C   UNL     1      39.580 -15.970  -3.745  1.00  0.00     0.040 A 
HETATM   33  C   UNL     1      36.615 -14.145  -4.217  1.00  0.00     0.352 A 
HETATM   34  C   UNL     1      40.746 -15.494  -3.137  1.00  0.00     0.012 A 
ENDBRANCH  25  26
ENDBRANCH   4  25
BRANCH  11  35
HETATM   35  C   UNL     1      39.385 -11.512   5.219  1.00  0.00     0.252 C 
HETATM   36  N   UNL     1      39.995 -10.594   6.042  1.00  0.00    -0.352 N 
HETATM   37  H   UNL     1      40.687  -9.988   5.624  1.00  0.00     0.163 HD
HETATM   38  O   UNL     1      38.404 -12.180   5.506  1.00  0.00    -0.268 OA
BRANCH  36  39
HETATM   39  C   UNL     1      39.530 -10.182   7.367  1.00  0.00     0.084 C 
HETATM   40  C   UNL     1      40.268 -10.889   8.510  1.00  0.00     0.025 C 
HETATM   41  C   UNL     1      41.494 -10.147   9.030  1.00  0.00     0.002 C 
HETATM   42  C   UNL     1      41.169  -8.697   9.366  1.00  0.00     0.000 C 
HETATM   43  C   UNL     1      40.589  -7.952   8.171  1.00  0.00     0.002 C 
HETATM   44  C   UNL     1      39.384  -8.664   7.559  1.00  0.00     0.025 C 
ENDBRANCH  36  39
ENDBRANCH  11  35
TORSDOF 7
ENDMDL
MODEL 7
REMARK VINA RESULT:      -8.4      2.986      6.902
REMARK  7 active torsions:
REMARK  status: ('A' for Active; 'I' for Inactive)
REMARK    1  A    between atoms: C_5  and  N_6 
REMARK       I    between atoms: N_6  and  C_7 
REMARK    2  A    between atoms: C_7  and  C_8 
REMARK    3  A    between atoms: C_8  and  N_9 
REMARK    4  A    between atoms: N_12  and  C_13 
REMARK    5  A    between atoms: C_13  and  C_14 
REMARK    6  A    between atoms: C_29  and  C_30 
REMARK       I    between atoms: C_30  and  N_31 
REMARK    7  A    between atoms: N_31  and  C_32 
ROOT
HETATM    1  N   UNL     1      41.615 -12.089   1.918  1.00  0.00    -0.290 N 
HETATM    2  C   UNL     1      41.669 -11.708   0.587  1.00  0.00     0.332 C 
HETATM    3  O   UNL     1      42.712 -11.844  -0.059  1.00  0.00    -0.246 OA
HETATM    4  N   UNL     1      40.512 -11.181   0.039  1.00  0.00    -0.261 N 
HETATM    5  C   UNL     1      39.399 -10.801   0.770  1.00  0.00     0.264 C 
HETATM    6  O   UNL     1      38.386 -10.308   0.281  1.00  0.00    -0.267 OA
HETATM    7  C   UNL     1      39.452 -11.030   2.224  1.00  0.00     0.059 A 
HETATM    8  C   UNL     1      40.551 -11.697   2.769  1.00  0.00     0.056 A 
HETATM    9  C   UNL     1      38.375 -10.623   3.028  1.00  0.00     0.020 A 
HETATM   10  C   UNL     1      38.386 -10.886   4.397  1.00  0.00     0.018 A 
HETATM   11  C   UNL     1      39.474 -11.559   4.958  1.00  0.00     0.034 A 
HETATM   12  C   UNL     1      40.558 -11.944   4.148  1.00  0.00     0.048 A 
ENDROOT
BRANCH   1  13
HETATM   13  C   UNL     1      42.642 -13.025   2.388  1.00  0.00     0.237 C 
BRANCH  13  14
HETATM   14  C   UNL     1      42.334 -14.509   2.188  1.00  0.00     0.240 C 
HETATM   15  N   UNL     1      43.328 -15.354   2.651  1.00  0.00    -0.326 N 
HETATM   16  H   UNL     1      44.115 -14.910   3.120  1.00  0.00     0.169 HD
HETATM   17  O   UNL     1      41.333 -14.838   1.558  1.00  0.00    -0.271 OA
BRANCH  15  18
HETATM   18  C   UNL     1      43.416 -16.749   2.463  1.00  0.00     0.034 A 
HETATM   19  C   UNL     1      43.613 -17.358   1.224  1.00  0.00     0.030 A 
HETATM   20  C   UNL     1      43.737 -18.749   1.123  1.00  0.00     0.009 A 
HETATM   21  C   UNL     1      43.667 -19.555   2.263  1.00  0.00    -0.062 A 
HETATM   22  C   UNL     1      43.777 -21.046   2.143  1.00  0.00     0.048 C 
HETATM   23  C   UNL     1      43.438 -18.950   3.502  1.00  0.00     0.009 A 
HETATM   24  C   UNL     1      43.326 -17.558   3.602  1.00  0.00     0.030 A 
ENDBRANCH  15  18
ENDBRANCH  13  14
ENDBRANCH   1  13
BRANCH   4  25
HETATM   25  C   UNL     1      40.429 -11.119  -1.417  1.00  0.00     0.175 C 
BRANCH  25  26
HETATM   26  C   UNL     1      39.742 -12.363  -1.952  1.00  0.00    -0.037 A 
HETATM   27  C   UNL     1      40.504 -13.443  -2.432  1.00  0.00     0.048 A 
HETATM   28  C   UNL     1      39.838 -14.496  -3.025  1.00  0.00     0.105 A 
HETATM   29  C   UNL     1      38.469 -14.515  -3.144  1.00  0.00     0.105 A 
HETATM   30  O   UNL     1      40.421 -15.596  -3.573  1.00  0.00    -0.323 OA
HETATM   31  O   UNL     1      38.019 -15.629  -3.780  1.00  0.00    -0.323 OA
HETATM   32  C   UNL     1      37.686 -13.487  -2.671  1.00  0.00     0.040 A 
HETATM   33  C   UNL     1      39.263 -16.300  -4.068  1.00  0.00     0.352 A 
HETATM   34  C   UNL     1      38.331 -12.400  -2.073  1.00  0.00     0.012 A 
ENDBRANCH  25  26
ENDBRANCH   4  25
BRANCH  11  35
HETATM   35  C   UNL     1      39.544 -11.872   6.409  1.00  0.00     0.252 C 
HETATM   36  N   UNL     1      39.806 -10.807   7.240  1.00  0.00    -0.352 N 
HETATM   37  H   UNL     1      39.795  -9.885   6.827  1.00  0.00     0.163 HD
HETATM   38  O   UNL     1      39.328 -13.017   6.771  1.00  0.00    -0.268 OA
BRANCH  36  39
HETATM   39  C   UNL     1      39.782 -10.830   8.704  1.00  0.00     0.084 C 
HETATM   40  C   UNL     1      41.137 -10.486   9.334  1.00  0.00     0.025 C 
HETATM   41  C   UNL     1      41.333  -9.008   9.650  1.00  0.00     0.002 C 
HETATM   42  C   UNL     1      40.168  -8.448  10.454  1.00  0.00     0.000 C 
HETATM   43  C   UNL     1      38.837  -8.646   9.741  1.00  0.00     0.002 C 
HETATM   44  C   UNL     1      38.590 -10.099   9.343  1.00  0.00     0.025 C 
ENDBRANCH  36  39
ENDBRANCH  11  35
TORSDOF 7
ENDMDL
MODEL 8
REMARK VINA RESULT:      -8.3      3.020     10.466
REMARK  7 active torsions:
REMARK  status: ('A' for Active; 'I' for Inactive)
REMARK    1  A    between atoms: C_5  and  N_6 
REMARK       I    between atoms: N_6  and  C_7 
REMARK    2  A    between atoms: C_7  and  C_8 
REMARK    3  A    between atoms: C_8  and  N_9 
REMARK    4  A    between atoms: N_12  and  C_13 
REMARK    5  A    between atoms: C_13  and  C_14 
REMARK    6  A    between atoms: C_29  and  C_30 
REMARK       I    between atoms: C_30  and  N_31 
REMARK    7  A    between atoms: N_31  and  C_32 
ROOT
HETATM    1  N   UNL     1      41.037 -13.909   3.793  1.00  0.00    -0.290 N 
HETATM    2  C   UNL     1      40.677 -13.966   5.130  1.00  0.00     0.332 C 
HETATM    3  O   UNL     1      41.149 -14.837   5.866  1.00  0.00    -0.246 OA
HETATM    4  N   UNL     1      39.781 -13.011   5.579  1.00  0.00    -0.261 N 
HETATM    5  C   UNL     1      39.057 -12.164   4.755  1.00  0.00     0.264 C 
HETATM    6  O   UNL     1      38.242 -11.338   5.159  1.00  0.00    -0.267 OA
HETATM    7  C   UNL     1      39.312 -12.270   3.309  1.00  0.00     0.059 A 
HETATM    8  C   UNL     1      40.320 -13.123   2.855  1.00  0.00     0.056 A 
HETATM    9  C   UNL     1      38.576 -11.473   2.417  1.00  0.00     0.020 A 
HETATM   10  C   UNL     1      38.848 -11.520   1.050  1.00  0.00     0.018 A 
HETATM   11  C   UNL     1      39.858 -12.362   0.580  1.00  0.00     0.034 A 
HETATM   12  C   UNL     1      40.576 -13.173   1.478  1.00  0.00     0.048 A 
ENDROOT
BRANCH   1  13
HETATM   13  C   UNL     1      42.272 -14.596   3.403  1.00  0.00     0.237 C 
BRANCH  13  14
HETATM   14  C   UNL     1      42.160 -16.106   3.196  1.00  0.00     0.240 C 
HETATM   15  N   UNL     1      43.331 -16.795   3.457  1.00  0.00    -0.326 N 
HETATM   16  H   UNL     1      44.111 -16.243   3.810  1.00  0.00     0.169 HD
HETATM   17  O   UNL     1      41.128 -16.575   2.724  1.00  0.00    -0.271 OA
BRANCH  15  18
HETATM   18  C   UNL     1      43.594 -18.157   3.202  1.00  0.00     0.034 A 
HETATM   19  C   UNL     1      43.267 -18.805   2.010  1.00  0.00     0.030 A 
HETATM   20  C   UNL     1      43.601 -20.150   1.813  1.00  0.00     0.009 A 
HETATM   21  C   UNL     1      44.270 -20.870   2.806  1.00  0.00    -0.062 A 
HETATM   22  C   UNL     1      44.604 -22.317   2.596  1.00  0.00     0.048 C 
HETATM   23  C   UNL     1      44.571 -20.233   4.013  1.00  0.00     0.009 A 
HETATM   24  C   UNL     1      44.245 -18.885   4.204  1.00  0.00     0.030 A 
ENDBRANCH  15  18
ENDBRANCH  13  14
ENDBRANCH   1  13
BRANCH   4  25
HETATM   25  C   UNL     1      39.672 -12.821   7.021  1.00  0.00     0.175 C 
BRANCH  25  26
HETATM   26  C   UNL     1      40.143 -11.426   7.399  1.00  0.00    -0.037 A 
HETATM   27  C   UNL     1      39.401 -10.649   8.307  1.00  0.00     0.048 A 
HETATM   28  C   UNL     1      39.798  -9.345   8.521  1.00  0.00     0.105 A 
HETATM   29  C   UNL     1      40.889  -8.804   7.884  1.00  0.00     0.105 A 
HETATM   30  O   UNL     1      39.174  -8.449   9.332  1.00  0.00    -0.323 OA
HETATM   31  O   UNL     1      41.090  -7.501   8.216  1.00  0.00    -0.323 OA
HETATM   32  C   UNL     1      41.652  -9.537   7.003  1.00  0.00     0.040 A 
HETATM   33  C   UNL     1      39.987  -7.276   9.118  1.00  0.00     0.352 A 
HETATM   34  C   UNL     1      41.271 -10.859   6.758  1.00  0.00     0.012 A 
ENDBRANCH  25  26
ENDBRANCH   4  25
BRANCH  11  35
HETATM   35  C   UNL     1      40.197 -12.455  -0.864  1.00  0.00     0.252 C 
HETATM   36  N   UNL     1      39.603 -13.486  -1.555  1.00  0.00    -0.352 N 
HETATM   37  H   UNL     1      38.886 -14.010  -1.074  1.00  0.00     0.163 HD
HETATM   38  O   UNL     1      40.931 -11.608  -1.348  1.00  0.00    -0.268 OA
BRANCH  36  39
HETATM   39  C   UNL     1      39.662 -13.701  -3.002  1.00  0.00     0.084 C 
HETATM   40  C   UNL     1      40.669 -14.783  -3.408  1.00  0.00     0.025 C 
HETATM   41  C   UNL     1      40.084 -16.186  -3.517  1.00  0.00     0.002 C 
HETATM   42  C   UNL     1      38.837 -16.205  -4.391  1.00  0.00     0.000 C 
HETATM   43  C   UNL     1      37.770 -15.245  -3.882  1.00  0.00     0.002 C 
HETATM   44  C   UNL     1      38.296 -13.823  -3.695  1.00  0.00     0.025 C 
ENDBRANCH  36  39
ENDBRANCH  11  35
TORSDOF 7
ENDMDL
MODEL 9
REMARK VINA RESULT:      -8.2      2.313      9.893
REMARK  7 active torsions:
REMARK  status: ('A' for Active; 'I' for Inactive)
REMARK    1  A    between atoms: C_5  and  N_6 
REMARK       I    between atoms: N_6  and  C_7 
REMARK    2  A    between atoms: C_7  and  C_8 
REMARK    3  A    between atoms: C_8  and  N_9 
REMARK    4  A    between atoms: N_12  and  C_13 
REMARK    5  A    between atoms: C_13  and  C_14 
REMARK    6  A    between atoms: C_29  and  C_30 
REMARK       I    between atoms: C_30  and  N_31 
REMARK    7  A    between atoms: N_31  and  C_32 
ROOT
HETATM    1  N   UNL     1      39.766 -12.789   5.895  1.00  0.00    -0.290 N 
HETATM    2  C   UNL     1      39.474 -12.019   7.009  1.00  0.00     0.332 C 
HETATM    3  O   UNL     1      38.909 -12.521   7.984  1.00  0.00    -0.246 OA
HETATM    4  N   UNL     1      39.848 -10.686   6.964  1.00  0.00    -0.261 N 
HETATM    5  C   UNL     1      40.272 -10.028   5.821  1.00  0.00     0.264 C 
HETATM    6  O   UNL     1      40.575  -8.838   5.782  1.00  0.00    -0.267 OA
HETATM    7  C   UNL     1      40.375 -10.834   4.592  1.00  0.00     0.059 A 
HETATM    8  C   UNL     1      40.147 -12.208   4.658  1.00  0.00     0.056 A 
HETATM    9  C   UNL     1      40.755 -10.215   3.390  1.00  0.00     0.020 A 
HETATM   10  C   UNL     1      40.913 -10.976   2.233  1.00  0.00     0.018 A 
HETATM   11  C   UNL     1      40.696 -12.354   2.282  1.00  0.00     0.034 A 
HETATM   12  C   UNL     1      40.296 -12.962   3.487  1.00  0.00     0.048 A 
ENDROOT
BRANCH   1  13
HETATM   13  C   UNL     1      39.789 -14.245   6.076  1.00  0.00     0.237 C 
BRANCH  13  14
HETATM   14  C   UNL     1      41.039 -14.961   5.567  1.00  0.00     0.240 C 
HETATM   15  N   UNL     1      40.772 -16.114   4.851  1.00  0.00    -0.326 N 
HETATM   16  H   UNL     1      39.790 -16.327   4.690  1.00  0.00     0.169 HD
HETATM   17  O   UNL     1      42.148 -14.554   5.907  1.00  0.00    -0.271 OA
BRANCH  15  18
HETATM   18  C   UNL     1      41.703 -17.073   4.400  1.00  0.00     0.034 A 
HETATM   19  C   UNL     1      42.423 -17.918   5.245  1.00  0.00     0.030 A 
HETATM   20  C   UNL     1      43.297 -18.878   4.720  1.00  0.00     0.009 A 
HETATM   21  C   UNL     1      43.464 -19.009   3.339  1.00  0.00    -0.062 A 
HETATM   22  C   UNL     1      44.419 -20.024   2.785  1.00  0.00     0.048 C 
HETATM   23  C   UNL     1      42.768 -18.143   2.491  1.00  0.00     0.009 A 
HETATM   24  C   UNL     1      41.887 -17.190   3.017  1.00  0.00     0.030 A 
ENDBRANCH  15  18
ENDBRANCH  13  14
ENDBRANCH   1  13
BRANCH   4  25
HETATM   25  C   UNL     1      39.889  -9.959   8.228  1.00  0.00     0.175 C 
BRANCH  25  26
HETATM   26  C   UNL     1      41.100 -10.392   9.037  1.00  0.00    -0.037 A 
HETATM   27  C   UNL     1      42.345 -10.574   8.409  1.00  0.00     0.048 A 
HETATM   28  C   UNL     1      43.382 -11.089   9.158  1.00  0.00     0.105 A 
HETATM   29  C   UNL     1      43.229 -11.413  10.485  1.00  0.00     0.105 A 
HETATM   30  O   UNL     1      44.634 -11.361   8.701  1.00  0.00    -0.323 OA
HETATM   31  O   UNL     1      44.363 -11.928  11.029  1.00  0.00    -0.323 OA
HETATM   32  C   UNL     1      42.032 -11.233  11.141  1.00  0.00     0.040 A 
HETATM   33  C   UNL     1      45.244 -11.912   9.887  1.00  0.00     0.352 A 
HETATM   34  C   UNL     1      40.959 -10.722  10.407  1.00  0.00     0.012 A 
ENDBRANCH  25  26
ENDBRANCH   4  25
BRANCH  11  35
HETATM   35  C   UNL     1      40.851 -13.220   1.084  1.00  0.00     0.252 C 
HETATM   36  N   UNL     1      41.188 -12.574  -0.083  1.00  0.00    -0.352 N 
HETATM   37  H   UNL     1      41.435 -11.597  -0.015  1.00  0.00     0.163 HD
HETATM   38  O   UNL     1      40.717 -14.426   1.213  1.00  0.00    -0.268 OA
BRANCH  36  39
HETATM   39  C   UNL     1      41.537 -13.214  -1.353  1.00  0.00     0.084 C 
HETATM   40  C   UNL     1      40.321 -13.464  -2.254  1.00  0.00     0.025 C 
HETATM   41  C   UNL     1      40.020 -12.340  -3.238  1.00  0.00     0.002 C 
HETATM   42  C   UNL     1      41.256 -11.948  -4.036  1.00  0.00     0.000 C 
HETATM   43  C   UNL     1      42.411 -11.539  -3.132  1.00  0.00     0.002 C 
HETATM   44  C   UNL     1      42.741 -12.595  -2.080  1.00  0.00     0.025 C 
ENDBRANCH  36  39
ENDBRANCH  11  35
TORSDOF 7
ENDMDL
MODEL 10
REMARK VINA RESULT:      -8.2      2.352      9.609
REMARK  7 active torsions:
REMARK  status: ('A' for Active; 'I' for Inactive)
REMARK    1  A    between atoms: C_5  and  N_6 
REMARK       I    between atoms: N_6  and  C_7 
REMARK    2  A    between atoms: C_7  and  C_8 
REMARK    3  A    between atoms: C_8  and  N_9 
REMARK    4  A    between atoms: N_12  and  C_13 
REMARK    5  A    between atoms: C_13  and  C_14 
REMARK    6  A    between atoms: C_29  and  C_30 
REMARK       I    between atoms: C_30  and  N_31 
REMARK    7  A    between atoms: N_31  and  C_32 
ROOT
HETATM    1  N   UNL     1      39.532 -11.642   6.650  1.00  0.00    -0.290 N 
HETATM    2  C   UNL     1      39.500 -11.316   7.996  1.00  0.00     0.332 C 
HETATM    3  O   UNL     1      39.055 -12.119   8.821  1.00  0.00    -0.246 OA
HETATM    4  N   UNL     1      39.987 -10.070   8.352  1.00  0.00    -0.261 N 
HETATM    5  C   UNL     1      40.281  -9.057   7.453  1.00  0.00     0.264 C 
HETATM    6  O   UNL     1      40.686  -7.943   7.777  1.00  0.00    -0.267 OA
HETATM    7  C   UNL     1      40.107  -9.367   6.024  1.00  0.00     0.059 A 
HETATM    8  C   UNL     1      39.761 -10.665   5.647  1.00  0.00     0.056 A 
HETATM    9  C   UNL     1      40.343  -8.368   5.066  1.00  0.00     0.020 A 
HETATM   10  C   UNL     1      40.239  -8.664   3.708  1.00  0.00     0.018 A 
HETATM   11  C   UNL     1      39.901  -9.960   3.312  1.00  0.00     0.034 A 
HETATM   12  C   UNL     1      39.645 -10.949   4.279  1.00  0.00     0.048 A 
ENDROOT
BRANCH   1  13
HETATM   13  C   UNL     1      39.445 -13.064   6.302  1.00  0.00     0.237 C 
BRANCH  13  14
HETATM   14  C   UNL     1      40.677 -13.662   5.625  1.00  0.00     0.240 C 
HETATM   15  N   UNL     1      40.387 -14.418   4.503  1.00  0.00    -0.326 N 
HETATM   16  H   UNL     1      39.410 -14.447   4.218  1.00  0.00     0.169 HD
HETATM   17  O   UNL     1      41.777 -13.539   6.157  1.00  0.00    -0.271 OA
BRANCH  15  18
HETATM   18  C   UNL     1      41.277 -15.227   3.767  1.00  0.00     0.034 A 
HETATM   19  C   UNL     1      41.108 -16.599   3.576  1.00  0.00     0.030 A 
HETATM   20  C   UNL     1      42.011 -17.328   2.793  1.00  0.00     0.009 A 
HETATM   21  C   UNL     1      43.099 -16.696   2.186  1.00  0.00    -0.062 A 
HETATM   22  C   UNL     1      44.075 -17.488   1.367  1.00  0.00     0.048 C 
HETATM   23  C   UNL     1      43.289 -15.328   2.400  1.00  0.00     0.009 A 
HETATM   24  C   UNL     1      42.379 -14.598   3.175  1.00  0.00     0.030 A 
ENDBRANCH  15  18
ENDBRANCH  13  14
ENDBRANCH   1  13
BRANCH   4  25
HETATM   25  C   UNL     1      40.302  -9.850   9.759  1.00  0.00     0.175 C 
BRANCH  25  26
HETATM   26  C   UNL     1      41.655 -10.458  10.089  1.00  0.00    -0.037 A 
HETATM   27  C   UNL     1      42.633 -10.599   9.089  1.00  0.00     0.048 A 
HETATM   28  C   UNL     1      43.795 -11.270   9.406  1.00  0.00     0.105 A 
HETATM   29  C   UNL     1      44.017 -11.785  10.661  1.00  0.00     0.105 A 
HETATM   30  O   UNL     1      44.822 -11.528   8.552  1.00  0.00    -0.323 OA
HETATM   31  O   UNL     1      45.211 -12.429  10.755  1.00  0.00    -0.323 OA
HETATM   32  C   UNL     1      43.094 -11.651  11.673  1.00  0.00     0.040 A 
HETATM   33  C   UNL     1      45.706 -12.281   9.408  1.00  0.00     0.352 A 
HETATM   34  C   UNL     1      41.901 -10.984  11.381  1.00  0.00     0.012 A 
ENDBRANCH  25  26
ENDBRANCH   4  25
BRANCH  11  35
HETATM   35  C   UNL     1      39.777 -10.339   1.880  1.00  0.00     0.252 C 
HETATM   36  N   UNL     1      39.949 -11.674   1.596  1.00  0.00    -0.352 N 
HETATM   37  H   UNL     1      40.008 -12.308   2.380  1.00  0.00     0.163 HD
HETATM   38  O   UNL     1      39.496  -9.473   1.068  1.00  0.00    -0.268 OA
BRANCH  36  39
HETATM   39  C   UNL     1      39.735 -12.314   0.297  1.00  0.00     0.084 C 
HETATM   40  C   UNL     1      40.961 -12.237  -0.621  1.00  0.00     0.025 C 
HETATM   41  C   UNL     1      41.907 -13.427  -0.517  1.00  0.00     0.002 C 
HETATM   42  C   UNL     1      41.163 -14.747  -0.664  1.00  0.00     0.000 C 
HETATM   43  C   UNL     1      40.048 -14.890   0.364  1.00  0.00     0.002 C 
HETATM   44  C   UNL     1      39.085 -13.705   0.359  1.00  0.00     0.025 C 
ENDBRANCH  36  39
ENDBRANCH  11  35
TORSDOF 7
ENDMDL
