MODEL 1
REMARK VINA RESULT:     -10.1      0.000      0.000
REMARK  7 active torsions:
REMARK  status: ('A' for Active; 'I' for Inactive)
REMARK    1  A    between atoms: C_2  and  C_3 
REMARK    2  A    between atoms: C_6  and  C_7 
REMARK    3  A    between atoms: C_10  and  C_11 
REMARK       I    between atoms: C_11  and  N_12 
REMARK    4  A    between atoms: N_12  and  C_13 
REMARK    5  A    between atoms: C_25  and  C_26 
REMARK       I    between atoms: C_26  and  N_27 
REMARK    6  A    between atoms: N_27  and  C_28 
REMARK    7  A    between atoms: C_31  and  O_32 
ROOT
HETATM    1  C   UNL     1      43.610 -14.485   5.543  1.00  0.00     0.185 C 
HETATM    2  N   UNL     1      44.188 -13.758   6.687  1.00  0.00    -0.239 N 
HETATM    3  C   UNL     1      43.519 -12.794   7.405  1.00  0.00     0.142 C 
HETATM    4  C   UNL     1      44.401 -12.358   8.373  1.00  0.00     0.097 C 
HETATM    5  C   UNL     1      45.614 -13.019   8.046  1.00  0.00     0.160 C 
HETATM    6  N   UNL     1      45.499 -13.845   7.001  1.00  0.00    -0.181 NA
HETATM    7  N   UNL     1      42.258 -12.452   7.038  1.00  0.00    -0.343 N 
HETATM    8  C   UNL     1      41.648 -12.955   5.886  1.00  0.00     0.021 C 
HETATM    9  C   UNL     1      40.310 -12.347   5.532  1.00  0.00     0.069 C 
HETATM   10  C   UNL     1      42.263 -13.907   5.144  1.00  0.00     0.061 C 
HETATM   11  H   UNL     1      41.816 -11.613   7.416  1.00  0.00     0.167 HD
ENDROOT
BRANCH  10  12
HETATM   12  C   UNL     1      41.599 -14.489   3.945  1.00  0.00     0.256 C 
HETATM   13  N   UNL     1      42.262 -14.207   2.768  1.00  0.00    -0.323 N 
HETATM   14  H   UNL     1      43.088 -13.627   2.817  1.00  0.00     0.169 HD
HETATM   15  O   UNL     1      40.560 -15.124   4.079  1.00  0.00    -0.267 OA
BRANCH  13  16
HETATM   16  C   UNL     1      41.895 -14.604   1.464  1.00  0.00     0.035 A 
HETATM   17  C   UNL     1      41.890 -15.926   1.019  1.00  0.00     0.032 A 
HETATM   18  C   UNL     1      41.478 -16.231  -0.285  1.00  0.00     0.039 A 
HETATM   19  C   UNL     1      41.066 -15.225  -1.159  1.00  0.00     0.068 A 
HETATM   20  C   UNL     1      41.097 -13.901  -0.730  1.00  0.00     0.039 A 
HETATM   21  C   UNL     1      41.505 -13.595   0.575  1.00  0.00     0.032 A 
BRANCH  19  22
HETATM   22  O   UNL     1      40.671 -15.658  -2.394  1.00  0.00    -0.356 OA
HETATM   23  C   UNL     1      40.343 -14.652  -3.344  1.00  0.00     0.210 C 
ENDBRANCH  19  22
ENDBRANCH  13  16
ENDBRANCH  10  12
BRANCH   1  24
HETATM   24  C   UNL     1      43.595 -15.984   5.829  1.00  0.00    -0.029 A 
HETATM   25  C   UNL     1      43.892 -16.938   4.844  1.00  0.00     0.010 A 
HETATM   26  C   UNL     1      43.871 -18.302   5.143  1.00  0.00     0.007 A 
HETATM   27  C   UNL     1      43.532 -18.747   6.426  1.00  0.00    -0.059 A 
HETATM   28  C   UNL     1      43.220 -17.801   7.408  1.00  0.00     0.007 A 
HETATM   29  C   UNL     1      43.247 -16.436   7.113  1.00  0.00     0.010 A 
BRANCH  27  30
HETATM   30  C   UNL     1      43.527 -20.217   6.753  1.00  0.00     0.034 C 
HETATM   31  C   UNL     1      44.353 -21.019   5.760  1.00  0.00     0.010 C 
ENDBRANCH  27  30
ENDBRANCH   1  24
BRANCH   4  32
HETATM   32  C   UNL     1      44.209 -11.401   9.448  1.00  0.00     0.261 C 
HETATM   33  N   UNL     1      43.401 -11.874  10.467  1.00  0.00    -0.323 N 
HETATM   34  H   UNL     1      43.148 -12.853  10.408  1.00  0.00     0.169 HD
HETATM   35  O   UNL     1      44.772 -10.313   9.418  1.00  0.00    -0.267 OA
BRANCH  33  36
HETATM   36  C   UNL     1      43.001 -11.193  11.634  1.00  0.00     0.035 A 
HETATM   37  C   UNL     1      43.774 -10.226  12.278  1.00  0.00     0.029 A 
HETATM   38  C   UNL     1      43.305  -9.597  13.436  1.00  0.00     0.002 A 
HETATM   39  C   UNL     1      42.055  -9.926  13.957  1.00  0.00     0.000 A 
HETATM   40  C   UNL     1      41.273 -10.883  13.317  1.00  0.00     0.002 A 
HETATM   41  C   UNL     1      41.742 -11.512  12.162  1.00  0.00     0.029 A 
ENDBRANCH  33  36
ENDBRANCH   4  32
TORSDOF 7
ENDMDL
MODEL 2
REMARK VINA RESULT:      -9.8      2.552      5.517
REMARK  7 active torsions:
REMARK  status: ('A' for Active; 'I' for Inactive)
REMARK    1  A    between atoms: C_2  and  C_3 
REMARK    2  A    between atoms: C_6  and  C_7 
REMARK    3  A    between atoms: C_10  and  C_11 
REMARK       I    between atoms: C_11  and  N_12 
REMARK    4  A    between atoms: N_12  and  C_13 
REMARK    5  A    between atoms: C_25  and  C_26 
REMARK       I    between atoms: C_26  and  N_27 
REMARK    6  A    between atoms: N_27  and  C_28 
REMARK    7  A    between atoms: C_31  and  O_32 
ROOT
HETATM    1  C   UNL     1      40.591 -14.630   4.579  1.00  0.00     0.185 C 
HETATM    2  N   UNL     1      40.495 -13.285   5.173  1.00  0.00    -0.239 N 
HETATM    3  C   UNL     1      41.362 -12.798   6.123  1.00  0.00     0.142 C 
HETATM    4  C   UNL     1      40.926 -11.521   6.419  1.00  0.00     0.097 C 
HETATM    5  C   UNL     1      39.708 -11.406   5.699  1.00  0.00     0.160 C 
HETATM    6  N   UNL     1      39.423 -12.488   4.968  1.00  0.00    -0.181 NA
HETATM    7  N   UNL     1      42.358 -13.597   6.582  1.00  0.00    -0.343 N 
HETATM    8  C   UNL     1      42.472 -14.940   6.215  1.00  0.00     0.021 C 
HETATM    9  C   UNL     1      43.535 -15.732   6.943  1.00  0.00     0.069 C 
HETATM   10  C   UNL     1      41.645 -15.469   5.281  1.00  0.00     0.061 C 
HETATM   11  H   UNL     1      42.885 -13.343   7.418  1.00  0.00     0.167 HD
ENDROOT
BRANCH  10  12
HETATM   12  C   UNL     1      41.793 -16.885   4.843  1.00  0.00     0.256 C 
HETATM   13  N   UNL     1      42.994 -17.134   4.213  1.00  0.00    -0.323 N 
HETATM   14  H   UNL     1      43.628 -16.360   4.079  1.00  0.00     0.169 HD
HETATM   15  O   UNL     1      40.881 -17.677   5.046  1.00  0.00    -0.267 OA
BRANCH  13  16
HETATM   16  C   UNL     1      43.439 -18.363   3.678  1.00  0.00     0.035 A 
HETATM   17  C   UNL     1      44.281 -19.250   4.348  1.00  0.00     0.032 A 
HETATM   18  C   UNL     1      44.646 -20.464   3.751  1.00  0.00     0.039 A 
HETATM   19  C   UNL     1      44.176 -20.809   2.484  1.00  0.00     0.068 A 
HETATM   20  C   UNL     1      43.359 -19.914   1.798  1.00  0.00     0.039 A 
HETATM   21  C   UNL     1      42.991 -18.701   2.395  1.00  0.00     0.032 A 
BRANCH  19  22
HETATM   22  O   UNL     1      44.591 -22.028   2.025  1.00  0.00    -0.356 OA
HETATM   23  C   UNL     1      44.958 -22.986   3.011  1.00  0.00     0.210 C 
ENDBRANCH  19  22
ENDBRANCH  13  16
ENDBRANCH  10  12
BRANCH   1  24
HETATM   24  C   UNL     1      40.772 -14.524   3.068  1.00  0.00    -0.029 A 
HETATM   25  C   UNL     1      39.936 -15.199   2.164  1.00  0.00     0.010 A 
HETATM   26  C   UNL     1      40.129 -15.076   0.786  1.00  0.00     0.007 A 
HETATM   27  C   UNL     1      41.174 -14.296   0.279  1.00  0.00    -0.059 A 
HETATM   28  C   UNL     1      42.020 -13.633   1.175  1.00  0.00     0.007 A 
HETATM   29  C   UNL     1      41.824 -13.750   2.553  1.00  0.00     0.010 A 
BRANCH  27  30
HETATM   30  C   UNL     1      41.372 -14.149  -1.208  1.00  0.00     0.034 C 
HETATM   31  C   UNL     1      40.885 -15.374  -1.965  1.00  0.00     0.010 C 
ENDBRANCH  27  30
ENDBRANCH   1  24
BRANCH   4  32
HETATM   32  C   UNL     1      41.500 -10.520   7.300  1.00  0.00     0.261 C 
HETATM   33  N   UNL     1      41.517 -10.904   8.629  1.00  0.00    -0.323 N 
HETATM   34  H   UNL     1      41.252 -11.865   8.812  1.00  0.00     0.169 HD
HETATM   35  O   UNL     1      41.949  -9.476   6.844  1.00  0.00    -0.267 OA
BRANCH  33  36
HETATM   36  C   UNL     1      41.982 -10.162   9.734  1.00  0.00     0.035 A 
HETATM   37  C   UNL     1      41.341  -9.029  10.239  1.00  0.00     0.029 A 
HETATM   38  C   UNL     1      41.869  -8.346  11.339  1.00  0.00     0.002 A 
HETATM   39  C   UNL     1      43.039  -8.793  11.948  1.00  0.00     0.000 A 
HETATM   40  C   UNL     1      43.682  -9.925  11.457  1.00  0.00     0.002 A 
HETATM   41  C   UNL     1      43.155 -10.607  10.357  1.00  0.00     0.029 A 
ENDBRANCH  33  36
ENDBRANCH   4  32
TORSDOF 7
ENDMDL
MODEL 3
REMARK VINA RESULT:      -9.6      1.765      2.396
REMARK  7 active torsions:
REMARK  status: ('A' for Active; 'I' for Inactive)
REMARK    1  A    between atoms: C_2  and  C_3 
REMARK    2  A    between atoms: C_6  and  C_7 
REMARK    3  A    between atoms: C_10  and  C_11 
REMARK       I    between atoms: C_11  and  N_12 
REMARK    4  A    between atoms: N_12  and  C_13 
REMARK    5  A    between atoms: C_25  and  C_26 
REMARK       I    between atoms: C_26  and  N_27 
REMARK    6  A    between atoms: N_27  and  C_28 
REMARK    7  A    between atoms: C_31  and  O_32 
ROOT
HETATM    1  C   UNL     1      43.046 -14.583   3.924  1.00  0.00     0.185 C 
HETATM    2  N   UNL     1      43.788 -14.130   5.113  1.00  0.00    -0.239 N 
HETATM    3  C   UNL     1      43.195 -13.621   6.245  1.00  0.00     0.142 C 
HETATM    4  C   UNL     1      44.226 -13.311   7.110  1.00  0.00     0.097 C 
HETATM    5  C   UNL     1      45.394 -13.533   6.334  1.00  0.00     0.160 C 
HETATM    6  N   UNL     1      45.133 -13.997   5.108  1.00  0.00    -0.181 NA
HETATM    7  N   UNL     1      41.845 -13.491   6.283  1.00  0.00    -0.343 N 
HETATM    8  C   UNL     1      41.035 -13.742   5.173  1.00  0.00     0.021 C 
HETATM    9  C   UNL     1      39.574 -13.389   5.332  1.00  0.00     0.069 C 
HETATM   10  C   UNL     1      41.569 -14.245   4.033  1.00  0.00     0.061 C 
HETATM   11  H   UNL     1      41.396 -12.939   7.015  1.00  0.00     0.167 HD
ENDROOT
BRANCH  10  12
HETATM   12  C   UNL     1      40.706 -14.567   2.862  1.00  0.00     0.256 C 
HETATM   13  N   UNL     1      41.043 -13.855   1.729  1.00  0.00    -0.323 N 
HETATM   14  H   UNL     1      41.792 -13.181   1.799  1.00  0.00     0.169 HD
HETATM   15  O   UNL     1      39.799 -15.381   2.987  1.00  0.00    -0.267 OA
BRANCH  13  16
HETATM   16  C   UNL     1      40.423 -13.923   0.463  1.00  0.00     0.035 A 
HETATM   17  C   UNL     1      39.173 -13.380   0.171  1.00  0.00     0.032 A 
HETATM   18  C   UNL     1      38.650 -13.468  -1.126  1.00  0.00     0.039 A 
HETATM   19  C   UNL     1      39.365 -14.096  -2.145  1.00  0.00     0.068 A 
HETATM   20  C   UNL     1      40.601 -14.666  -1.853  1.00  0.00     0.039 A 
HETATM   21  C   UNL     1      41.126 -14.576  -0.558  1.00  0.00     0.032 A 
BRANCH  19  22
HETATM   22  O   UNL     1      38.751 -14.096  -3.367  1.00  0.00    -0.356 OA
HETATM   23  C   UNL     1      37.989 -15.251  -3.695  1.00  0.00     0.210 C 
ENDBRANCH  19  22
ENDBRANCH  13  16
ENDBRANCH  10  12
BRANCH   1  24
HETATM   24  C   UNL     1      43.339 -16.055   3.653  1.00  0.00    -0.029 A 
HETATM   25  C   UNL     1      43.266 -17.032   4.658  1.00  0.00     0.010 A 
HETATM   26  C   UNL     1      43.539 -18.371   4.372  1.00  0.00     0.007 A 
HETATM   27  C   UNL     1      43.912 -18.764   3.082  1.00  0.00    -0.059 A 
HETATM   28  C   UNL     1      44.001 -17.794   2.079  1.00  0.00     0.007 A 
HETATM   29  C   UNL     1      43.722 -16.455   2.362  1.00  0.00     0.010 A 
BRANCH  27  30
HETATM   30  C   UNL     1      44.188 -20.212   2.770  1.00  0.00     0.034 C 
HETATM   31  C   UNL     1      44.811 -20.935   3.954  1.00  0.00     0.010 C 
ENDBRANCH  27  30
ENDBRANCH   1  24
BRANCH   4  32
HETATM   32  C   UNL     1      44.182 -12.807   8.470  1.00  0.00     0.261 C 
HETATM   33  N   UNL     1      43.406 -11.671   8.611  1.00  0.00    -0.323 N 
HETATM   34  H   UNL     1      42.868 -11.403   7.795  1.00  0.00     0.169 HD
HETATM   35  O   UNL     1      44.762 -13.402   9.371  1.00  0.00    -0.267 OA
BRANCH  33  36
HETATM   36  C   UNL     1      43.175 -10.926   9.785  1.00  0.00     0.035 A 
HETATM   37  C   UNL     1      44.153 -10.658  10.745  1.00  0.00     0.029 A 
HETATM   38  C   UNL     1      43.842  -9.911  11.886  1.00  0.00     0.002 A 
HETATM   39  C   UNL     1      42.552  -9.420  12.074  1.00  0.00     0.000 A 
HETATM   40  C   UNL     1      41.572  -9.675  11.120  1.00  0.00     0.002 A 
HETATM   41  C   UNL     1      41.882 -10.422   9.981  1.00  0.00     0.029 A 
ENDBRANCH  33  36
ENDBRANCH   4  32
TORSDOF 7
ENDMDL
MODEL 4
REMARK VINA RESULT:      -9.4      2.470      5.597
REMARK  7 active torsions:
REMARK  status: ('A' for Active; 'I' for Inactive)
REMARK    1  A    between atoms: C_2  and  C_3 
REMARK    2  A    between atoms: C_6  and  C_7 
REMARK    3  A    between atoms: C_10  and  C_11 
REMARK       I    between atoms: C_11  and  N_12 
REMARK    4  A    between atoms: N_12  and  C_13 
REMARK    5  A    between atoms: C_25  and  C_26 
REMARK       I    between atoms: C_26  and  N_27 
REMARK    6  A    between atoms: N_27  and  C_28 
REMARK    7  A    between atoms: C_31  and  O_32 
ROOT
HETATM    1  C   UNL     1      41.130 -13.871   4.964  1.00  0.00     0.185 C 
HETATM    2  N   UNL     1      40.717 -12.869   5.962  1.00  0.00    -0.239 N 
HETATM    3  C   UNL     1      41.572 -12.282   6.865  1.00  0.00     0.142 C 
HETATM    4  C   UNL     1      40.800 -11.419   7.617  1.00  0.00     0.097 C 
HETATM    5  C   UNL     1      39.476 -11.682   7.178  1.00  0.00     0.160 C 
HETATM    6  N   UNL     1      39.416 -12.587   6.196  1.00  0.00    -0.181 NA
HETATM    7  N   UNL     1      42.877 -12.655   6.879  1.00  0.00    -0.343 N 
HETATM    8  C   UNL     1      43.369 -13.699   6.091  1.00  0.00     0.021 C 
HETATM    9  C   UNL     1      44.804 -14.097   6.348  1.00  0.00     0.069 C 
HETATM   10  C   UNL     1      42.568 -14.309   5.183  1.00  0.00     0.061 C 
HETATM   11  H   UNL     1      43.484 -12.393   7.657  1.00  0.00     0.167 HD
ENDROOT
BRANCH  10  12
HETATM   12  C   UNL     1      43.096 -15.385   4.300  1.00  0.00     0.256 C 
HETATM   13  N   UNL     1      42.970 -16.646   4.847  1.00  0.00    -0.323 N 
HETATM   14  H   UNL     1      42.578 -16.722   5.775  1.00  0.00     0.169 HD
HETATM   15  O   UNL     1      43.594 -15.090   3.220  1.00  0.00    -0.267 OA
BRANCH  13  16
HETATM   16  C   UNL     1      43.374 -17.870   4.272  1.00  0.00     0.035 A 
HETATM   17  C   UNL     1      42.891 -18.365   3.062  1.00  0.00     0.032 A 
HETATM   18  C   UNL     1      43.373 -19.577   2.551  1.00  0.00     0.039 A 
HETATM   19  C   UNL     1      44.341 -20.309   3.239  1.00  0.00     0.068 A 
HETATM   20  C   UNL     1      44.805 -19.835   4.462  1.00  0.00     0.039 A 
HETATM   21  C   UNL     1      44.326 -18.621   4.972  1.00  0.00     0.032 A 
BRANCH  19  22
HETATM   22  O   UNL     1      44.739 -21.463   2.623  1.00  0.00    -0.356 OA
HETATM   23  C   UNL     1      43.968 -21.885   1.505  1.00  0.00     0.210 C 
ENDBRANCH  19  22
ENDBRANCH  13  16
ENDBRANCH  10  12
BRANCH   1  24
HETATM   24  C   UNL     1      40.832 -13.363   3.557  1.00  0.00    -0.029 A 
HETATM   25  C   UNL     1      41.418 -12.197   3.041  1.00  0.00     0.010 A 
HETATM   26  C   UNL     1      41.124 -11.763   1.746  1.00  0.00     0.007 A 
HETATM   27  C   UNL     1      40.221 -12.471   0.944  1.00  0.00    -0.059 A 
HETATM   28  C   UNL     1      39.621 -13.625   1.458  1.00  0.00     0.007 A 
HETATM   29  C   UNL     1      39.920 -14.064   2.750  1.00  0.00     0.010 A 
BRANCH  27  30
HETATM   30  C   UNL     1      39.917 -12.013  -0.459  1.00  0.00     0.034 C 
HETATM   31  C   UNL     1      38.603 -12.585  -0.967  1.00  0.00     0.010 C 
ENDBRANCH  27  30
ENDBRANCH   1  24
BRANCH   4  32
HETATM   32  C   UNL     1      41.188 -10.495   8.667  1.00  0.00     0.261 C 
HETATM   33  N   UNL     1      41.542 -11.121   9.849  1.00  0.00    -0.323 N 
HETATM   34  H   UNL     1      41.611 -12.131   9.806  1.00  0.00     0.169 HD
HETATM   35  O   UNL     1      41.221  -9.289   8.451  1.00  0.00    -0.267 OA
BRANCH  33  36
HETATM   36  C   UNL     1      41.942 -10.517  11.057  1.00  0.00     0.035 A 
HETATM   37  C   UNL     1      43.270 -10.403  11.472  1.00  0.00     0.029 A 
HETATM   38  C   UNL     1      43.584  -9.790  12.689  1.00  0.00     0.002 A 
HETATM   39  C   UNL     1      42.572  -9.281  13.501  1.00  0.00     0.000 A 
HETATM   40  C   UNL     1      41.245  -9.383  13.093  1.00  0.00     0.002 A 
HETATM   41  C   UNL     1      40.932  -9.996  11.878  1.00  0.00     0.029 A 
ENDBRANCH  33  36
ENDBRANCH   4  32
TORSDOF 7
ENDMDL
MODEL 5
REMARK VINA RESULT:      -9.2      6.140      9.840
REMARK  7 active torsions:
REMARK  status: ('A' for Active; 'I' for Inactive)
REMARK    1  A    between atoms: C_2  and  C_3 
REMARK    2  A    between atoms: C_6  and  C_7 
REMARK    3  A    between atoms: C_10  and  C_11 
REMARK       I    between atoms: C_11  and  N_12 
REMARK    4  A    between atoms: N_12  and  C_13 
REMARK    5  A    between atoms: C_25  and  C_26 
REMARK       I    between atoms: C_26  and  N_27 
REMARK    6  A    between atoms: N_27  and  C_28 
REMARK    7  A    between atoms: C_31  and  O_32 
ROOT
HETATM    1  C   UNL     1      40.338 -13.509   0.003  1.00  0.00     0.185 C 
HETATM    2  N   UNL     1      41.135 -14.369   0.896  1.00  0.00    -0.239 N 
HETATM    3  C   UNL     1      41.855 -15.462   0.473  1.00  0.00     0.142 C 
HETATM    4  C   UNL     1      42.444 -15.992   1.604  1.00  0.00     0.097 C 
HETATM    5  C   UNL     1      41.888 -15.228   2.663  1.00  0.00     0.160 C 
HETATM    6  N   UNL     1      41.064 -14.262   2.241  1.00  0.00    -0.181 NA
HETATM    7  N   UNL     1      41.821 -15.809  -0.838  1.00  0.00    -0.343 N 
HETATM    8  C   UNL     1      40.990 -15.172  -1.763  1.00  0.00     0.021 C 
HETATM    9  C   UNL     1      40.949 -15.787  -3.143  1.00  0.00     0.069 C 
HETATM   10  C   UNL     1      40.262 -14.089  -1.399  1.00  0.00     0.061 C 
HETATM   11  H   UNL     1      42.175 -16.716  -1.145  1.00  0.00     0.167 HD
ENDROOT
BRANCH  10  12
HETATM   12  C   UNL     1      39.414 -13.369  -2.390  1.00  0.00     0.256 C 
HETATM   13  N   UNL     1      38.142 -13.894  -2.496  1.00  0.00    -0.323 N 
HETATM   14  H   UNL     1      37.917 -14.707  -1.941  1.00  0.00     0.169 HD
HETATM   15  O   UNL     1      39.886 -12.429  -3.017  1.00  0.00    -0.267 OA
BRANCH  13  16
HETATM   16  C   UNL     1      37.103 -13.448  -3.342  1.00  0.00     0.035 A 
HETATM   17  C   UNL     1      36.528 -12.179  -3.276  1.00  0.00     0.032 A 
HETATM   18  C   UNL     1      35.522 -11.812  -4.178  1.00  0.00     0.039 A 
HETATM   19  C   UNL     1      35.078 -12.701  -5.157  1.00  0.00     0.068 A 
HETATM   20  C   UNL     1      35.628 -13.979  -5.210  1.00  0.00     0.039 A 
HETATM   21  C   UNL     1      36.637 -14.346  -4.309  1.00  0.00     0.032 A 
BRANCH  19  22
HETATM   22  O   UNL     1      34.107 -12.212  -5.986  1.00  0.00    -0.356 OA
HETATM   23  C   UNL     1      32.909 -11.765  -5.364  1.00  0.00     0.210 C 
ENDBRANCH  19  22
ENDBRANCH  13  16
ENDBRANCH  10  12
BRANCH   1  24
HETATM   24  C   UNL     1      40.849 -12.073   0.066  1.00  0.00    -0.029 A 
HETATM   25  C   UNL     1      40.032 -11.004   0.467  1.00  0.00     0.010 A 
HETATM   26  C   UNL     1      40.535  -9.701   0.515  1.00  0.00     0.007 A 
HETATM   27  C   UNL     1      41.857  -9.433   0.142  1.00  0.00    -0.059 A 
HETATM   28  C   UNL     1      42.671 -10.492  -0.273  1.00  0.00     0.007 A 
HETATM   29  C   UNL     1      42.172 -11.795  -0.315  1.00  0.00     0.010 A 
BRANCH  27  30
HETATM   30  C   UNL     1      42.405  -8.030   0.212  1.00  0.00     0.034 C 
HETATM   31  C   UNL     1      43.813  -7.947  -0.355  1.00  0.00     0.010 C 
ENDBRANCH  27  30
ENDBRANCH   1  24
BRANCH   4  32
HETATM   32  C   UNL     1      43.364 -17.107   1.742  1.00  0.00     0.261 C 
HETATM   33  N   UNL     1      42.819 -18.190   2.408  1.00  0.00    -0.323 N 
HETATM   34  H   UNL     1      41.827 -18.130   2.605  1.00  0.00     0.169 HD
HETATM   35  O   UNL     1      44.486 -17.049   1.253  1.00  0.00    -0.267 OA
BRANCH  33  36
HETATM   36  C   UNL     1      43.447 -19.411   2.724  1.00  0.00     0.035 A 
HETATM   37  C   UNL     1      44.191 -19.628   3.886  1.00  0.00     0.029 A 
HETATM   38  C   UNL     1      44.787 -20.871   4.126  1.00  0.00     0.002 A 
HETATM   39  C   UNL     1      44.638 -21.909   3.209  1.00  0.00     0.000 A 
HETATM   40  C   UNL     1      43.892 -21.705   2.051  1.00  0.00     0.002 A 
HETATM   41  C   UNL     1      43.299 -20.463   1.811  1.00  0.00     0.029 A 
ENDBRANCH  33  36
ENDBRANCH   4  32
TORSDOF 7
ENDMDL
MODEL 6
REMARK VINA RESULT:      -8.8      6.098      9.717
REMARK  7 active torsions:
REMARK  status: ('A' for Active; 'I' for Inactive)
REMARK    1  A    between atoms: C_2  and  C_3 
REMARK    2  A    between atoms: C_6  and  C_7 
REMARK    3  A    between atoms: C_10  and  C_11 
REMARK       I    between atoms: C_11  and  N_12 
REMARK    4  A    between atoms: N_12  and  C_13 
REMARK    5  A    between atoms: C_25  and  C_26 
REMARK       I    between atoms: C_26  and  N_27 
REMARK    6  A    between atoms: N_27  and  C_28 
REMARK    7  A    between atoms: C_31  and  O_32 
ROOT
HETATM    1  C   UNL     1      40.738 -13.170  -0.341  1.00  0.00     0.185 C 
HETATM    2  N   UNL     1      41.454 -14.063   0.586  1.00  0.00    -0.239 N 
HETATM    3  C   UNL     1      41.867 -15.336   0.266  1.00  0.00     0.142 C 
HETATM    4  C   UNL     1      42.483 -15.833   1.398  1.00  0.00     0.097 C 
HETATM    5  C   UNL     1      42.248 -14.833   2.377  1.00  0.00     0.160 C 
HETATM    6  N   UNL     1      41.593 -13.770   1.898  1.00  0.00    -0.181 NA
HETATM    7  N   UNL     1      41.582 -15.834  -0.963  1.00  0.00    -0.343 N 
HETATM    8  C   UNL     1      40.782 -15.152  -1.884  1.00  0.00     0.021 C 
HETATM    9  C   UNL     1      40.425 -15.916  -3.137  1.00  0.00     0.069 C 
HETATM   10  C   UNL     1      40.351 -13.895  -1.618  1.00  0.00     0.061 C 
HETATM   11  H   UNL     1      41.694 -16.829  -1.160  1.00  0.00     0.167 HD
ENDROOT
BRANCH  10  12
HETATM   12  C   UNL     1      39.543 -13.138  -2.615  1.00  0.00     0.256 C 
HETATM   13  N   UNL     1      38.184 -13.229  -2.392  1.00  0.00    -0.323 N 
HETATM   14  H   UNL     1      37.868 -13.805  -1.625  1.00  0.00     0.169 HD
HETATM   15  O   UNL     1      40.109 -12.538  -3.520  1.00  0.00    -0.267 OA
BRANCH  13  16
HETATM   16  C   UNL     1      37.153 -12.637  -3.152  1.00  0.00     0.035 A 
HETATM   17  C   UNL     1      36.521 -13.253  -4.231  1.00  0.00     0.032 A 
HETATM   18  C   UNL     1      35.483 -12.600  -4.909  1.00  0.00     0.039 A 
HETATM   19  C   UNL     1      35.062 -11.328  -4.519  1.00  0.00     0.068 A 
HETATM   20  C   UNL     1      35.708 -10.696  -3.461  1.00  0.00     0.039 A 
HETATM   21  C   UNL     1      36.745 -11.350  -2.781  1.00  0.00     0.032 A 
BRANCH  19  22
HETATM   22  O   UNL     1      34.028 -10.812  -5.250  1.00  0.00    -0.356 OA
HETATM   23  C   UNL     1      32.866 -11.624  -5.367  1.00  0.00     0.210 C 
ENDBRANCH  19  22
ENDBRANCH  13  16
ENDBRANCH  10  12
BRANCH   1  24
HETATM   24  C   UNL     1      41.538 -11.890  -0.558  1.00  0.00    -0.029 A 
HETATM   25  C   UNL     1      42.756 -11.876  -1.256  1.00  0.00     0.010 A 
HETATM   26  C   UNL     1      43.461 -10.684  -1.438  1.00  0.00     0.007 A 
HETATM   27  C   UNL     1      42.978  -9.482  -0.910  1.00  0.00    -0.059 A 
HETATM   28  C   UNL     1      41.772  -9.491  -0.200  1.00  0.00     0.007 A 
HETATM   29  C   UNL     1      41.063 -10.681  -0.023  1.00  0.00     0.010 A 
BRANCH  27  30
HETATM   30  C   UNL     1      43.729  -8.193  -1.122  1.00  0.00     0.034 C 
HETATM   31  C   UNL     1      43.176  -7.405  -2.300  1.00  0.00     0.010 C 
ENDBRANCH  27  30
ENDBRANCH   1  24
BRANCH   4  32
HETATM   32  C   UNL     1      43.161 -17.099   1.610  1.00  0.00     0.261 C 
HETATM   33  N   UNL     1      43.157 -17.510   2.931  1.00  0.00    -0.323 N 
HETATM   34  H   UNL     1      42.586 -16.958   3.561  1.00  0.00     0.169 HD
HETATM   35  O   UNL     1      43.632 -17.717   0.663  1.00  0.00    -0.267 OA
BRANCH  33  36
HETATM   36  C   UNL     1      43.744 -18.671   3.473  1.00  0.00     0.035 A 
HETATM   37  C   UNL     1      44.081 -19.799   2.723  1.00  0.00     0.029 A 
HETATM   38  C   UNL     1      44.659 -20.914   3.339  1.00  0.00     0.002 A 
HETATM   39  C   UNL     1      44.911 -20.909   4.709  1.00  0.00     0.000 A 
HETATM   40  C   UNL     1      44.586 -19.786   5.464  1.00  0.00     0.002 A 
HETATM   41  C   UNL     1      44.007 -18.673   4.850  1.00  0.00     0.029 A 
ENDBRANCH  33  36
ENDBRANCH   4  32
TORSDOF 7
ENDMDL
MODEL 7
REMARK VINA RESULT:      -8.8      6.436      9.939
REMARK  7 active torsions:
REMARK  status: ('A' for Active; 'I' for Inactive)
REMARK    1  A    between atoms: C_2  and  C_3 
REMARK    2  A    between atoms: C_6  and  C_7 
REMARK    3  A    between atoms: C_10  and  C_11 
REMARK       I    between atoms: C_11  and  N_12 
REMARK    4  A    between atoms: N_12  and  C_13 
REMARK    5  A    between atoms: C_25  and  C_26 
REMARK       I    between atoms: C_26  and  N_27 
REMARK    6  A    between atoms: N_27  and  C_28 
REMARK    7  A    between atoms: C_31  and  O_32 
ROOT
HETATM    1  C   UNL     1      39.433 -14.130   0.014  1.00  0.00     0.185 C 
HETATM    2  N   UNL     1      40.186 -15.097   0.833  1.00  0.00    -0.239 N 
HETATM    3  C   UNL     1      41.222 -15.868   0.358  1.00  0.00     0.142 C 
HETATM    4  C   UNL     1      41.645 -16.636   1.425  1.00  0.00     0.097 C 
HETATM    5  C   UNL     1      40.696 -16.353   2.442  1.00  0.00     0.160 C 
HETATM    6  N   UNL     1      39.786 -15.443   2.076  1.00  0.00    -0.181 NA
HETATM    7  N   UNL     1      41.572 -15.773  -0.949  1.00  0.00    -0.343 N 
HETATM    8  C   UNL     1      40.847 -15.009  -1.867  1.00  0.00     0.021 C 
HETATM    9  C   UNL     1      41.269 -15.143  -3.312  1.00  0.00     0.069 C 
HETATM   10  C   UNL     1      39.819 -14.229  -1.452  1.00  0.00     0.061 C 
HETATM   11  H   UNL     1      42.190 -16.465  -1.373  1.00  0.00     0.167 HD
ENDROOT
BRANCH  10  12
HETATM   12  C   UNL     1      39.075 -13.369  -2.413  1.00  0.00     0.256 C 
HETATM   13  N   UNL     1      37.821 -13.857  -2.718  1.00  0.00    -0.323 N 
HETATM   14  H   UNL     1      37.541 -14.736  -2.305  1.00  0.00     0.169 HD
HETATM   15  O   UNL     1      39.607 -12.358  -2.855  1.00  0.00    -0.267 OA
BRANCH  13  16
HETATM   16  C   UNL     1      36.872 -13.286  -3.593  1.00  0.00     0.035 A 
HETATM   17  C   UNL     1      36.388 -11.983  -3.483  1.00  0.00     0.032 A 
HETATM   18  C   UNL     1      35.469 -11.489  -4.417  1.00  0.00     0.039 A 
HETATM   19  C   UNL     1      35.023 -12.285  -5.472  1.00  0.00     0.068 A 
HETATM   20  C   UNL     1      35.480 -13.596  -5.571  1.00  0.00     0.039 A 
HETATM   21  C   UNL     1      36.402 -14.090  -4.638  1.00  0.00     0.032 A 
BRANCH  19  22
HETATM   22  O   UNL     1      34.144 -11.677  -6.324  1.00  0.00    -0.356 OA
HETATM   23  C   UNL     1      33.848 -12.369  -7.531  1.00  0.00     0.210 C 
ENDBRANCH  19  22
ENDBRANCH  13  16
ENDBRANCH  10  12
BRANCH   1  24
HETATM   24  C   UNL     1      39.561 -12.730   0.607  1.00  0.00    -0.029 A 
HETATM   25  C   UNL     1      38.452 -12.014   1.084  1.00  0.00     0.010 A 
HETATM   26  C   UNL     1      38.607 -10.735   1.624  1.00  0.00     0.007 A 
HETATM   27  C   UNL     1      39.869 -10.132   1.679  1.00  0.00    -0.059 A 
HETATM   28  C   UNL     1      40.976 -10.834   1.191  1.00  0.00     0.007 A 
HETATM   29  C   UNL     1      40.823 -12.116   0.657  1.00  0.00     0.010 A 
BRANCH  27  30
HETATM   30  C   UNL     1      40.038  -8.759   2.277  1.00  0.00     0.034 C 
HETATM   31  C   UNL     1      40.636  -7.779   1.280  1.00  0.00     0.010 C 
ENDBRANCH  27  30
ENDBRANCH   1  24
BRANCH   4  32
HETATM   32  C   UNL     1      42.746 -17.578   1.517  1.00  0.00     0.261 C 
HETATM   33  N   UNL     1      42.470 -18.669   2.322  1.00  0.00    -0.323 N 
HETATM   34  H   UNL     1      41.513 -18.746   2.644  1.00  0.00     0.169 HD
HETATM   35  O   UNL     1      43.777 -17.391   0.882  1.00  0.00    -0.267 OA
BRANCH  33  36
HETATM   36  C   UNL     1      43.326 -19.744   2.637  1.00  0.00     0.035 A 
HETATM   37  C   UNL     1      43.439 -20.903   1.868  1.00  0.00     0.029 A 
HETATM   38  C   UNL     1      44.311 -21.928   2.252  1.00  0.00     0.002 A 
HETATM   39  C   UNL     1      45.082 -21.798   3.404  1.00  0.00     0.000 A 
HETATM   40  C   UNL     1      44.983 -20.643   4.174  1.00  0.00     0.002 A 
HETATM   41  C   UNL     1      44.111 -19.620   3.792  1.00  0.00     0.029 A 
ENDBRANCH  33  36
ENDBRANCH   4  32
TORSDOF 7
ENDMDL
MODEL 8
REMARK VINA RESULT:      -8.1      2.776      3.664
REMARK  7 active torsions:
REMARK  status: ('A' for Active; 'I' for Inactive)
REMARK    1  A    between atoms: C_2  and  C_3 
REMARK    2  A    between atoms: C_6  and  C_7 
REMARK    3  A    between atoms: C_10  and  C_11 
REMARK       I    between atoms: C_11  and  N_12 
REMARK    4  A    between atoms: N_12  and  C_13 
REMARK    5  A    between atoms: C_25  and  C_26 
REMARK       I    between atoms: C_26  and  N_27 
REMARK    6  A    between atoms: N_27  and  C_28 
REMARK    7  A    between atoms: C_31  and  O_32 
ROOT
HETATM    1  C   UNL     1      41.772 -12.524   3.995  1.00  0.00     0.185 C 
HETATM    2  N   UNL     1      41.586 -12.185   5.417  1.00  0.00    -0.239 N 
HETATM    3  C   UNL     1      40.419 -11.679   5.943  1.00  0.00     0.142 C 
HETATM    4  C   UNL     1      40.658 -11.492   7.290  1.00  0.00     0.097 C 
HETATM    5  C   UNL     1      42.042 -11.776   7.430  1.00  0.00     0.160 C 
HETATM    6  N   UNL     1      42.619 -12.164   6.288  1.00  0.00    -0.181 NA
HETATM    7  N   UNL     1      39.370 -11.440   5.116  1.00  0.00    -0.343 N 
HETATM    8  C   UNL     1      39.461 -11.575   3.729  1.00  0.00     0.021 C 
HETATM    9  C   UNL     1      38.257 -11.109   2.943  1.00  0.00     0.069 C 
HETATM   10  C   UNL     1      40.587 -12.070   3.160  1.00  0.00     0.061 C 
HETATM   11  H   UNL     1      38.574 -10.885   5.434  1.00  0.00     0.167 HD
ENDROOT
BRANCH  10  12
HETATM   12  C   UNL     1      40.675 -12.269   1.686  1.00  0.00     0.256 C 
HETATM   13  N   UNL     1      40.230 -13.510   1.280  1.00  0.00    -0.323 N 
HETATM   14  H   UNL     1      39.927 -14.161   1.991  1.00  0.00     0.169 HD
HETATM   15  O   UNL     1      41.128 -11.375   0.983  1.00  0.00    -0.267 OA
BRANCH  13  16
HETATM   16  C   UNL     1      40.186 -14.011  -0.039  1.00  0.00     0.035 A 
HETATM   17  C   UNL     1      41.117 -14.901  -0.572  1.00  0.00     0.032 A 
HETATM   18  C   UNL     1      40.976 -15.371  -1.884  1.00  0.00     0.039 A 
HETATM   19  C   UNL     1      39.906 -14.962  -2.679  1.00  0.00     0.068 A 
HETATM   20  C   UNL     1      38.988 -14.051  -2.164  1.00  0.00     0.039 A 
HETATM   21  C   UNL     1      39.127 -13.582  -0.850  1.00  0.00     0.032 A 
BRANCH  19  22
HETATM   22  O   UNL     1      39.873 -15.509  -3.932  1.00  0.00    -0.356 OA
HETATM   23  C   UNL     1      38.721 -16.276  -4.260  1.00  0.00     0.210 C 
ENDBRANCH  19  22
ENDBRANCH  13  16
ENDBRANCH  10  12
BRANCH   1  24
HETATM   24  C   UNL     1      42.119 -14.002   3.850  1.00  0.00    -0.029 A 
HETATM   25  C   UNL     1      41.369 -15.013   4.471  1.00  0.00     0.010 A 
HETATM   26  C   UNL     1      41.715 -16.357   4.313  1.00  0.00     0.007 A 
HETATM   27  C   UNL     1      42.830 -16.722   3.550  1.00  0.00    -0.059 A 
HETATM   28  C   UNL     1      43.591 -15.718   2.941  1.00  0.00     0.007 A 
HETATM   29  C   UNL     1      43.242 -14.374   3.092  1.00  0.00     0.010 A 
BRANCH  27  30
HETATM   30  C   UNL     1      43.192 -18.173   3.365  1.00  0.00     0.034 C 
HETATM   31  C   UNL     1      43.971 -18.400   2.079  1.00  0.00     0.010 C 
ENDBRANCH  27  30
ENDBRANCH   1  24
BRANCH   4  32
HETATM   32  C   UNL     1      39.763 -11.046   8.343  1.00  0.00     0.261 C 
HETATM   33  N   UNL     1      40.346 -10.145   9.215  1.00  0.00    -0.323 N 
HETATM   34  H   UNL     1      41.266  -9.811   8.951  1.00  0.00     0.169 HD
HETATM   35  O   UNL     1      38.601 -11.433   8.374  1.00  0.00    -0.267 OA
BRANCH  33  36
HETATM   36  C   UNL     1      39.763  -9.542  10.347  1.00  0.00     0.035 A 
HETATM   37  C   UNL     1      38.558  -8.838  10.324  1.00  0.00     0.029 A 
HETATM   38  C   UNL     1      38.047  -8.266  11.494  1.00  0.00     0.002 A 
HETATM   39  C   UNL     1      38.733  -8.399  12.699  1.00  0.00     0.000 A 
HETATM   40  C   UNL     1      39.932  -9.106  12.735  1.00  0.00     0.002 A 
HETATM   41  C   UNL     1      40.443  -9.676  11.566  1.00  0.00     0.029 A 
ENDBRANCH  33  36
ENDBRANCH   4  32
TORSDOF 7
ENDMDL
MODEL 9
REMARK VINA RESULT:      -8.1      3.493     10.118
REMARK  7 active torsions:
REMARK  status: ('A' for Active; 'I' for Inactive)
REMARK    1  A    between atoms: C_2  and  C_3 
REMARK    2  A    between atoms: C_6  and  C_7 
REMARK    3  A    between atoms: C_10  and  C_11 
REMARK       I    between atoms: C_11  and  N_12 
REMARK    4  A    between atoms: N_12  and  C_13 
REMARK    5  A    between atoms: C_25  and  C_26 
REMARK       I    between atoms: C_26  and  N_27 
REMARK    6  A    between atoms: N_27  and  C_28 
REMARK    7  A    between atoms: C_31  and  O_32 
ROOT
HETATM    1  C   UNL     1      40.548 -13.090   2.791  1.00  0.00     0.185 C 
HETATM    2  N   UNL     1      41.068 -14.277   2.089  1.00  0.00    -0.239 N 
HETATM    3  C   UNL     1      41.176 -15.524   2.660  1.00  0.00     0.142 C 
HETATM    4  C   UNL     1      41.711 -16.344   1.686  1.00  0.00     0.097 C 
HETATM    5  C   UNL     1      42.022 -15.451   0.627  1.00  0.00     0.160 C 
HETATM    6  N   UNL     1      41.666 -14.188   0.881  1.00  0.00    -0.181 NA
HETATM    7  N   UNL     1      40.816 -15.692   3.957  1.00  0.00    -0.343 N 
HETATM    8  C   UNL     1      40.447 -14.623   4.779  1.00  0.00     0.021 C 
HETATM    9  C   UNL     1      40.238 -14.958   6.237  1.00  0.00     0.069 C 
HETATM   10  C   UNL     1      40.324 -13.374   4.266  1.00  0.00     0.061 C 
HETATM   11  H   UNL     1      41.069 -16.542   4.461  1.00  0.00     0.167 HD
ENDROOT
BRANCH  10  12
HETATM   12  C   UNL     1      39.880 -12.238   5.120  1.00  0.00     0.256 C 
HETATM   13  N   UNL     1      40.926 -11.590   5.746  1.00  0.00    -0.323 N 
HETATM   14  H   UNL     1      41.859 -11.948   5.602  1.00  0.00     0.169 HD
HETATM   15  O   UNL     1      38.685 -11.987   5.216  1.00  0.00    -0.267 OA
BRANCH  13  16
HETATM   16  C   UNL     1      40.844 -10.484   6.620  1.00  0.00     0.035 A 
HETATM   17  C   UNL     1      41.189  -9.180   6.269  1.00  0.00     0.032 A 
HETATM   18  C   UNL     1      41.045  -8.138   7.194  1.00  0.00     0.039 A 
HETATM   19  C   UNL     1      40.555  -8.382   8.477  1.00  0.00     0.068 A 
HETATM   20  C   UNL     1      40.237  -9.686   8.843  1.00  0.00     0.039 A 
HETATM   21  C   UNL     1      40.377 -10.729   7.917  1.00  0.00     0.032 A 
BRANCH  19  22
HETATM   22  O   UNL     1      40.445  -7.277   9.274  1.00  0.00    -0.356 OA
HETATM   23  C   UNL     1      40.751  -7.455  10.651  1.00  0.00     0.210 C 
ENDBRANCH  19  22
ENDBRANCH  13  16
ENDBRANCH  10  12
BRANCH   1  24
HETATM   24  C   UNL     1      39.325 -12.545   2.060  1.00  0.00    -0.029 A 
HETATM   25  C   UNL     1      39.106 -11.169   1.887  1.00  0.00     0.010 A 
HETATM   26  C   UNL     1      37.976 -10.706   1.210  1.00  0.00     0.007 A 
HETATM   27  C   UNL     1      37.026 -11.604   0.709  1.00  0.00    -0.059 A 
HETATM   28  C   UNL     1      37.230 -12.975   0.892  1.00  0.00     0.007 A 
HETATM   29  C   UNL     1      38.363 -13.440   1.563  1.00  0.00     0.010 A 
BRANCH  27  30
HETATM   30  C   UNL     1      35.816 -11.105  -0.037  1.00  0.00     0.034 C 
HETATM   31  C   UNL     1      34.733 -10.611   0.910  1.00  0.00     0.010 C 
ENDBRANCH  27  30
ENDBRANCH   1  24
BRANCH   4  32
HETATM   32  C   UNL     1      41.978 -17.771   1.711  1.00  0.00     0.261 C 
HETATM   33  N   UNL     1      43.035 -18.118   2.533  1.00  0.00    -0.323 N 
HETATM   34  H   UNL     1      43.410 -17.371   3.105  1.00  0.00     0.169 HD
HETATM   35  O   UNL     1      41.270 -18.546   1.079  1.00  0.00    -0.267 OA
BRANCH  33  36
HETATM   36  C   UNL     1      43.562 -19.405   2.761  1.00  0.00     0.035 A 
HETATM   37  C   UNL     1      44.206 -19.788   3.938  1.00  0.00     0.029 A 
HETATM   38  C   UNL     1      44.704 -21.087   4.085  1.00  0.00     0.002 A 
HETATM   39  C   UNL     1      44.556 -22.016   3.058  1.00  0.00     0.000 A 
HETATM   40  C   UNL     1      43.909 -21.647   1.883  1.00  0.00     0.002 A 
HETATM   41  C   UNL     1      43.413 -20.349   1.735  1.00  0.00     0.029 A 
ENDBRANCH  33  36
ENDBRANCH   4  32
TORSDOF 7
ENDMDL
MODEL 10
REMARK VINA RESULT:      -8.1      5.434      9.623
REMARK  7 active torsions:
REMARK  status: ('A' for Active; 'I' for Inactive)
REMARK    1  A    between atoms: C_2  and  C_3 
REMARK    2  A    between atoms: C_6  and  C_7 
REMARK    3  A    between atoms: C_10  and  C_11 
REMARK       I    between atoms: C_11  and  N_12 
REMARK    4  A    between atoms: N_12  and  C_13 
REMARK    5  A    between atoms: C_25  and  C_26 
REMARK       I    between atoms: C_26  and  N_27 
REMARK    6  A    between atoms: N_27  and  C_28 
REMARK    7  A    between atoms: C_31  and  O_32 
ROOT
HETATM    1  C   UNL     1      39.624 -13.632   0.365  1.00  0.00     0.185 C 
HETATM    2  N   UNL     1      40.172 -14.877   0.930  1.00  0.00    -0.239 N 
HETATM    3  C   UNL     1      41.367 -15.439   0.544  1.00  0.00     0.142 C 
HETATM    4  C   UNL     1      41.509 -16.588   1.298  1.00  0.00     0.097 C 
HETATM    5  C   UNL     1      40.274 -16.693   1.988  1.00  0.00     0.160 C 
HETATM    6  N   UNL     1      39.443 -15.675   1.742  1.00  0.00    -0.181 NA
HETATM    7  N   UNL     1      42.090 -14.844  -0.438  1.00  0.00    -0.343 N 
HETATM    8  C   UNL     1      41.617 -13.746  -1.160  1.00  0.00     0.021 C 
HETATM    9  C   UNL     1      42.471 -13.310  -2.328  1.00  0.00     0.069 C 
HETATM   10  C   UNL     1      40.446 -13.154  -0.819  1.00  0.00     0.061 C 
HETATM   11  H   UNL     1      42.868 -15.336  -0.881  1.00  0.00     0.167 HD
ENDROOT
BRANCH  10  12
HETATM   12  C   UNL     1      39.959 -11.949  -1.547  1.00  0.00     0.256 C 
HETATM   13  N   UNL     1      38.986 -12.238  -2.482  1.00  0.00    -0.323 N 
HETATM   14  H   UNL     1      38.724 -13.205  -2.609  1.00  0.00     0.169 HD
HETATM   15  O   UNL     1      40.443 -10.854  -1.292  1.00  0.00    -0.267 OA
BRANCH  13  16
HETATM   16  C   UNL     1      38.326 -11.328  -3.336  1.00  0.00     0.035 A 
HETATM   17  C   UNL     1      37.057 -10.803  -3.092  1.00  0.00     0.032 A 
HETATM   18  C   UNL     1      36.492  -9.880  -3.981  1.00  0.00     0.039 A 
HETATM   19  C   UNL     1      37.183  -9.468  -5.120  1.00  0.00     0.068 A 
HETATM   20  C   UNL     1      38.437 -10.010  -5.385  1.00  0.00     0.039 A 
HETATM   21  C   UNL     1      39.005 -10.932  -4.494  1.00  0.00     0.032 A 
BRANCH  19  22
HETATM   22  O   UNL     1      36.529  -8.549  -5.893  1.00  0.00    -0.356 OA
HETATM   23  C   UNL     1      37.330  -7.538  -6.492  1.00  0.00     0.210 C 
ENDBRANCH  19  22
ENDBRANCH  13  16
ENDBRANCH  10  12
BRANCH   1  24
HETATM   24  C   UNL     1      39.439 -12.593   1.467  1.00  0.00    -0.029 A 
HETATM   25  C   UNL     1      40.484 -12.216   2.325  1.00  0.00     0.010 A 
HETATM   26  C   UNL     1      40.279 -11.259   3.321  1.00  0.00     0.007 A 
HETATM   27  C   UNL     1      39.021 -10.672   3.499  1.00  0.00    -0.059 A 
HETATM   28  C   UNL     1      37.971 -11.055   2.657  1.00  0.00     0.007 A 
HETATM   29  C   UNL     1      38.177 -12.007   1.656  1.00  0.00     0.010 A 
BRANCH  27  30
HETATM   30  C   UNL     1      38.804  -9.626   4.562  1.00  0.00     0.034 C 
HETATM   31  C   UNL     1      39.627  -9.911   5.809  1.00  0.00     0.010 C 
ENDBRANCH  27  30
ENDBRANCH   1  24
BRANCH   4  32
HETATM   32  C   UNL     1      42.608 -17.535   1.355  1.00  0.00     0.261 C 
HETATM   33  N   UNL     1      42.399 -18.565   2.254  1.00  0.00    -0.323 N 
HETATM   34  H   UNL     1      41.474 -18.609   2.664  1.00  0.00     0.169 HD
HETATM   35  O   UNL     1      43.579 -17.403   0.619  1.00  0.00    -0.267 OA
BRANCH  33  36
HETATM   36  C   UNL     1      43.272 -19.627   2.564  1.00  0.00     0.035 A 
HETATM   37  C   UNL     1      44.165 -19.617   3.637  1.00  0.00     0.029 A 
HETATM   38  C   UNL     1      45.001 -20.713   3.876  1.00  0.00     0.002 A 
HETATM   39  C   UNL     1      44.948 -21.831   3.047  1.00  0.00     0.000 A 
HETATM   40  C   UNL     1      44.056 -21.854   1.978  1.00  0.00     0.002 A 
HETATM   41  C   UNL     1      43.222 -20.759   1.739  1.00  0.00     0.029 A 
ENDBRANCH  33  36
ENDBRANCH   4  32
TORSDOF 7
ENDMDL
