MODEL 1
REMARK VINA RESULT:      -8.9      0.000      0.000
REMARK  4 active torsions:
REMARK  status: ('A' for Active; 'I' for Inactive)
REMARK    1  A    between atoms: O_2  and  C_3 
REMARK    2  A    between atoms: C_6  and  C_7 
REMARK    3  A    between atoms: C_12  and  N_13 
REMARK    4  A    between atoms: C_15  and  C_16 
ROOT
HETATM    1  C   UNL     1      41.502 -16.778   5.201  1.00  0.00     0.135 C 
HETATM    2  N   UNL     1      40.817 -16.292   4.009  1.00  0.00    -0.214 N 
HETATM    3  C   UNL     1      41.366 -16.460   2.788  1.00  0.00     0.736 A 
HETATM    4  N   UNL     1      42.426 -17.304   2.587  1.00  0.00    -0.074 N 
HETATM    5  N   UNL     1      42.895 -17.201   1.331  1.00  0.00     0.037 NA
HETATM    6  C   UNL     1      42.006 -16.366   0.800  1.00  0.00     0.753 A 
HETATM    7  N   UNL     1      41.074 -15.866   1.660  1.00  0.00     0.131 NA
HETATM    8  C   UNL     1      43.094 -18.036   3.657  1.00  0.00     0.164 C 
HETATM    9  C   UNL     1      42.188 -18.123   4.899  1.00  0.00     0.063 C 
HETATM   10  H   UNL     1      40.213 -15.485   4.137  1.00  0.00     0.178 HD
ENDROOT
BRANCH   1  11
HETATM   11  C   UNL     1      42.441 -15.754   5.825  1.00  0.00    -0.035 A 
HETATM   12  C   UNL     1      42.349 -14.375   5.594  1.00  0.00     0.012 A 
HETATM   13  C   UNL     1      43.240 -13.486   6.204  1.00  0.00     0.037 A 
HETATM   14  C   UNL     1      44.240 -13.945   7.059  1.00  0.00     0.068 A 
HETATM   15  C   UNL     1      44.352 -15.314   7.291  1.00  0.00     0.037 A 
HETATM   16  C   UNL     1      43.461 -16.206   6.682  1.00  0.00     0.012 A 
BRANCH  14  17
HETATM   17  O   UNL     1      45.033 -12.969   7.592  1.00  0.00    -0.356 OA
HETATM   18  C   UNL     1      44.542 -12.301   8.747  1.00  0.00     0.210 C 
ENDBRANCH  14  17
ENDBRANCH   1  11
BRANCH   8  19
HETATM   19  C   UNL     1      43.537 -19.430   3.229  1.00  0.00    -0.031 A 
HETATM   20  C   UNL     1      44.198 -20.264   4.146  1.00  0.00     0.028 A 
HETATM   21  C   UNL     1      44.585 -21.553   3.776  1.00  0.00     0.011 A 
HETATM   22 BR   UNL     1      45.477 -22.658   5.024  1.00  0.00    -0.051 Br
HETATM   23  C   UNL     1      44.318 -22.033   2.496  1.00  0.00     0.019 A 
HETATM   24  C   UNL     1      43.660 -21.218   1.577  1.00  0.00     0.002 A 
HETATM   25  C   UNL     1      43.270 -19.927   1.941  1.00  0.00     0.009 A 
ENDBRANCH   8  19
BRANCH   6  26
HETATM   26  N   UNL     1      41.998 -15.947  -0.461  1.00  0.00    -0.229 N 
HETATM   27  H   UNL     1      41.838 -14.959  -0.610  1.00  0.00     0.174 HD
HETATM   28  H   UNL     1      41.565 -16.558  -1.140  1.00  0.00     0.174 HD
ENDBRANCH   6  26
TORSDOF 4
ENDMDL
MODEL 2
REMARK VINA RESULT:      -8.5      3.361      5.666
REMARK  4 active torsions:
REMARK  status: ('A' for Active; 'I' for Inactive)
REMARK    1  A    between atoms: O_2  and  C_3 
REMARK    2  A    between atoms: C_6  and  C_7 
REMARK    3  A    between atoms: C_12  and  N_13 
REMARK    4  A    between atoms: C_15  and  C_16 
ROOT
HETATM    1  C   UNL     1      42.927 -14.683   2.479  1.00  0.00     0.135 C 
HETATM    2  N   UNL     1      42.353 -14.367   3.782  1.00  0.00    -0.214 N 
HETATM    3  C   UNL     1      41.792 -15.337   4.535  1.00  0.00     0.736 A 
HETATM    4  N   UNL     1      41.971 -16.663   4.246  1.00  0.00    -0.074 N 
HETATM    5  N   UNL     1      41.208 -17.438   5.038  1.00  0.00     0.037 NA
HETATM    6  C   UNL     1      40.684 -16.524   5.851  1.00  0.00     0.753 A 
HETATM    7  N   UNL     1      40.991 -15.228   5.562  1.00  0.00     0.131 NA
HETATM    8  C   UNL     1      42.708 -17.149   3.085  1.00  0.00     0.164 C 
HETATM    9  C   UNL     1      43.634 -16.049   2.535  1.00  0.00     0.063 C 
HETATM   10  H   UNL     1      41.987 -13.426   3.894  1.00  0.00     0.178 HD
ENDROOT
BRANCH   1  11
HETATM   11  C   UNL     1      41.933 -14.569   1.331  1.00  0.00    -0.035 A 
HETATM   12  C   UNL     1      41.917 -15.438   0.230  1.00  0.00     0.012 A 
HETATM   13  C   UNL     1      40.973 -15.283  -0.790  1.00  0.00     0.037 A 
HETATM   14  C   UNL     1      40.021 -14.265  -0.739  1.00  0.00     0.068 A 
HETATM   15  C   UNL     1      40.029 -13.388   0.342  1.00  0.00     0.037 A 
HETATM   16  C   UNL     1      40.974 -13.540   1.365  1.00  0.00     0.012 A 
BRANCH  14  17
HETATM   17  O   UNL     1      39.155 -14.235  -1.795  1.00  0.00    -0.356 OA
HETATM   18  C   UNL     1      39.679 -14.594  -3.067  1.00  0.00     0.210 C 
ENDBRANCH  14  17
ENDBRANCH   1  11
BRANCH   8  19
HETATM   19  C   UNL     1      43.508 -18.412   3.382  1.00  0.00    -0.031 A 
HETATM   20  C   UNL     1      43.499 -19.475   2.463  1.00  0.00     0.028 A 
HETATM   21  C   UNL     1      44.249 -20.626   2.710  1.00  0.00     0.011 A 
HETATM   22 BR   UNL     1      44.221 -22.047   1.463  1.00  0.00    -0.051 Br
HETATM   23  C   UNL     1      45.020 -20.736   3.865  1.00  0.00     0.019 A 
HETATM   24  C   UNL     1      45.040 -19.688   4.783  1.00  0.00     0.002 A 
HETATM   25  C   UNL     1      44.292 -18.534   4.543  1.00  0.00     0.009 A 
ENDBRANCH   8  19
BRANCH   6  26
HETATM   26  N   UNL     1      39.857 -16.773   6.861  1.00  0.00    -0.229 N 
HETATM   27  H   UNL     1      39.085 -16.131   6.985  1.00  0.00     0.174 HD
HETATM   28  H   UNL     1      40.274 -17.112   7.717  1.00  0.00     0.174 HD
ENDBRANCH   6  26
TORSDOF 4
ENDMDL
MODEL 3
REMARK VINA RESULT:      -8.4      4.188      7.206
REMARK  4 active torsions:
REMARK  status: ('A' for Active; 'I' for Inactive)
REMARK    1  A    between atoms: O_2  and  C_3 
REMARK    2  A    between atoms: C_6  and  C_7 
REMARK    3  A    between atoms: C_12  and  N_13 
REMARK    4  A    between atoms: C_15  and  C_16 
ROOT
HETATM    1  C   UNL     1      41.915 -17.201   5.571  1.00  0.00     0.135 C 
HETATM    2  N   UNL     1      42.632 -16.684   6.730  1.00  0.00    -0.214 N 
HETATM    3  C   UNL     1      43.382 -15.567   6.628  1.00  0.00     0.736 A 
HETATM    4  N   UNL     1      43.292 -14.739   5.540  1.00  0.00    -0.074 N 
HETATM    5  N   UNL     1      44.229 -13.775   5.588  1.00  0.00     0.037 NA
HETATM    6  C   UNL     1      44.770 -14.012   6.779  1.00  0.00     0.753 A 
HETATM    7  N   UNL     1      44.305 -15.112   7.435  1.00  0.00     0.131 NA
HETATM    8  C   UNL     1      42.450 -15.011   4.381  1.00  0.00     0.164 C 
HETATM    9  C   UNL     1      41.356 -16.034   4.737  1.00  0.00     0.063 C 
HETATM   10  H   UNL     1      42.918 -17.370   7.423  1.00  0.00     0.178 HD
ENDROOT
BRANCH   1  11
HETATM   11  C   UNL     1      42.723 -18.193   4.745  1.00  0.00    -0.035 A 
HETATM   12  C   UNL     1      42.574 -18.354   3.361  1.00  0.00     0.012 A 
HETATM   13  C   UNL     1      43.353 -19.280   2.660  1.00  0.00     0.037 A 
HETATM   14  C   UNL     1      44.299 -20.065   3.316  1.00  0.00     0.068 A 
HETATM   15  C   UNL     1      44.454 -19.925   4.693  1.00  0.00     0.037 A 
HETATM   16  C   UNL     1      43.675 -18.998   5.398  1.00  0.00     0.012 A 
BRANCH  14  17
HETATM   17  O   UNL     1      44.996 -20.920   2.510  1.00  0.00    -0.356 OA
HETATM   18  C   UNL     1      44.242 -21.900   1.808  1.00  0.00     0.210 C 
ENDBRANCH  14  17
ENDBRANCH   1  11
BRANCH   8  19
HETATM   19  C   UNL     1      41.823 -13.749   3.800  1.00  0.00    -0.031 A 
HETATM   20  C   UNL     1      42.172 -13.330   2.505  1.00  0.00     0.028 A 
HETATM   21  C   UNL     1      41.585 -12.192   1.951  1.00  0.00     0.011 A 
HETATM   22 BR   UNL     1      42.070 -11.643   0.208  1.00  0.00    -0.051 Br
HETATM   23  C   UNL     1      40.644 -11.458   2.669  1.00  0.00     0.019 A 
HETATM   24  C   UNL     1      40.287 -11.863   3.953  1.00  0.00     0.002 A 
HETATM   25  C   UNL     1      40.870 -13.002   4.513  1.00  0.00     0.009 A 
ENDBRANCH   8  19
BRANCH   6  26
HETATM   26  N   UNL     1      45.751 -13.307   7.336  1.00  0.00    -0.229 N 
HETATM   27  H   UNL     1      45.787 -13.300   8.346  1.00  0.00     0.174 HD
HETATM   28  H   UNL     1      45.988 -12.431   6.892  1.00  0.00     0.174 HD
ENDBRANCH   6  26
TORSDOF 4
ENDMDL
MODEL 4
REMARK VINA RESULT:      -8.2      3.245      4.756
REMARK  4 active torsions:
REMARK  status: ('A' for Active; 'I' for Inactive)
REMARK    1  A    between atoms: O_2  and  C_3 
REMARK    2  A    between atoms: C_6  and  C_7 
REMARK    3  A    between atoms: C_12  and  N_13 
REMARK    4  A    between atoms: C_15  and  C_16 
ROOT
HETATM    1  C   UNL     1      43.470 -13.783   4.576  1.00  0.00     0.135 C 
HETATM    2  N   UNL     1      44.040 -14.063   5.888  1.00  0.00    -0.214 N 
HETATM    3  C   UNL     1      43.802 -15.242   6.500  1.00  0.00     0.736 A 
HETATM    4  N   UNL     1      43.259 -16.303   5.826  1.00  0.00    -0.074 N 
HETATM    5  N   UNL     1      42.980 -17.317   6.665  1.00  0.00     0.037 NA
HETATM    6  C   UNL     1      43.482 -16.845   7.803  1.00  0.00     0.753 A 
HETATM    7  N   UNL     1      43.967 -15.572   7.755  1.00  0.00     0.131 NA
HETATM    8  C   UNL     1      42.830 -16.247   4.433  1.00  0.00     0.164 C 
HETATM    9  C   UNL     1      43.492 -15.058   3.713  1.00  0.00     0.063 C 
HETATM   10  H   UNL     1      44.205 -13.258   6.486  1.00  0.00     0.178 HD
ENDROOT
BRANCH   1  11
HETATM   11  C   UNL     1      42.099 -13.123   4.633  1.00  0.00    -0.035 A 
HETATM   12  C   UNL     1      41.197 -13.113   3.561  1.00  0.00     0.012 A 
HETATM   13  C   UNL     1      39.949 -12.493   3.681  1.00  0.00     0.037 A 
HETATM   14  C   UNL     1      39.568 -11.871   4.869  1.00  0.00     0.068 A 
HETATM   15  C   UNL     1      40.456 -11.864   5.941  1.00  0.00     0.037 A 
HETATM   16  C   UNL     1      41.706 -12.484   5.824  1.00  0.00     0.012 A 
BRANCH  14  17
HETATM   17  O   UNL     1      38.320 -11.314   4.851  1.00  0.00    -0.356 OA
HETATM   18  C   UNL     1      38.097 -10.266   3.917  1.00  0.00     0.210 C 
ENDBRANCH  14  17
ENDBRANCH   1  11
BRANCH   8  19
HETATM   19  C   UNL     1      43.107 -17.542   3.679  1.00  0.00    -0.031 A 
HETATM   20  C   UNL     1      43.822 -18.575   4.308  1.00  0.00     0.028 A 
HETATM   21  C   UNL     1      44.059 -19.776   3.638  1.00  0.00     0.011 A 
HETATM   22 BR   UNL     1      45.026 -21.154   4.500  1.00  0.00    -0.051 Br
HETATM   23  C   UNL     1      43.589 -19.971   2.341  1.00  0.00     0.019 A 
HETATM   24  C   UNL     1      42.877 -18.955   1.707  1.00  0.00     0.002 A 
HETATM   25  C   UNL     1      42.636 -17.751   2.371  1.00  0.00     0.009 A 
ENDBRANCH   8  19
BRANCH   6  26
HETATM   26  N   UNL     1      43.490 -17.485   8.968  1.00  0.00    -0.229 N 
HETATM   27  H   UNL     1      44.272 -17.302   9.581  1.00  0.00     0.174 HD
HETATM   28  H   UNL     1      43.164 -18.442   8.962  1.00  0.00     0.174 HD
ENDBRANCH   6  26
TORSDOF 4
ENDMDL
MODEL 5
REMARK VINA RESULT:      -8.0      2.988      4.929
REMARK  4 active torsions:
REMARK  status: ('A' for Active; 'I' for Inactive)
REMARK    1  A    between atoms: O_2  and  C_3 
REMARK    2  A    between atoms: C_6  and  C_7 
REMARK    3  A    between atoms: C_12  and  N_13 
REMARK    4  A    between atoms: C_15  and  C_16 
ROOT
HETATM    1  C   UNL     1      43.323 -15.355   2.873  1.00  0.00     0.135 C 
HETATM    2  N   UNL     1      43.679 -15.183   4.276  1.00  0.00    -0.214 N 
HETATM    3  C   UNL     1      43.447 -16.170   5.167  1.00  0.00     0.736 A 
HETATM    4  N   UNL     1      43.130 -17.440   4.764  1.00  0.00    -0.074 N 
HETATM    5  N   UNL     1      42.803 -18.214   5.815  1.00  0.00     0.037 NA
HETATM    6  C   UNL     1      43.054 -17.383   6.823  1.00  0.00     0.753 A 
HETATM    7  N   UNL     1      43.421 -16.118   6.473  1.00  0.00     0.131 NA
HETATM    8  C   UNL     1      42.946 -17.827   3.370  1.00  0.00     0.164 C 
HETATM    9  C   UNL     1      43.611 -16.802   2.433  1.00  0.00     0.063 C 
HETATM   10  H   UNL     1      43.662 -14.230   4.629  1.00  0.00     0.178 HD
ENDROOT
BRANCH   1  11
HETATM   11  C   UNL     1      41.908 -14.900   2.542  1.00  0.00    -0.035 A 
HETATM   12  C   UNL     1      41.088 -14.201   3.438  1.00  0.00     0.012 A 
HETATM   13  C   UNL     1      39.798 -13.806   3.069  1.00  0.00     0.037 A 
HETATM   14  C   UNL     1      39.295 -14.092   1.801  1.00  0.00     0.068 A 
HETATM   15  C   UNL     1      40.093 -14.794   0.901  1.00  0.00     0.037 A 
HETATM   16  C   UNL     1      41.385 -15.191   1.269  1.00  0.00     0.012 A 
BRANCH  14  17
HETATM   17  O   UNL     1      38.026 -13.640   1.571  1.00  0.00    -0.356 OA
HETATM   18  C   UNL     1      37.506 -13.822   0.260  1.00  0.00     0.210 C 
ENDBRANCH  14  17
ENDBRANCH   1  11
BRANCH   8  19
HETATM   19  C   UNL     1      43.468 -19.228   3.074  1.00  0.00    -0.031 A 
HETATM   20  C   UNL     1      44.043 -19.989   4.106  1.00  0.00     0.028 A 
HETATM   21  C   UNL     1      44.500 -21.284   3.855  1.00  0.00     0.011 A 
HETATM   22 BR   UNL     1      45.274 -22.291   5.256  1.00  0.00    -0.051 Br
HETATM   23  C   UNL     1      44.390 -21.842   2.583  1.00  0.00     0.019 A 
HETATM   24  C   UNL     1      43.820 -21.099   1.552  1.00  0.00     0.002 A 
HETATM   25  C   UNL     1      43.360 -19.803   1.796  1.00  0.00     0.009 A 
ENDBRANCH   8  19
BRANCH   6  26
HETATM   26  N   UNL     1      42.917 -17.672   8.114  1.00  0.00    -0.229 N 
HETATM   27  H   UNL     1      43.563 -18.349   8.498  1.00  0.00     0.174 HD
HETATM   28  H   UNL     1      41.973 -17.731   8.468  1.00  0.00     0.174 HD
ENDBRANCH   6  26
TORSDOF 4
ENDMDL
MODEL 6
REMARK VINA RESULT:      -8.0      4.163      6.658
REMARK  4 active torsions:
REMARK  status: ('A' for Active; 'I' for Inactive)
REMARK    1  A    between atoms: O_2  and  C_3 
REMARK    2  A    between atoms: C_6  and  C_7 
REMARK    3  A    between atoms: C_12  and  N_13 
REMARK    4  A    between atoms: C_15  and  C_16 
ROOT
HETATM    1  C   UNL     1      40.593 -17.010   2.362  1.00  0.00     0.135 C 
HETATM    2  N   UNL     1      40.233 -15.879   3.208  1.00  0.00    -0.214 N 
HETATM    3  C   UNL     1      40.762 -14.658   2.980  1.00  0.00     0.736 A 
HETATM    4  N   UNL     1      41.428 -14.371   1.818  1.00  0.00    -0.074 N 
HETATM    5  N   UNL     1      41.988 -13.149   1.871  1.00  0.00     0.037 NA
HETATM    6  C   UNL     1      41.528 -12.715   3.041  1.00  0.00     0.753 A 
HETATM    7  N   UNL     1      40.800 -13.612   3.763  1.00  0.00     0.131 NA
HETATM    8  C   UNL     1      41.686 -15.349   0.767  1.00  0.00     0.164 C 
HETATM    9  C   UNL     1      40.730 -16.548   0.900  1.00  0.00     0.063 C 
HETATM   10  H   UNL     1      39.978 -16.099   4.166  1.00  0.00     0.178 HD
ENDROOT
BRANCH   1  11
HETATM   11  C   UNL     1      41.806 -17.784   2.861  1.00  0.00    -0.035 A 
HETATM   12  C   UNL     1      42.211 -17.811   4.203  1.00  0.00     0.012 A 
HETATM   13  C   UNL     1      43.332 -18.548   4.598  1.00  0.00     0.037 A 
HETATM   14  C   UNL     1      44.076 -19.276   3.670  1.00  0.00     0.068 A 
HETATM   15  C   UNL     1      43.694 -19.252   2.332  1.00  0.00     0.037 A 
HETATM   16  C   UNL     1      42.571 -18.515   1.934  1.00  0.00     0.012 A 
BRANCH  14  17
HETATM   17  O   UNL     1      45.139 -19.956   4.193  1.00  0.00    -0.356 OA
HETATM   18  C   UNL     1      44.850 -21.148   4.912  1.00  0.00     0.210 C 
ENDBRANCH  14  17
ENDBRANCH   1  11
BRANCH   8  19
HETATM   19  C   UNL     1      41.589 -14.750  -0.631  1.00  0.00    -0.031 A 
HETATM   20  C   UNL     1      42.059 -13.446  -0.865  1.00  0.00     0.028 A 
HETATM   21  C   UNL     1      42.001 -12.896  -2.146  1.00  0.00     0.011 A 
HETATM   22 BR   UNL     1      42.636 -11.139  -2.440  1.00  0.00    -0.051 Br
HETATM   23  C   UNL     1      41.483 -13.629  -3.211  1.00  0.00     0.019 A 
HETATM   24  C   UNL     1      41.016 -14.924  -2.994  1.00  0.00     0.002 A 
HETATM   25  C   UNL     1      41.071 -15.481  -1.714  1.00  0.00     0.009 A 
ENDBRANCH   8  19
BRANCH   6  26
HETATM   26  N   UNL     1      41.771 -11.519   3.571  1.00  0.00    -0.229 N 
HETATM   27  H   UNL     1      41.025 -10.838   3.514  1.00  0.00     0.174 HD
HETATM   28  H   UNL     1      42.702 -11.148   3.444  1.00  0.00     0.174 HD
ENDBRANCH   6  26
TORSDOF 4
ENDMDL
MODEL 7
REMARK VINA RESULT:      -7.9      3.980      6.565
REMARK  4 active torsions:
REMARK  status: ('A' for Active; 'I' for Inactive)
REMARK    1  A    between atoms: O_2  and  C_3 
REMARK    2  A    between atoms: C_6  and  C_7 
REMARK    3  A    between atoms: C_12  and  N_13 
REMARK    4  A    between atoms: C_15  and  C_16 
ROOT
HETATM    1  C   UNL     1      40.573 -16.862   2.558  1.00  0.00     0.135 C 
HETATM    2  N   UNL     1      40.210 -15.717   3.384  1.00  0.00    -0.214 N 
HETATM    3  C   UNL     1      40.728 -14.497   3.129  1.00  0.00     0.736 A 
HETATM    4  N   UNL     1      41.385 -14.227   1.957  1.00  0.00    -0.074 N 
HETATM    5  N   UNL     1      41.937 -13.001   1.983  1.00  0.00     0.037 NA
HETATM    6  C   UNL     1      41.480 -12.547   3.148  1.00  0.00     0.753 A 
HETATM    7  N   UNL     1      40.764 -13.436   3.892  1.00  0.00     0.131 NA
HETATM    8  C   UNL     1      41.644 -15.224   0.924  1.00  0.00     0.164 C 
HETATM    9  C   UNL     1      40.698 -16.427   1.086  1.00  0.00     0.063 C 
HETATM   10  H   UNL     1      39.963 -15.920   4.348  1.00  0.00     0.178 HD
ENDROOT
BRANCH   1  11
HETATM   11  C   UNL     1      41.795 -17.617   3.064  1.00  0.00    -0.035 A 
HETATM   12  C   UNL     1      42.226 -17.591   4.398  1.00  0.00     0.012 A 
HETATM   13  C   UNL     1      43.354 -18.312   4.800  1.00  0.00     0.037 A 
HETATM   14  C   UNL     1      44.078 -19.079   3.889  1.00  0.00     0.068 A 
HETATM   15  C   UNL     1      43.670 -19.108   2.558  1.00  0.00     0.037 A 
HETATM   16  C   UNL     1      42.541 -18.386   2.152  1.00  0.00     0.012 A 
BRANCH  14  17
HETATM   17  O   UNL     1      45.151 -19.739   4.418  1.00  0.00    -0.356 OA
HETATM   18  C   UNL     1      44.984 -21.125   4.686  1.00  0.00     0.210 C 
ENDBRANCH  14  17
ENDBRANCH   1  11
BRANCH   8  19
HETATM   19  C   UNL     1      41.534 -14.653  -0.485  1.00  0.00    -0.031 A 
HETATM   20  C   UNL     1      40.660 -15.246  -1.411  1.00  0.00     0.028 A 
HETATM   21  C   UNL     1      40.529 -14.717  -2.696  1.00  0.00     0.011 A 
HETATM   22 BR   UNL     1      39.350 -15.532  -3.929  1.00  0.00    -0.051 Br
HETATM   23  C   UNL     1      41.257 -13.592  -3.077  1.00  0.00     0.019 A 
HETATM   24  C   UNL     1      42.125 -12.992  -2.168  1.00  0.00     0.002 A 
HETATM   25  C   UNL     1      42.261 -13.516  -0.881  1.00  0.00     0.009 A 
ENDBRANCH   8  19
BRANCH   6  26
HETATM   26  N   UNL     1      41.718 -11.340   3.652  1.00  0.00    -0.229 N 
HETATM   27  H   UNL     1      41.601 -11.235   4.651  1.00  0.00     0.174 HD
HETATM   28  H   UNL     1      41.416 -10.550   3.100  1.00  0.00     0.174 HD
ENDBRANCH   6  26
TORSDOF 4
ENDMDL
MODEL 8
REMARK VINA RESULT:      -7.6      4.033      7.181
REMARK  4 active torsions:
REMARK  status: ('A' for Active; 'I' for Inactive)
REMARK    1  A    between atoms: O_2  and  C_3 
REMARK    2  A    between atoms: C_6  and  C_7 
REMARK    3  A    between atoms: C_12  and  N_13 
REMARK    4  A    between atoms: C_15  and  C_16 
ROOT
HETATM    1  C   UNL     1      43.190 -14.936   2.210  1.00  0.00     0.135 C 
HETATM    2  N   UNL     1      42.238 -14.763   1.120  1.00  0.00    -0.214 N 
HETATM    3  C   UNL     1      40.919 -14.638   1.377  1.00  0.00     0.736 A 
HETATM    4  N   UNL     1      40.454 -14.402   2.643  1.00  0.00    -0.074 N 
HETATM    5  N   UNL     1      39.110 -14.458   2.683  1.00  0.00     0.037 NA
HETATM    6  C   UNL     1      38.829 -14.618   1.393  1.00  0.00     0.753 A 
HETATM    7  N   UNL     1      39.902 -14.762   0.565  1.00  0.00     0.131 NA
HETATM    8  C   UNL     1      41.309 -14.333   3.823  1.00  0.00     0.164 C 
HETATM    9  C   UNL     1      42.771 -14.072   3.414  1.00  0.00     0.063 C 
HETATM   10  H   UNL     1      42.497 -15.177   0.229  1.00  0.00     0.178 HD
ENDROOT
BRANCH   1  11
HETATM   11  C   UNL     1      43.440 -16.393   2.577  1.00  0.00    -0.035 A 
HETATM   12  C   UNL     1      43.468 -16.867   3.896  1.00  0.00     0.012 A 
HETATM   13  C   UNL     1      43.697 -18.220   4.165  1.00  0.00     0.037 A 
HETATM   14  C   UNL     1      43.900 -19.133   3.132  1.00  0.00     0.068 A 
HETATM   15  C   UNL     1      43.885 -18.677   1.816  1.00  0.00     0.037 A 
HETATM   16  C   UNL     1      43.656 -17.323   1.544  1.00  0.00     0.012 A 
BRANCH  14  17
HETATM   17  O   UNL     1      44.103 -20.423   3.536  1.00  0.00    -0.356 OA
HETATM   18  C   UNL     1      44.371 -21.380   2.520  1.00  0.00     0.210 C 
ENDBRANCH  14  17
ENDBRANCH   1  11
BRANCH   8  19
HETATM   19  C   UNL     1      40.847 -13.282   4.824  1.00  0.00    -0.031 A 
HETATM   20  C   UNL     1      41.253 -11.946   4.670  1.00  0.00     0.028 A 
HETATM   21  C   UNL     1      40.814 -10.968   5.565  1.00  0.00     0.011 A 
HETATM   22 BR   UNL     1      41.374  -9.176   5.342  1.00  0.00    -0.051 Br
HETATM   23  C   UNL     1      39.966 -11.300   6.619  1.00  0.00     0.019 A 
HETATM   24  C   UNL     1      39.554 -12.621   6.782  1.00  0.00     0.002 A 
HETATM   25  C   UNL     1      39.988 -13.604   5.890  1.00  0.00     0.009 A 
ENDBRANCH   8  19
BRANCH   6  26
HETATM   26  N   UNL     1      37.608 -14.707   0.874  1.00  0.00    -0.229 N 
HETATM   27  H   UNL     1      36.841 -14.421   1.469  1.00  0.00     0.174 HD
HETATM   28  H   UNL     1      37.421 -15.508   0.289  1.00  0.00     0.174 HD
ENDBRANCH   6  26
TORSDOF 4
ENDMDL
MODEL 9
REMARK VINA RESULT:      -7.6      4.191      7.206
REMARK  4 active torsions:
REMARK  status: ('A' for Active; 'I' for Inactive)
REMARK    1  A    between atoms: O_2  and  C_3 
REMARK    2  A    between atoms: C_6  and  C_7 
REMARK    3  A    between atoms: C_12  and  N_13 
REMARK    4  A    between atoms: C_15  and  C_16 
ROOT
HETATM    1  C   UNL     1      40.695 -16.633   2.954  1.00  0.00     0.135 C 
HETATM    2  N   UNL     1      40.501 -16.068   4.284  1.00  0.00    -0.214 N 
HETATM    3  C   UNL     1      41.156 -14.946   4.653  1.00  0.00     0.736 A 
HETATM    4  N   UNL     1      41.802 -14.159   3.737  1.00  0.00    -0.074 N 
HETATM    5  N   UNL     1      42.499 -13.183   4.345  1.00  0.00     0.037 NA
HETATM    6  C   UNL     1      42.140 -13.372   5.612  1.00  0.00     0.753 A 
HETATM    7  N   UNL     1      41.345 -14.453   5.849  1.00  0.00     0.131 NA
HETATM    8  C   UNL     1      41.904 -14.481   2.318  1.00  0.00     0.164 C 
HETATM    9  C   UNL     1      40.824 -15.503   1.918  1.00  0.00     0.063 C 
HETATM   10  H   UNL     1      40.263 -16.726   5.021  1.00  0.00     0.178 HD
ENDROOT
BRANCH   1  11
HETATM   11  C   UNL     1      41.832 -17.645   2.881  1.00  0.00    -0.035 A 
HETATM   12  C   UNL     1      42.350 -18.143   1.678  1.00  0.00     0.012 A 
HETATM   13  C   UNL     1      43.400 -19.067   1.679  1.00  0.00     0.037 A 
HETATM   14  C   UNL     1      43.961 -19.515   2.874  1.00  0.00     0.068 A 
HETATM   15  C   UNL     1      43.451 -19.037   4.079  1.00  0.00     0.037 A 
HETATM   16  C   UNL     1      42.400 -18.112   4.080  1.00  0.00     0.012 A 
BRANCH  14  17
HETATM   17  O   UNL     1      44.984 -20.409   2.730  1.00  0.00    -0.356 OA
HETATM   18  C   UNL     1      44.640 -21.714   2.283  1.00  0.00     0.210 C 
ENDBRANCH  14  17
ENDBRANCH   1  11
BRANCH   8  19
HETATM   19  C   UNL     1      41.818 -13.247   1.427  1.00  0.00    -0.031 A 
HETATM   20  C   UNL     1      42.195 -13.335   0.077  1.00  0.00     0.028 A 
HETATM   21  C   UNL     1      42.096 -12.220  -0.757  1.00  0.00     0.011 A 
HETATM   22 BR   UNL     1      42.612 -12.358  -2.571  1.00  0.00    -0.051 Br
HETATM   23  C   UNL     1      41.619 -11.007  -0.266  1.00  0.00     0.019 A 
HETATM   24  C   UNL     1      41.239 -10.907   1.071  1.00  0.00     0.002 A 
HETATM   25  C   UNL     1      41.335 -12.018   1.910  1.00  0.00     0.009 A 
ENDBRANCH   8  19
BRANCH   6  26
HETATM   26  N   UNL     1      42.539 -12.636   6.645  1.00  0.00    -0.229 N 
HETATM   27  H   UNL     1      43.340 -12.038   6.494  1.00  0.00     0.174 HD
HETATM   28  H   UNL     1      42.495 -13.072   7.556  1.00  0.00     0.174 HD
ENDBRANCH   6  26
TORSDOF 4
ENDMDL
MODEL 10
REMARK VINA RESULT:      -7.4      4.677      7.362
REMARK  4 active torsions:
REMARK  status: ('A' for Active; 'I' for Inactive)
REMARK    1  A    between atoms: O_2  and  C_3 
REMARK    2  A    between atoms: C_6  and  C_7 
REMARK    3  A    between atoms: C_12  and  N_13 
REMARK    4  A    between atoms: C_15  and  C_16 
ROOT
HETATM    1  C   UNL     1      40.765 -16.262   0.527  1.00  0.00     0.135 C 
HETATM    2  N   UNL     1      39.567 -15.659   1.098  1.00  0.00    -0.214 N 
HETATM    3  C   UNL     1      39.531 -14.337   1.371  1.00  0.00     0.736 A 
HETATM    4  N   UNL     1      40.484 -13.479   0.891  1.00  0.00    -0.074 N 
HETATM    5  N   UNL     1      40.328 -12.246   1.405  1.00  0.00     0.037 NA
HETATM    6  C   UNL     1      39.202 -12.404   2.095  1.00  0.00     0.753 A 
HETATM    7  N   UNL     1      38.697 -13.670   2.126  1.00  0.00     0.131 NA
HETATM    8  C   UNL     1      41.642 -13.905   0.113  1.00  0.00     0.164 C 
HETATM    9  C   UNL     1      41.402 -15.300  -0.492  1.00  0.00     0.063 C 
HETATM   10  H   UNL     1      38.991 -16.265   1.675  1.00  0.00     0.178 HD
ENDROOT
BRANCH   1  11
HETATM   11  C   UNL     1      41.751 -16.768   1.572  1.00  0.00    -0.035 A 
HETATM   12  C   UNL     1      41.460 -16.844   2.941  1.00  0.00     0.012 A 
HETATM   13  C   UNL     1      42.410 -17.323   3.849  1.00  0.00     0.037 A 
HETATM   14  C   UNL     1      43.668 -17.741   3.418  1.00  0.00     0.068 A 
HETATM   15  C   UNL     1      43.977 -17.663   2.062  1.00  0.00     0.037 A 
HETATM   16  C   UNL     1      43.028 -17.183   1.151  1.00  0.00     0.012 A 
BRANCH  14  17
HETATM   17  O   UNL     1      44.493 -18.195   4.408  1.00  0.00    -0.356 OA
HETATM   18  C   UNL     1      44.557 -19.602   4.597  1.00  0.00     0.210 C 
ENDBRANCH  14  17
ENDBRANCH   1  11
BRANCH   8  19
HETATM   19  C   UNL     1      42.014 -12.912  -0.982  1.00  0.00    -0.031 A 
HETATM   20  C   UNL     1      42.637 -11.700  -0.641  1.00  0.00     0.028 A 
HETATM   21  C   UNL     1      43.007 -10.794  -1.637  1.00  0.00     0.011 A 
HETATM   22 BR   UNL     1      43.842  -9.167  -1.158  1.00  0.00    -0.051 Br
HETATM   23  C   UNL     1      42.769 -11.079  -2.979  1.00  0.00     0.019 A 
HETATM   24  C   UNL     1      42.153 -12.278  -3.331  1.00  0.00     0.002 A 
HETATM   25  C   UNL     1      41.781 -13.189  -2.340  1.00  0.00     0.009 A 
ENDBRANCH   8  19
BRANCH   6  26
HETATM   26  N   UNL     1      38.582 -11.455   2.789  1.00  0.00    -0.229 N 
HETATM   27  H   UNL     1      39.158 -10.886   3.395  1.00  0.00     0.174 HD
HETATM   28  H   UNL     1      37.669 -11.684   3.157  1.00  0.00     0.174 HD
ENDBRANCH   6  26
TORSDOF 4
ENDMDL
