MODEL 1
REMARK VINA RESULT:      -8.4      0.000      0.000
REMARK  7 active torsions:
REMARK  status: ('A' for Active; 'I' for Inactive)
REMARK    1  A    between atoms: O_2  and  C_3 
REMARK    2  A    between atoms: C_6  and  C_7 
REMARK    3  A    between atoms: C_7  and  C_8 
REMARK       I    between atoms: C_8  and  N_9 
REMARK    4  A    between atoms: N_9  and  C_10 
REMARK    5  A    between atoms: C_10  and  C_11 
REMARK    6  A    between atoms: C_14  and  N_15 
REMARK       I    between atoms: N_15  and  C_16 
REMARK    7  A    between atoms: C_16  and  C_17 
ROOT
HETATM    1  C   UNL     1      41.215 -14.957   3.840  1.00  0.00    -0.040 A 
HETATM    2  C   UNL     1      41.599 -13.611   3.784  1.00  0.00     0.011 A 
HETATM    3  C   UNL     1      42.293 -13.017   4.847  1.00  0.00     0.030 A 
HETATM    4  C   UNL     1      42.598 -13.750   5.993  1.00  0.00     0.035 A 
HETATM    5  C   UNL     1      42.205 -15.091   6.059  1.00  0.00     0.030 A 
HETATM    6  C   UNL     1      41.522 -15.688   4.994  1.00  0.00     0.011 A 
ENDROOT
BRANCH   1   7
HETATM    7  C   UNL     1      40.429 -15.610   2.730  1.00  0.00     0.161 C 
BRANCH   7   8
HETATM    8  N   UNL     1      41.130 -16.716   2.114  1.00  0.00    -0.357 N 
HETATM    9  C   UNL     1      42.223 -16.498   1.303  1.00  0.00     0.222 C 
HETATM   10  O   UNL     1      42.574 -15.380   0.937  1.00  0.00    -0.273 OA
HETATM   11  H   UNL     1      40.999 -17.637   2.509  1.00  0.00     0.162 HD
BRANCH   9  12
HETATM   12  C   UNL     1      42.989 -17.756   0.921  1.00  0.00     0.141 C 
BRANCH  12  13
HETATM   13  C   UNL     1      43.519 -18.573   2.081  1.00  0.00    -0.049 A 
HETATM   14  C   UNL     1      43.831 -18.022   3.332  1.00  0.00     0.010 A 
HETATM   15  C   UNL     1      44.351 -18.816   4.363  1.00  0.00     0.037 A 
HETATM   16  C   UNL     1      44.581 -20.174   4.159  1.00  0.00     0.068 A 
HETATM   17  C   UNL     1      44.279 -20.731   2.915  1.00  0.00     0.037 A 
HETATM   18  C   UNL     1      43.756 -19.941   1.886  1.00  0.00     0.010 A 
BRANCH  16  19
HETATM   19  O   UNL     1      45.091 -21.051   5.075  1.00  0.00    -0.356 OA
HETATM   20  C   UNL     1      44.795 -22.427   4.878  1.00  0.00     0.210 C 
ENDBRANCH  16  19
ENDBRANCH  12  13
ENDBRANCH   9  12
ENDBRANCH   7   8
ENDBRANCH   1   7
BRANCH   4  21
HETATM   21  N   UNL     1      43.274 -13.227   7.111  1.00  0.00    -0.321 N 
HETATM   22  C   UNL     1      44.613 -13.340   7.439  1.00  0.00     0.279 C 
HETATM   23  O   UNL     1      45.458 -13.952   6.793  1.00  0.00    -0.265 OA
HETATM   24  H   UNL     1      42.723 -12.697   7.776  1.00  0.00     0.169 HD
BRANCH  22  25
HETATM   25  C   UNL     1      44.941 -12.644   8.672  1.00  0.00     0.142 A 
HETATM   26  O   UNL     1      44.379 -13.062   9.853  1.00  0.00    -0.317 OA
HETATM   27  C   UNL     1      44.847 -12.244  10.831  1.00  0.00     0.143 A 
HETATM   28  C   UNL     1      45.705 -11.307  10.307  1.00  0.00     0.027 A 
HETATM   29  C   UNL     1      45.766 -11.562   8.916  1.00  0.00     0.045 A 
ENDBRANCH  22  25
ENDBRANCH   4  21
TORSDOF 7
ENDMDL
MODEL 2
REMARK VINA RESULT:      -8.2      3.409      7.312
REMARK  7 active torsions:
REMARK  status: ('A' for Active; 'I' for Inactive)
REMARK    1  A    between atoms: O_2  and  C_3 
REMARK    2  A    between atoms: C_6  and  C_7 
REMARK    3  A    between atoms: C_7  and  C_8 
REMARK       I    between atoms: C_8  and  N_9 
REMARK    4  A    between atoms: N_9  and  C_10 
REMARK    5  A    between atoms: C_10  and  C_11 
REMARK    6  A    between atoms: C_14  and  N_15 
REMARK       I    between atoms: N_15  and  C_16 
REMARK    7  A    between atoms: C_16  and  C_17 
ROOT
HETATM    1  C   UNL     1      41.071 -16.212   4.712  1.00  0.00    -0.040 A 
HETATM    2  C   UNL     1      40.498 -14.998   4.312  1.00  0.00     0.011 A 
HETATM    3  C   UNL     1      40.172 -14.766   2.968  1.00  0.00     0.030 A 
HETATM    4  C   UNL     1      40.430 -15.734   1.998  1.00  0.00     0.035 A 
HETATM    5  C   UNL     1      41.014 -16.942   2.392  1.00  0.00     0.030 A 
HETATM    6  C   UNL     1      41.330 -17.180   3.733  1.00  0.00     0.011 A 
ENDROOT
BRANCH   1   7
HETATM    7  C   UNL     1      41.473 -16.472   6.143  1.00  0.00     0.161 C 
BRANCH   7   8
HETATM    8  N   UNL     1      42.320 -17.636   6.291  1.00  0.00    -0.357 N 
HETATM    9  C   UNL     1      43.671 -17.505   6.529  1.00  0.00     0.222 C 
HETATM   10  O   UNL     1      44.257 -16.427   6.484  1.00  0.00    -0.273 OA
HETATM   11  H   UNL     1      41.876 -18.518   6.506  1.00  0.00     0.162 HD
BRANCH   9  12
HETATM   12  C   UNL     1      44.380 -18.801   6.890  1.00  0.00     0.141 C 
BRANCH  12  13
HETATM   13  C   UNL     1      44.409 -19.852   5.799  1.00  0.00    -0.049 A 
HETATM   14  C   UNL     1      44.440 -21.229   6.058  1.00  0.00     0.010 A 
HETATM   15  C   UNL     1      44.501 -22.161   5.012  1.00  0.00     0.037 A 
HETATM   16  C   UNL     1      44.545 -21.732   3.688  1.00  0.00     0.068 A 
HETATM   17  C   UNL     1      44.522 -20.362   3.420  1.00  0.00     0.037 A 
HETATM   18  C   UNL     1      44.456 -19.432   4.462  1.00  0.00     0.010 A 
BRANCH  16  19
HETATM   19  O   UNL     1      44.616 -22.534   2.583  1.00  0.00    -0.356 OA
HETATM   20  C   UNL     1      44.090 -22.006   1.373  1.00  0.00     0.210 C 
ENDBRANCH  16  19
ENDBRANCH  12  13
ENDBRANCH   9  12
ENDBRANCH   7   8
ENDBRANCH   1   7
BRANCH   4  21
HETATM   21  N   UNL     1      40.151 -15.576   0.628  1.00  0.00    -0.321 N 
HETATM   22  C   UNL     1      40.870 -14.875  -0.323  1.00  0.00     0.279 C 
HETATM   23  O   UNL     1      41.899 -14.240  -0.116  1.00  0.00    -0.265 OA
HETATM   24  H   UNL     1      39.314 -16.026   0.274  1.00  0.00     0.169 HD
BRANCH  22  25
HETATM   25  C   UNL     1      40.269 -14.959  -1.644  1.00  0.00     0.142 A 
HETATM   26  O   UNL     1      39.139 -14.227  -1.919  1.00  0.00    -0.317 OA
HETATM   27  C   UNL     1      38.793 -14.494  -3.205  1.00  0.00     0.143 A 
HETATM   28  C   UNL     1      39.679 -15.381  -3.770  1.00  0.00     0.027 A 
HETATM   29  C   UNL     1      40.630 -15.682  -2.765  1.00  0.00     0.045 A 
ENDBRANCH  22  25
ENDBRANCH   4  21
TORSDOF 7
ENDMDL
MODEL 3
REMARK VINA RESULT:      -7.9      3.188      7.698
REMARK  7 active torsions:
REMARK  status: ('A' for Active; 'I' for Inactive)
REMARK    1  A    between atoms: O_2  and  C_3 
REMARK    2  A    between atoms: C_6  and  C_7 
REMARK    3  A    between atoms: C_7  and  C_8 
REMARK       I    between atoms: C_8  and  N_9 
REMARK    4  A    between atoms: N_9  and  C_10 
REMARK    5  A    between atoms: C_10  and  C_11 
REMARK    6  A    between atoms: C_14  and  N_15 
REMARK       I    between atoms: N_15  and  C_16 
REMARK    7  A    between atoms: C_16  and  C_17 
ROOT
HETATM    1  C   UNL     1      41.293 -14.429   3.921  1.00  0.00    -0.040 A 
HETATM    2  C   UNL     1      39.923 -14.357   3.637  1.00  0.00     0.011 A 
HETATM    3  C   UNL     1      39.444 -14.593   2.341  1.00  0.00     0.030 A 
HETATM    4  C   UNL     1      40.326 -14.885   1.301  1.00  0.00     0.035 A 
HETATM    5  C   UNL     1      41.696 -14.946   1.577  1.00  0.00     0.030 A 
HETATM    6  C   UNL     1      42.174 -14.722   2.872  1.00  0.00     0.011 A 
ENDROOT
BRANCH   1   7
HETATM    7  C   UNL     1      41.841 -14.136   5.296  1.00  0.00     0.161 C 
BRANCH   7   8
HETATM    8  N   UNL     1      42.990 -14.949   5.632  1.00  0.00    -0.357 N 
HETATM    9  C   UNL     1      42.836 -16.173   6.246  1.00  0.00     0.222 C 
HETATM   10  O   UNL     1      41.758 -16.579   6.672  1.00  0.00    -0.273 OA
HETATM   11  H   UNL     1      43.862 -14.752   5.162  1.00  0.00     0.162 HD
BRANCH   9  12
HETATM   12  C   UNL     1      44.106 -17.006   6.325  1.00  0.00     0.141 C 
BRANCH  12  13
HETATM   13  C   UNL     1      44.247 -18.081   5.266  1.00  0.00    -0.049 A 
HETATM   14  C   UNL     1      43.701 -17.971   3.980  1.00  0.00     0.010 A 
HETATM   15  C   UNL     1      43.829 -19.009   3.047  1.00  0.00     0.037 A 
HETATM   16  C   UNL     1      44.498 -20.182   3.388  1.00  0.00     0.068 A 
HETATM   17  C   UNL     1      45.040 -20.304   4.668  1.00  0.00     0.037 A 
HETATM   18  C   UNL     1      44.916 -19.268   5.598  1.00  0.00     0.010 A 
BRANCH  16  19
HETATM   19  O   UNL     1      44.683 -21.268   2.577  1.00  0.00    -0.356 OA
HETATM   20  C   UNL     1      43.628 -21.582   1.678  1.00  0.00     0.210 C 
ENDBRANCH  16  19
ENDBRANCH  12  13
ENDBRANCH   9  12
ENDBRANCH   7   8
ENDBRANCH   1   7
BRANCH   4  21
HETATM   21  N   UNL     1      39.931 -15.118  -0.029  1.00  0.00    -0.321 N 
HETATM   22  C   UNL     1      39.948 -14.241  -1.099  1.00  0.00     0.279 C 
HETATM   23  O   UNL     1      40.307 -13.069  -1.057  1.00  0.00    -0.265 OA
HETATM   24  H   UNL     1      39.584 -16.044  -0.252  1.00  0.00     0.169 HD
BRANCH  22  25
HETATM   25  C   UNL     1      39.476 -14.858  -2.328  1.00  0.00     0.142 A 
HETATM   26  O   UNL     1      38.199 -14.603  -2.764  1.00  0.00    -0.317 OA
HETATM   27  C   UNL     1      38.024 -15.302  -3.916  1.00  0.00     0.143 A 
HETATM   28  C   UNL     1      39.163 -16.001  -4.236  1.00  0.00     0.027 A 
HETATM   29  C   UNL     1      40.100 -15.717  -3.213  1.00  0.00     0.045 A 
ENDBRANCH  22  25
ENDBRANCH   4  21
TORSDOF 7
ENDMDL
MODEL 4
REMARK VINA RESULT:      -7.6      2.773      9.088
REMARK  7 active torsions:
REMARK  status: ('A' for Active; 'I' for Inactive)
REMARK    1  A    between atoms: O_2  and  C_3 
REMARK    2  A    between atoms: C_6  and  C_7 
REMARK    3  A    between atoms: C_7  and  C_8 
REMARK       I    between atoms: C_8  and  N_9 
REMARK    4  A    between atoms: N_9  and  C_10 
REMARK    5  A    between atoms: C_10  and  C_11 
REMARK    6  A    between atoms: C_14  and  N_15 
REMARK       I    between atoms: N_15  and  C_16 
REMARK    7  A    between atoms: C_16  and  C_17 
ROOT
HETATM    1  C   UNL     1      40.429 -14.766   5.359  1.00  0.00    -0.040 A 
HETATM    2  C   UNL     1      40.812 -14.746   4.011  1.00  0.00     0.011 A 
HETATM    3  C   UNL     1      41.406 -15.866   3.415  1.00  0.00     0.030 A 
HETATM    4  C   UNL     1      41.649 -17.020   4.159  1.00  0.00     0.035 A 
HETATM    5  C   UNL     1      41.281 -17.041   5.508  1.00  0.00     0.030 A 
HETATM    6  C   UNL     1      40.677 -15.928   6.101  1.00  0.00     0.011 A 
ENDROOT
BRANCH   1   7
HETATM    7  C   UNL     1      39.828 -13.561   6.037  1.00  0.00     0.161 C 
BRANCH   7   8
HETATM    8  N   UNL     1      40.814 -12.567   6.403  1.00  0.00    -0.357 N 
HETATM    9  C   UNL     1      40.431 -11.328   6.872  1.00  0.00     0.222 C 
HETATM   10  O   UNL     1      39.265 -10.941   6.869  1.00  0.00    -0.273 OA
HETATM   11  H   UNL     1      41.756 -12.881   6.587  1.00  0.00     0.162 HD
BRANCH   9  12
HETATM   12  C   UNL     1      41.566 -10.484   7.430  1.00  0.00     0.141 C 
BRANCH  12  13
HETATM   13  C   UNL     1      41.881 -10.703   8.896  1.00  0.00    -0.049 A 
HETATM   14  C   UNL     1      40.916 -10.631   9.910  1.00  0.00     0.010 A 
HETATM   15  C   UNL     1      41.265 -10.808  11.255  1.00  0.00     0.037 A 
HETATM   16  C   UNL     1      42.589 -11.051  11.614  1.00  0.00     0.068 A 
HETATM   17  C   UNL     1      43.558 -11.119  10.612  1.00  0.00     0.037 A 
HETATM   18  C   UNL     1      43.211 -10.946   9.269  1.00  0.00     0.010 A 
BRANCH  16  19
HETATM   19  O   UNL     1      43.059 -11.231  12.885  1.00  0.00    -0.356 OA
HETATM   20  C   UNL     1      42.407 -10.504  13.917  1.00  0.00     0.210 C 
ENDBRANCH  16  19
ENDBRANCH  12  13
ENDBRANCH   9  12
ENDBRANCH   7   8
ENDBRANCH   1   7
BRANCH   4  21
HETATM   21  N   UNL     1      42.256 -18.181   3.645  1.00  0.00    -0.321 N 
HETATM   22  C   UNL     1      43.528 -18.669   3.888  1.00  0.00     0.279 C 
HETATM   23  O   UNL     1      44.370 -18.140   4.607  1.00  0.00    -0.265 OA
HETATM   24  H   UNL     1      41.705 -18.745   3.008  1.00  0.00     0.169 HD
BRANCH  22  25
HETATM   25  C   UNL     1      43.787 -19.913   3.182  1.00  0.00     0.142 A 
HETATM   26  O   UNL     1      44.527 -20.894   3.795  1.00  0.00    -0.317 OA
HETATM   27  C   UNL     1      44.619 -21.930   2.920  1.00  0.00     0.143 A 
HETATM   28  C   UNL     1      43.948 -21.640   1.756  1.00  0.00     0.027 A 
HETATM   29  C   UNL     1      43.412 -20.340   1.923  1.00  0.00     0.045 A 
ENDBRANCH  22  25
ENDBRANCH   4  21
TORSDOF 7
ENDMDL
MODEL 5
REMARK VINA RESULT:      -7.4      2.656      6.818
REMARK  7 active torsions:
REMARK  status: ('A' for Active; 'I' for Inactive)
REMARK    1  A    between atoms: O_2  and  C_3 
REMARK    2  A    between atoms: C_6  and  C_7 
REMARK    3  A    between atoms: C_7  and  C_8 
REMARK       I    between atoms: C_8  and  N_9 
REMARK    4  A    between atoms: N_9  and  C_10 
REMARK    5  A    between atoms: C_10  and  C_11 
REMARK    6  A    between atoms: C_14  and  N_15 
REMARK       I    between atoms: N_15  and  C_16 
REMARK    7  A    between atoms: C_16  and  C_17 
ROOT
HETATM    1  C   UNL     1      42.980 -14.021   5.323  1.00  0.00    -0.040 A 
HETATM    2  C   UNL     1      41.637 -13.640   5.430  1.00  0.00     0.011 A 
HETATM    3  C   UNL     1      40.834 -13.505   4.288  1.00  0.00     0.030 A 
HETATM    4  C   UNL     1      41.365 -13.728   3.019  1.00  0.00     0.035 A 
HETATM    5  C   UNL     1      42.710 -14.096   2.906  1.00  0.00     0.030 A 
HETATM    6  C   UNL     1      43.508 -14.242   4.045  1.00  0.00     0.011 A 
ENDROOT
BRANCH   1   7
HETATM    7  C   UNL     1      43.878 -14.132   6.531  1.00  0.00     0.161 C 
BRANCH   7   8
HETATM    8  N   UNL     1      44.656 -15.352   6.548  1.00  0.00    -0.357 N 
HETATM    9  C   UNL     1      44.083 -16.552   6.912  1.00  0.00     0.222 C 
HETATM   10  O   UNL     1      42.950 -16.640   7.377  1.00  0.00    -0.273 OA
HETATM   11  H   UNL     1      45.519 -15.369   6.024  1.00  0.00     0.162 HD
BRANCH   9  12
HETATM   12  C   UNL     1      44.956 -17.772   6.660  1.00  0.00     0.141 C 
BRANCH  12  13
HETATM   13  C   UNL     1      44.632 -18.556   5.405  1.00  0.00    -0.049 A 
HETATM   14  C   UNL     1      45.051 -19.876   5.192  1.00  0.00     0.010 A 
HETATM   15  C   UNL     1      44.754 -20.546   3.998  1.00  0.00     0.037 A 
HETATM   16  C   UNL     1      44.041 -19.904   2.988  1.00  0.00     0.068 A 
HETATM   17  C   UNL     1      43.624 -18.587   3.188  1.00  0.00     0.037 A 
HETATM   18  C   UNL     1      43.917 -17.918   4.381  1.00  0.00     0.010 A 
BRANCH  16  19
HETATM   19  O   UNL     1      43.697 -20.440   1.779  1.00  0.00    -0.356 OA
HETATM   20  C   UNL     1      43.900 -21.838   1.617  1.00  0.00     0.210 C 
ENDBRANCH  16  19
ENDBRANCH  12  13
ENDBRANCH   9  12
ENDBRANCH   7   8
ENDBRANCH   1   7
BRANCH   4  21
HETATM   21  N   UNL     1      40.637 -13.597   1.822  1.00  0.00    -0.321 N 
HETATM   22  C   UNL     1      40.234 -14.588   0.945  1.00  0.00     0.279 C 
HETATM   23  O   UNL     1      40.470 -15.786   1.063  1.00  0.00    -0.265 OA
HETATM   24  H   UNL     1      40.364 -12.660   1.549  1.00  0.00     0.169 HD
BRANCH  22  25
HETATM   25  C   UNL     1      39.479 -14.059  -0.179  1.00  0.00     0.142 A 
HETATM   26  O   UNL     1      40.119 -13.828  -1.373  1.00  0.00    -0.317 OA
HETATM   27  C   UNL     1      39.191 -13.336  -2.235  1.00  0.00     0.143 A 
HETATM   28  C   UNL     1      37.962 -13.249  -1.624  1.00  0.00     0.027 A 
HETATM   29  C   UNL     1      38.146 -13.713  -0.299  1.00  0.00     0.045 A 
ENDBRANCH  22  25
ENDBRANCH   4  21
TORSDOF 7
ENDMDL
MODEL 6
REMARK VINA RESULT:      -7.4      2.123      2.590
REMARK  7 active torsions:
REMARK  status: ('A' for Active; 'I' for Inactive)
REMARK    1  A    between atoms: O_2  and  C_3 
REMARK    2  A    between atoms: C_6  and  C_7 
REMARK    3  A    between atoms: C_7  and  C_8 
REMARK       I    between atoms: C_8  and  N_9 
REMARK    4  A    between atoms: N_9  and  C_10 
REMARK    5  A    between atoms: C_10  and  C_11 
REMARK    6  A    between atoms: C_14  and  N_15 
REMARK       I    between atoms: N_15  and  C_16 
REMARK    7  A    between atoms: C_16  and  C_17 
ROOT
HETATM    1  C   UNL     1      39.983 -13.330   3.672  1.00  0.00    -0.040 A 
HETATM    2  C   UNL     1      39.817 -13.997   4.893  1.00  0.00     0.011 A 
HETATM    3  C   UNL     1      40.481 -13.560   6.047  1.00  0.00     0.030 A 
HETATM    4  C   UNL     1      41.340 -12.462   5.998  1.00  0.00     0.035 A 
HETATM    5  C   UNL     1      41.520 -11.802   4.779  1.00  0.00     0.030 A 
HETATM    6  C   UNL     1      40.848 -12.229   3.629  1.00  0.00     0.011 A 
ENDROOT
BRANCH   1   7
HETATM    7  C   UNL     1      39.315 -13.805   2.405  1.00  0.00     0.161 C 
BRANCH   7   8
HETATM    8  N   UNL     1      39.439 -15.232   2.200  1.00  0.00    -0.357 N 
HETATM    9  C   UNL     1      40.540 -15.763   1.563  1.00  0.00     0.222 C 
HETATM   10  O   UNL     1      41.392 -15.073   1.010  1.00  0.00    -0.273 OA
HETATM   11  H   UNL     1      38.872 -15.842   2.772  1.00  0.00     0.162 HD
BRANCH   9  12
HETATM   12  C   UNL     1      40.639 -17.279   1.628  1.00  0.00     0.141 C 
BRANCH  12  13
HETATM   13  C   UNL     1      41.704 -17.822   2.559  1.00  0.00    -0.049 A 
HETATM   14  C   UNL     1      41.732 -17.558   3.935  1.00  0.00     0.010 A 
HETATM   15  C   UNL     1      42.759 -18.057   4.748  1.00  0.00     0.037 A 
HETATM   16  C   UNL     1      43.785 -18.820   4.197  1.00  0.00     0.068 A 
HETATM   17  C   UNL     1      43.770 -19.084   2.827  1.00  0.00     0.037 A 
HETATM   18  C   UNL     1      42.744 -18.591   2.015  1.00  0.00     0.010 A 
BRANCH  16  19
HETATM   19  O   UNL     1      44.845 -19.355   4.875  1.00  0.00    -0.356 OA
HETATM   20  C   UNL     1      45.159 -20.714   4.604  1.00  0.00     0.210 C 
ENDBRANCH  16  19
ENDBRANCH  12  13
ENDBRANCH   9  12
ENDBRANCH   7   8
ENDBRANCH   1   7
BRANCH   4  21
HETATM   21  N   UNL     1      42.059 -11.970   7.103  1.00  0.00    -0.321 N 
HETATM   22  C   UNL     1      41.754 -10.897   7.922  1.00  0.00     0.279 C 
HETATM   23  O   UNL     1      40.779 -10.162   7.803  1.00  0.00    -0.265 OA
HETATM   24  H   UNL     1      42.918 -12.451   7.345  1.00  0.00     0.169 HD
BRANCH  22  25
HETATM   25  C   UNL     1      42.737 -10.709   8.976  1.00  0.00     0.142 A 
HETATM   26  O   UNL     1      44.017 -11.172   8.795  1.00  0.00    -0.317 OA
HETATM   27  C   UNL     1      44.714 -10.871   9.922  1.00  0.00     0.143 A 
HETATM   28  C   UNL     1      43.911 -10.218  10.827  1.00  0.00     0.027 A 
HETATM   29  C   UNL     1      42.636 -10.113  10.219  1.00  0.00     0.045 A 
ENDBRANCH  22  25
ENDBRANCH   4  21
TORSDOF 7
ENDMDL
MODEL 7
REMARK VINA RESULT:      -7.3      2.739      9.822
REMARK  7 active torsions:
REMARK  status: ('A' for Active; 'I' for Inactive)
REMARK    1  A    between atoms: O_2  and  C_3 
REMARK    2  A    between atoms: C_6  and  C_7 
REMARK    3  A    between atoms: C_7  and  C_8 
REMARK       I    between atoms: C_8  and  N_9 
REMARK    4  A    between atoms: N_9  and  C_10 
REMARK    5  A    between atoms: C_10  and  C_11 
REMARK    6  A    between atoms: C_14  and  N_15 
REMARK       I    between atoms: N_15  and  C_16 
REMARK    7  A    between atoms: C_16  and  C_17 
ROOT
HETATM    1  C   UNL     1      42.509 -13.909   5.610  1.00  0.00    -0.040 A 
HETATM    2  C   UNL     1      43.121 -13.933   4.350  1.00  0.00     0.011 A 
HETATM    3  C   UNL     1      43.350 -15.145   3.684  1.00  0.00     0.030 A 
HETATM    4  C   UNL     1      42.991 -16.356   4.273  1.00  0.00     0.035 A 
HETATM    5  C   UNL     1      42.392 -16.339   5.537  1.00  0.00     0.030 A 
HETATM    6  C   UNL     1      42.153 -15.130   6.197  1.00  0.00     0.011 A 
ENDROOT
BRANCH   1   7
HETATM    7  C   UNL     1      42.291 -12.624   6.369  1.00  0.00     0.161 C 
BRANCH   7   8
HETATM    8  N   UNL     1      43.194 -12.466   7.488  1.00  0.00    -0.357 N 
HETATM    9  C   UNL     1      43.153 -11.338   8.279  1.00  0.00     0.222 C 
HETATM   10  O   UNL     1      42.471 -10.354   8.007  1.00  0.00    -0.273 OA
HETATM   11  H   UNL     1      43.642 -13.295   7.854  1.00  0.00     0.162 HD
BRANCH   9  12
HETATM   12  C   UNL     1      43.995 -11.420   9.543  1.00  0.00     0.141 C 
BRANCH  12  13
HETATM   13  C   UNL     1      43.316 -10.939  10.809  1.00  0.00    -0.049 A 
HETATM   14  C   UNL     1      43.984 -10.237  11.822  1.00  0.00     0.010 A 
HETATM   15  C   UNL     1      43.318  -9.844  12.991  1.00  0.00     0.037 A 
HETATM   16  C   UNL     1      41.973 -10.156  13.173  1.00  0.00     0.068 A 
HETATM   17  C   UNL     1      41.300 -10.859  12.174  1.00  0.00     0.037 A 
HETATM   18  C   UNL     1      41.962 -11.249  11.005  1.00  0.00     0.010 A 
BRANCH  16  19
HETATM   19  O   UNL     1      41.214  -9.840  14.266  1.00  0.00    -0.356 OA
HETATM   20  C   UNL     1      41.821  -9.011  15.249  1.00  0.00     0.210 C 
ENDBRANCH  16  19
ENDBRANCH  12  13
ENDBRANCH   9  12
ENDBRANCH   7   8
ENDBRANCH   1   7
BRANCH   4  21
HETATM   21  N   UNL     1      43.200 -17.616   3.683  1.00  0.00    -0.321 N 
HETATM   22  C   UNL     1      44.055 -18.626   4.088  1.00  0.00     0.279 C 
HETATM   23  O   UNL     1      44.809 -18.580   5.054  1.00  0.00    -0.265 OA
HETATM   24  H   UNL     1      42.665 -17.829   2.849  1.00  0.00     0.169 HD
BRANCH  22  25
HETATM   25  C   UNL     1      43.978 -19.794   3.225  1.00  0.00     0.142 A 
HETATM   26  O   UNL     1      44.752 -20.893   3.506  1.00  0.00    -0.317 OA
HETATM   27  C   UNL     1      44.490 -21.822   2.551  1.00  0.00     0.143 A 
HETATM   28  C   UNL     1      43.557 -21.349   1.659  1.00  0.00     0.027 A 
HETATM   29  C   UNL     1      43.226 -20.041   2.092  1.00  0.00     0.045 A 
ENDBRANCH  22  25
ENDBRANCH   4  21
TORSDOF 7
ENDMDL
MODEL 8
REMARK VINA RESULT:      -7.0      3.023      3.484
REMARK  7 active torsions:
REMARK  status: ('A' for Active; 'I' for Inactive)
REMARK    1  A    between atoms: O_2  and  C_3 
REMARK    2  A    between atoms: C_6  and  C_7 
REMARK    3  A    between atoms: C_7  and  C_8 
REMARK       I    between atoms: C_8  and  N_9 
REMARK    4  A    between atoms: N_9  and  C_10 
REMARK    5  A    between atoms: C_10  and  C_11 
REMARK    6  A    between atoms: C_14  and  N_15 
REMARK       I    between atoms: N_15  and  C_16 
REMARK    7  A    between atoms: C_16  and  C_17 
ROOT
HETATM    1  C   UNL     1      39.927 -13.472   3.370  1.00  0.00    -0.040 A 
HETATM    2  C   UNL     1      40.625 -14.144   4.381  1.00  0.00     0.011 A 
HETATM    3  C   UNL     1      40.609 -13.673   5.701  1.00  0.00     0.030 A 
HETATM    4  C   UNL     1      39.913 -12.511   6.031  1.00  0.00     0.035 A 
HETATM    5  C   UNL     1      39.225 -11.829   5.022  1.00  0.00     0.030 A 
HETATM    6  C   UNL     1      39.230 -12.305   3.707  1.00  0.00     0.011 A 
ENDROOT
BRANCH   1   7
HETATM    7  C   UNL     1      39.963 -13.932   1.933  1.00  0.00     0.161 C 
BRANCH   7   8
HETATM    8  N   UNL     1      40.011 -15.372   1.801  1.00  0.00    -0.357 N 
HETATM    9  C   UNL     1      41.033 -15.986   1.108  1.00  0.00     0.222 C 
HETATM   10  O   UNL     1      41.863 -15.365   0.449  1.00  0.00    -0.273 OA
HETATM   11  H   UNL     1      39.469 -15.925   2.450  1.00  0.00     0.162 HD
BRANCH   9  12
HETATM   12  C   UNL     1      41.075 -17.499   1.252  1.00  0.00     0.141 C 
BRANCH  12  13
HETATM   13  C   UNL     1      42.117 -18.033   2.214  1.00  0.00    -0.049 A 
HETATM   14  C   UNL     1      43.137 -18.915   1.832  1.00  0.00     0.010 A 
HETATM   15  C   UNL     1      44.057 -19.407   2.768  1.00  0.00     0.037 A 
HETATM   16  C   UNL     1      43.967 -19.034   4.107  1.00  0.00     0.068 A 
HETATM   17  C   UNL     1      42.951 -18.161   4.498  1.00  0.00     0.037 A 
HETATM   18  C   UNL     1      42.035 -17.666   3.565  1.00  0.00     0.010 A 
BRANCH  16  19
HETATM   19  O   UNL     1      44.791 -19.449   5.116  1.00  0.00    -0.356 OA
HETATM   20  C   UNL     1      44.167 -20.005   6.265  1.00  0.00     0.210 C 
ENDBRANCH  16  19
ENDBRANCH  12  13
ENDBRANCH   9  12
ENDBRANCH   7   8
ENDBRANCH   1   7
BRANCH   4  21
HETATM   21  N   UNL     1      39.860 -11.959   7.324  1.00  0.00    -0.321 N 
HETATM   22  C   UNL     1      40.673 -10.989   7.882  1.00  0.00     0.279 C 
HETATM   23  O   UNL     1      41.620 -10.443   7.324  1.00  0.00    -0.265 OA
HETATM   24  H   UNL     1      39.138 -12.309   7.945  1.00  0.00     0.169 HD
BRANCH  22  25
HETATM   25  C   UNL     1      40.293 -10.667   9.248  1.00  0.00     0.142 A 
HETATM   26  O   UNL     1      41.156 -10.959  10.275  1.00  0.00    -0.317 OA
HETATM   27  C   UNL     1      40.555 -10.562  11.427  1.00  0.00     0.143 A 
HETATM   28  C   UNL     1      39.321 -10.015  11.165  1.00  0.00     0.027 A 
HETATM   29  C   UNL     1      39.150 -10.082   9.761  1.00  0.00     0.045 A 
ENDBRANCH  22  25
ENDBRANCH   4  21
TORSDOF 7
ENDMDL
MODEL 9
REMARK VINA RESULT:      -6.9      3.654      7.957
REMARK  7 active torsions:
REMARK  status: ('A' for Active; 'I' for Inactive)
REMARK    1  A    between atoms: O_2  and  C_3 
REMARK    2  A    between atoms: C_6  and  C_7 
REMARK    3  A    between atoms: C_7  and  C_8 
REMARK       I    between atoms: C_8  and  N_9 
REMARK    4  A    between atoms: N_9  and  C_10 
REMARK    5  A    between atoms: C_10  and  C_11 
REMARK    6  A    between atoms: C_14  and  N_15 
REMARK       I    between atoms: N_15  and  C_16 
REMARK    7  A    between atoms: C_16  and  C_17 
ROOT
HETATM    1  C   UNL     1      40.604 -14.858   5.357  1.00  0.00    -0.040 A 
HETATM    2  C   UNL     1      41.106 -15.833   6.227  1.00  0.00     0.011 A 
HETATM    3  C   UNL     1      41.708 -16.998   5.732  1.00  0.00     0.030 A 
HETATM    4  C   UNL     1      41.802 -17.219   4.358  1.00  0.00     0.035 A 
HETATM    5  C   UNL     1      41.290 -16.253   3.485  1.00  0.00     0.030 A 
HETATM    6  C   UNL     1      40.700 -15.086   3.978  1.00  0.00     0.011 A 
ENDROOT
BRANCH   1   7
HETATM    7  C   UNL     1      39.912 -13.616   5.862  1.00  0.00     0.161 C 
BRANCH   7   8
HETATM    8  N   UNL     1      39.334 -12.819   4.802  1.00  0.00    -0.357 N 
HETATM    9  C   UNL     1      39.973 -11.691   4.334  1.00  0.00     0.222 C 
HETATM   10  O   UNL     1      40.970 -11.215   4.870  1.00  0.00    -0.273 OA
HETATM   11  H   UNL     1      38.626 -13.247   4.221  1.00  0.00     0.162 HD
BRANCH   9  12
HETATM   12  C   UNL     1      39.366 -11.095   3.073  1.00  0.00     0.141 C 
BRANCH  12  13
HETATM   13  C   UNL     1      39.381 -11.996   1.855  1.00  0.00    -0.049 A 
HETATM   14  C   UNL     1      38.231 -12.598   1.328  1.00  0.00     0.010 A 
HETATM   15  C   UNL     1      38.304 -13.451   0.219  1.00  0.00     0.037 A 
HETATM   16  C   UNL     1      39.531 -13.728  -0.378  1.00  0.00     0.068 A 
HETATM   17  C   UNL     1      40.684 -13.138   0.143  1.00  0.00     0.037 A 
HETATM   18  C   UNL     1      40.612 -12.283   1.248  1.00  0.00     0.010 A 
BRANCH  16  19
HETATM   19  O   UNL     1      39.738 -14.546  -1.453  1.00  0.00    -0.356 OA
HETATM   20  C   UNL     1      40.500 -14.012  -2.527  1.00  0.00     0.210 C 
ENDBRANCH  16  19
ENDBRANCH  12  13
ENDBRANCH   9  12
ENDBRANCH   7   8
ENDBRANCH   1   7
BRANCH   4  21
HETATM   21  N   UNL     1      42.373 -18.366   3.778  1.00  0.00    -0.321 N 
HETATM   22  C   UNL     1      43.647 -18.877   3.951  1.00  0.00     0.279 C 
HETATM   23  O   UNL     1      44.524 -18.385   4.653  1.00  0.00    -0.265 OA
HETATM   24  H   UNL     1      41.790 -18.901   3.144  1.00  0.00     0.169 HD
BRANCH  22  25
HETATM   25  C   UNL     1      43.862 -20.097   3.191  1.00  0.00     0.142 A 
HETATM   26  O   UNL     1      44.479 -21.167   3.792  1.00  0.00    -0.317 OA
HETATM   27  C   UNL     1      44.554 -22.158   2.865  1.00  0.00     0.143 A 
HETATM   28  C   UNL     1      43.994 -21.752   1.677  1.00  0.00     0.027 A 
HETATM   29  C   UNL     1      43.547 -20.424   1.885  1.00  0.00     0.045 A 
ENDBRANCH  22  25
ENDBRANCH   4  21
TORSDOF 7
ENDMDL
MODEL 10
REMARK VINA RESULT:      -6.8      3.187      9.899
REMARK  7 active torsions:
REMARK  status: ('A' for Active; 'I' for Inactive)
REMARK    1  A    between atoms: O_2  and  C_3 
REMARK    2  A    between atoms: C_6  and  C_7 
REMARK    3  A    between atoms: C_7  and  C_8 
REMARK       I    between atoms: C_8  and  N_9 
REMARK    4  A    between atoms: N_9  and  C_10 
REMARK    5  A    between atoms: C_10  and  C_11 
REMARK    6  A    between atoms: C_14  and  N_15 
REMARK       I    between atoms: N_15  and  C_16 
REMARK    7  A    between atoms: C_16  and  C_17 
ROOT
HETATM    1  C   UNL     1      43.729 -14.691   5.630  1.00  0.00    -0.040 A 
HETATM    2  C   UNL     1      43.321 -15.948   5.164  1.00  0.00     0.011 A 
HETATM    3  C   UNL     1      42.820 -16.105   3.864  1.00  0.00     0.030 A 
HETATM    4  C   UNL     1      42.699 -15.007   3.013  1.00  0.00     0.035 A 
HETATM    5  C   UNL     1      43.093 -13.748   3.478  1.00  0.00     0.030 A 
HETATM    6  C   UNL     1      43.604 -13.592   4.771  1.00  0.00     0.011 A 
ENDROOT
BRANCH   1   7
HETATM    7  C   UNL     1      44.230 -14.486   7.038  1.00  0.00     0.161 C 
BRANCH   7   8
HETATM    8  N   UNL     1      43.761 -13.252   7.631  1.00  0.00    -0.357 N 
HETATM    9  C   UNL     1      44.539 -12.560   8.534  1.00  0.00     0.222 C 
HETATM   10  O   UNL     1      45.585 -13.006   8.998  1.00  0.00    -0.273 OA
HETATM   11  H   UNL     1      43.008 -12.761   7.168  1.00  0.00     0.162 HD
BRANCH   9  12
HETATM   12  C   UNL     1      44.017 -11.176   8.890  1.00  0.00     0.141 C 
BRANCH  12  13
HETATM   13  C   UNL     1      43.316 -11.068  10.228  1.00  0.00    -0.049 A 
HETATM   14  C   UNL     1      43.985 -11.158  11.457  1.00  0.00     0.010 A 
HETATM   15  C   UNL     1      43.285 -11.086  12.669  1.00  0.00     0.037 A 
HETATM   16  C   UNL     1      41.900 -10.935  12.675  1.00  0.00     0.068 A 
HETATM   17  C   UNL     1      41.224 -10.851  11.457  1.00  0.00     0.037 A 
HETATM   18  C   UNL     1      41.922 -10.919  10.246  1.00  0.00     0.010 A 
BRANCH  16  19
HETATM   19  O   UNL     1      41.103 -10.862  13.783  1.00  0.00    -0.356 OA
HETATM   20  C   UNL     1      41.509  -9.964  14.806  1.00  0.00     0.210 C 
ENDBRANCH  16  19
ENDBRANCH  12  13
ENDBRANCH   9  12
ENDBRANCH   7   8
ENDBRANCH   1   7
BRANCH   4  21
HETATM   21  N   UNL     1      42.191 -15.073   1.703  1.00  0.00    -0.321 N 
HETATM   22  C   UNL     1      40.888 -14.901   1.274  1.00  0.00     0.279 C 
HETATM   23  O   UNL     1      39.922 -14.670   1.995  1.00  0.00    -0.265 OA
HETATM   24  H   UNL     1      42.853 -15.275   0.962  1.00  0.00     0.169 HD
BRANCH  22  25
HETATM   25  C   UNL     1      40.758 -15.029  -0.169  1.00  0.00     0.142 A 
HETATM   26  O   UNL     1      39.927 -14.174  -0.850  1.00  0.00    -0.317 OA
HETATM   27  C   UNL     1      39.992 -14.516  -2.164  1.00  0.00     0.143 A 
HETATM   28  C   UNL     1      40.853 -15.571  -2.346  1.00  0.00     0.027 A 
HETATM   29  C   UNL     1      41.347 -15.904  -1.062  1.00  0.00     0.045 A 
ENDBRANCH  22  25
ENDBRANCH   4  21
TORSDOF 7
ENDMDL
