MODEL 1
REMARK VINA RESULT:      -7.2      0.000      0.000
REMARK  8 active torsions:
REMARK  status: ('A' for Active; 'I' for Inactive)
REMARK    1  A    between atoms: C_6  and  C_7 
REMARK    2  A    between atoms: C_12  and  C_13 
REMARK    3  A    between atoms: C_13  and  N_14 
REMARK    4  A    between atoms: N_14  and  C_16 
REMARK    5  A    between atoms: N_14  and  C_23 
REMARK    6  A    between atoms: C_16  and  C_17 
REMARK    7  A    between atoms: C_23  and  C_24 
REMARK    8  A    between atoms: C_24  and  O_25 
ROOT
HETATM    1  C   UNL     1      43.722 -19.203   6.514  1.00  0.00     0.069 A 
HETATM    2  N   UNL     1      43.353 -19.930   7.620  1.00  0.00    -0.277 N 
HETATM    3  H   UNL     1      42.900 -19.596   8.467  1.00  0.00     0.189 HD
HETATM    4  N   UNL     1      43.627 -21.239   7.515  1.00  0.00    -0.186 NA
HETATM    5  C   UNL     1      44.137 -21.365   6.294  1.00  0.00     0.149 A 
HETATM    6  C   UNL     1      44.263 -20.125   5.627  1.00  0.00     0.016 A 
ENDROOT
BRANCH   6   7
HETATM    7  C   UNL     1      44.831 -19.905   4.275  1.00  0.00     0.277 C 
BRANCH   7   8
HETATM    8  N   UNL     1      43.844 -19.373   3.271  1.00  0.00    -0.061 N 
HETATM    9  H   UNL     1      42.962 -19.219   3.798  1.00  0.00     0.280 HD
BRANCH   8  10
HETATM   10  C   UNL     1      44.176 -18.019   2.697  1.00  0.00     0.273 C 
BRANCH  10  11
HETATM   11  C   UNL     1      43.038 -17.033   2.637  1.00  0.00    -0.033 A 
HETATM   12  C   UNL     1      41.700 -17.455   2.598  1.00  0.00     0.009 A 
HETATM   13  C   UNL     1      40.662 -16.524   2.520  1.00  0.00     0.001 A 
HETATM   14  C   UNL     1      40.946 -15.161   2.491  1.00  0.00     0.000 A 
HETATM   15  C   UNL     1      42.266 -14.726   2.550  1.00  0.00     0.001 A 
HETATM   16  C   UNL     1      43.306 -15.654   2.628  1.00  0.00     0.009 A 
ENDBRANCH  10  11
ENDBRANCH   8  10
BRANCH   8  17
HETATM   17  C   UNL     1      43.420 -20.407   2.244  1.00  0.00     0.261 C 
BRANCH  17  18
HETATM   18  C   UNL     1      44.434 -21.556   2.282  1.00  0.00     0.192 C 
BRANCH  18  19
HETATM   19  O   UNL     1      44.140 -22.399   1.164  1.00  0.00    -0.399 OA
HETATM   20  H   UNL     1      44.916 -22.384   0.567  1.00  0.00     0.209 HD
ENDBRANCH  18  19
ENDBRANCH  17  18
ENDBRANCH   8  17
ENDBRANCH   7   8
ENDBRANCH   6   7
BRANCH   1  21
HETATM   21  C   UNL     1      43.486 -17.771   6.415  1.00  0.00    -0.007 A 
HETATM   22  C   UNL     1      42.185 -17.273   6.275  1.00  0.00     0.021 A 
HETATM   23  C   UNL     1      41.943 -15.893   6.170  1.00  0.00    -0.055 A 
HETATM   24  C   UNL     1      43.030 -14.997   6.191  1.00  0.00    -0.056 A 
HETATM   25  C   UNL     1      40.529 -15.408   5.988  1.00  0.00     0.049 C 
HETATM   26  C   UNL     1      42.829 -13.508   6.083  1.00  0.00     0.049 C 
HETATM   27  C   UNL     1      44.331 -15.501   6.338  1.00  0.00     0.008 A 
HETATM   28  C   UNL     1      44.557 -16.875   6.443  1.00  0.00     0.014 A 
ENDBRANCH   1  21
TORSDOF 8
ENDMDL
MODEL 2
REMARK VINA RESULT:      -7.0      2.548      4.540
REMARK  8 active torsions:
REMARK  status: ('A' for Active; 'I' for Inactive)
REMARK    1  A    between atoms: C_6  and  C_7 
REMARK    2  A    between atoms: C_12  and  C_13 
REMARK    3  A    between atoms: C_13  and  N_14 
REMARK    4  A    between atoms: N_14  and  C_16 
REMARK    5  A    between atoms: N_14  and  C_23 
REMARK    6  A    between atoms: C_16  and  C_17 
REMARK    7  A    between atoms: C_23  and  C_24 
REMARK    8  A    between atoms: C_24  and  O_25 
ROOT
HETATM    1  C   UNL     1      43.834 -19.317   3.594  1.00  0.00     0.069 A 
HETATM    2  N   UNL     1      44.724 -20.289   3.203  1.00  0.00    -0.277 N 
HETATM    3  H   UNL     1      45.051 -20.497   2.263  1.00  0.00     0.189 HD
HETATM    4  N   UNL     1      45.204 -21.015   4.223  1.00  0.00    -0.186 NA
HETATM    5  C   UNL     1      44.651 -20.465   5.300  1.00  0.00     0.149 A 
HETATM    6  C   UNL     1      43.752 -19.423   4.977  1.00  0.00     0.016 A 
ENDROOT
BRANCH   6   7
HETATM    7  C   UNL     1      42.938 -18.633   5.931  1.00  0.00     0.277 C 
BRANCH   7   8
HETATM    8  N   UNL     1      43.419 -17.220   6.128  1.00  0.00    -0.061 N 
HETATM    9  H   UNL     1      43.977 -16.993   5.281  1.00  0.00     0.280 HD
BRANCH   8  10
HETATM   10  C   UNL     1      42.337 -16.170   6.152  1.00  0.00     0.273 C 
BRANCH  10  11
HETATM   11  C   UNL     1      42.320 -15.216   4.986  1.00  0.00    -0.033 A 
HETATM   12  C   UNL     1      41.172 -14.481   4.653  1.00  0.00     0.009 A 
HETATM   13  C   UNL     1      41.173 -13.619   3.554  1.00  0.00     0.001 A 
HETATM   14  C   UNL     1      42.322 -13.472   2.781  1.00  0.00     0.000 A 
HETATM   15  C   UNL     1      43.475 -14.177   3.111  1.00  0.00     0.001 A 
HETATM   16  C   UNL     1      43.478 -15.039   4.209  1.00  0.00     0.009 A 
ENDBRANCH  10  11
ENDBRANCH   8  10
BRANCH   8  17
HETATM   17  C   UNL     1      44.452 -17.087   7.232  1.00  0.00     0.261 C 
BRANCH  17  18
HETATM   18  C   UNL     1      44.081 -18.072   8.347  1.00  0.00     0.192 C 
BRANCH  18  19
HETATM   19  O   UNL     1      43.502 -17.296   9.401  1.00  0.00    -0.399 OA
HETATM   20  H   UNL     1      44.019 -17.465  10.214  1.00  0.00     0.209 HD
ENDBRANCH  18  19
ENDBRANCH  17  18
ENDBRANCH   8  17
ENDBRANCH   7   8
ENDBRANCH   6   7
BRANCH   1  21
HETATM   21  C   UNL     1      43.220 -18.403   2.643  1.00  0.00    -0.007 A 
HETATM   22  C   UNL     1      41.885 -18.009   2.798  1.00  0.00     0.021 A 
HETATM   23  C   UNL     1      41.276 -17.134   1.883  1.00  0.00    -0.055 A 
HETATM   24  C   UNL     1      42.017 -16.657   0.784  1.00  0.00    -0.056 A 
HETATM   25  C   UNL     1      39.828 -16.764   2.074  1.00  0.00     0.049 C 
HETATM   26  C   UNL     1      41.416 -15.716  -0.226  1.00  0.00     0.049 C 
HETATM   27  C   UNL     1      43.356 -17.050   0.638  1.00  0.00     0.008 A 
HETATM   28  C   UNL     1      43.949 -17.919   1.555  1.00  0.00     0.014 A 
ENDBRANCH   1  21
TORSDOF 8
ENDMDL
MODEL 3
REMARK VINA RESULT:      -7.0      3.261      6.452
REMARK  8 active torsions:
REMARK  status: ('A' for Active; 'I' for Inactive)
REMARK    1  A    between atoms: C_6  and  C_7 
REMARK    2  A    between atoms: C_12  and  C_13 
REMARK    3  A    between atoms: C_13  and  N_14 
REMARK    4  A    between atoms: N_14  and  C_16 
REMARK    5  A    between atoms: N_14  and  C_23 
REMARK    6  A    between atoms: C_16  and  C_17 
REMARK    7  A    between atoms: C_23  and  C_24 
REMARK    8  A    between atoms: C_24  and  O_25 
ROOT
HETATM    1  C   UNL     1      42.264 -17.046   1.539  1.00  0.00     0.069 A 
HETATM    2  N   UNL     1      42.474 -16.827   0.198  1.00  0.00    -0.277 N 
HETATM    3  H   UNL     1      43.127 -17.303  -0.419  1.00  0.00     0.189 HD
HETATM    4  N   UNL     1      41.686 -15.873  -0.317  1.00  0.00    -0.186 NA
HETATM    5  C   UNL     1      40.915 -15.504   0.702  1.00  0.00     0.149 A 
HETATM    6  C   UNL     1      41.250 -16.169   1.904  1.00  0.00     0.016 A 
ENDROOT
BRANCH   6   7
HETATM    7  C   UNL     1      40.622 -15.962   3.231  1.00  0.00     0.277 C 
BRANCH   7   8
HETATM    8  N   UNL     1      40.976 -14.652   3.883  1.00  0.00    -0.061 N 
HETATM    9  H   UNL     1      40.234 -13.985   3.594  1.00  0.00     0.280 HD
BRANCH   8  10
HETATM   10  C   UNL     1      40.915 -14.646   5.390  1.00  0.00     0.273 C 
BRANCH  10  11
HETATM   11  C   UNL     1      41.933 -15.506   6.092  1.00  0.00    -0.033 A 
HETATM   12  C   UNL     1      41.591 -16.750   6.645  1.00  0.00     0.009 A 
HETATM   13  C   UNL     1      42.546 -17.520   7.311  1.00  0.00     0.001 A 
HETATM   14  C   UNL     1      43.857 -17.064   7.425  1.00  0.00     0.000 A 
HETATM   15  C   UNL     1      44.217 -15.842   6.864  1.00  0.00     0.001 A 
HETATM   16  C   UNL     1      43.265 -15.070   6.197  1.00  0.00     0.009 A 
ENDBRANCH  10  11
ENDBRANCH   8  10
BRANCH   8  17
HETATM   17  C   UNL     1      42.222 -14.012   3.299  1.00  0.00     0.261 C 
BRANCH  17  18
HETATM   18  C   UNL     1      41.868 -12.578   2.887  1.00  0.00     0.192 C 
BRANCH  18  19
HETATM   19  O   UNL     1      42.588 -12.309   1.681  1.00  0.00    -0.399 OA
HETATM   20  H   UNL     1      43.485 -12.006   1.930  1.00  0.00     0.209 HD
ENDBRANCH  18  19
ENDBRANCH  17  18
ENDBRANCH   8  17
ENDBRANCH   7   8
ENDBRANCH   6   7
BRANCH   1  21
HETATM   21  C   UNL     1      42.998 -18.059   2.282  1.00  0.00    -0.007 A 
HETATM   22  C   UNL     1      43.164 -19.345   1.755  1.00  0.00     0.021 A 
HETATM   23  C   UNL     1      43.862 -20.337   2.465  1.00  0.00    -0.055 A 
HETATM   24  C   UNL     1      44.391 -20.033   3.735  1.00  0.00    -0.056 A 
HETATM   25  C   UNL     1      43.987 -21.715   1.871  1.00  0.00     0.049 C 
HETATM   26  C   UNL     1      45.150 -21.056   4.539  1.00  0.00     0.049 C 
HETATM   27  C   UNL     1      44.227 -18.741   4.255  1.00  0.00     0.008 A 
HETATM   28  C   UNL     1      43.532 -17.765   3.538  1.00  0.00     0.014 A 
ENDBRANCH   1  21
TORSDOF 8
ENDMDL
MODEL 4
REMARK VINA RESULT:      -6.8      3.090      5.592
REMARK  8 active torsions:
REMARK  status: ('A' for Active; 'I' for Inactive)
REMARK    1  A    between atoms: C_6  and  C_7 
REMARK    2  A    between atoms: C_12  and  C_13 
REMARK    3  A    between atoms: C_13  and  N_14 
REMARK    4  A    between atoms: N_14  and  C_16 
REMARK    5  A    between atoms: N_14  and  C_23 
REMARK    6  A    between atoms: C_16  and  C_17 
REMARK    7  A    between atoms: C_23  and  C_24 
REMARK    8  A    between atoms: C_24  and  O_25 
ROOT
HETATM    1  C   UNL     1      40.332 -14.413   4.199  1.00  0.00     0.069 A 
HETATM    2  N   UNL     1      39.938 -13.115   4.420  1.00  0.00    -0.277 N 
HETATM    3  H   UNL     1      40.109 -12.540   5.241  1.00  0.00     0.189 HD
HETATM    4  N   UNL     1      39.264 -12.578   3.392  1.00  0.00    -0.186 NA
HETATM    5  C   UNL     1      39.269 -13.534   2.468  1.00  0.00     0.149 A 
HETATM    6  C   UNL     1      39.885 -14.724   2.920  1.00  0.00     0.016 A 
ENDROOT
BRANCH   6   7
HETATM    7  C   UNL     1      40.021 -15.990   2.161  1.00  0.00     0.277 C 
BRANCH   7   8
HETATM    8  N   UNL     1      41.435 -16.322   1.767  1.00  0.00    -0.061 N 
HETATM    9  H   UNL     1      42.012 -16.147   2.613  1.00  0.00     0.280 HD
BRANCH   8  10
HETATM   10  C   UNL     1      41.688 -17.773   1.440  1.00  0.00     0.273 C 
BRANCH  10  11
HETATM   11  C   UNL     1      42.703 -18.475   2.304  1.00  0.00    -0.033 A 
HETATM   12  C   UNL     1      43.330 -19.660   1.889  1.00  0.00     0.009 A 
HETATM   13  C   UNL     1      44.251 -20.305   2.716  1.00  0.00     0.001 A 
HETATM   14  C   UNL     1      44.567 -19.770   3.963  1.00  0.00     0.000 A 
HETATM   15  C   UNL     1      43.971 -18.584   4.379  1.00  0.00     0.001 A 
HETATM   16  C   UNL     1      43.049 -17.936   3.555  1.00  0.00     0.009 A 
ENDBRANCH  10  11
ENDBRANCH   8  10
BRANCH   8  17
HETATM   17  C   UNL     1      42.026 -15.340   0.772  1.00  0.00     0.261 C 
BRANCH  17  18
HETATM   18  C   UNL     1      41.021 -15.164  -0.373  1.00  0.00     0.192 C 
BRANCH  18  19
HETATM   19  O   UNL     1      41.579 -15.827  -1.511  1.00  0.00    -0.399 OA
HETATM   20  H   UNL     1      42.091 -15.165  -2.020  1.00  0.00     0.209 HD
ENDBRANCH  18  19
ENDBRANCH  17  18
ENDBRANCH   8  17
ENDBRANCH   7   8
ENDBRANCH   6   7
BRANCH   1  21
HETATM   21  C   UNL     1      41.100 -15.166   5.178  1.00  0.00    -0.007 A 
HETATM   22  C   UNL     1      42.400 -14.773   5.516  1.00  0.00     0.021 A 
HETATM   23  C   UNL     1      43.157 -15.496   6.453  1.00  0.00    -0.055 A 
HETATM   24  C   UNL     1      42.601 -16.644   7.052  1.00  0.00    -0.056 A 
HETATM   25  C   UNL     1      44.563 -15.053   6.761  1.00  0.00     0.049 C 
HETATM   26  C   UNL     1      43.366 -17.456   8.064  1.00  0.00     0.049 C 
HETATM   27  C   UNL     1      41.296 -17.029   6.714  1.00  0.00     0.008 A 
HETATM   28  C   UNL     1      40.554 -16.301   5.782  1.00  0.00     0.014 A 
ENDBRANCH   1  21
TORSDOF 8
ENDMDL
MODEL 5
REMARK VINA RESULT:      -6.8      1.789      3.145
REMARK  8 active torsions:
REMARK  status: ('A' for Active; 'I' for Inactive)
REMARK    1  A    between atoms: C_6  and  C_7 
REMARK    2  A    between atoms: C_12  and  C_13 
REMARK    3  A    between atoms: C_13  and  N_14 
REMARK    4  A    between atoms: N_14  and  C_16 
REMARK    5  A    between atoms: N_14  and  C_23 
REMARK    6  A    between atoms: C_16  and  C_17 
REMARK    7  A    between atoms: C_23  and  C_24 
REMARK    8  A    between atoms: C_24  and  O_25 
ROOT
HETATM    1  C   UNL     1      43.360 -17.235   6.613  1.00  0.00     0.069 A 
HETATM    2  N   UNL     1      43.073 -17.009   7.938  1.00  0.00    -0.277 N 
HETATM    3  H   UNL     1      42.375 -16.383   8.330  1.00  0.00     0.189 HD
HETATM    4  N   UNL     1      43.821 -17.739   8.779  1.00  0.00    -0.186 NA
HETATM    5  C   UNL     1      44.569 -18.490   7.976  1.00  0.00     0.149 A 
HETATM    6  C   UNL     1      44.361 -18.198   6.609  1.00  0.00     0.016 A 
ENDROOT
BRANCH   6   7
HETATM    7  C   UNL     1      45.062 -18.817   5.458  1.00  0.00     0.277 C 
BRANCH   7   8
HETATM    8  N   UNL     1      44.297 -19.935   4.802  1.00  0.00    -0.061 N 
HETATM    9  H   UNL     1      43.293 -19.686   4.901  1.00  0.00     0.280 HD
BRANCH   8  10
HETATM   10  C   UNL     1      44.501 -20.068   3.313  1.00  0.00     0.273 C 
BRANCH  10  11
HETATM   11  C   UNL     1      43.802 -19.042   2.460  1.00  0.00    -0.033 A 
HETATM   12  C   UNL     1      44.464 -17.895   1.997  1.00  0.00     0.009 A 
HETATM   13  C   UNL     1      43.789 -16.946   1.225  1.00  0.00     0.001 A 
HETATM   14  C   UNL     1      42.449 -17.137   0.897  1.00  0.00     0.000 A 
HETATM   15  C   UNL     1      41.785 -18.280   1.330  1.00  0.00     0.001 A 
HETATM   16  C   UNL     1      42.457 -19.230   2.101  1.00  0.00     0.009 A 
ENDBRANCH  10  11
ENDBRANCH   8  10
BRANCH   8  17
HETATM   17  C   UNL     1      44.374 -21.244   5.568  1.00  0.00     0.261 C 
BRANCH  17  18
HETATM   18  C   UNL     1      44.712 -22.357   4.569  1.00  0.00     0.192 C 
BRANCH  18  19
HETATM   19  O   UNL     1      45.751 -23.140   5.166  1.00  0.00    -0.399 OA
HETATM   20  H   UNL     1      45.813 -22.883   6.109  1.00  0.00     0.209 HD
ENDBRANCH  18  19
ENDBRANCH  17  18
ENDBRANCH   8  17
ENDBRANCH   7   8
ENDBRANCH   6   7
BRANCH   1  21
HETATM   21  C   UNL     1      42.642 -16.563   5.541  1.00  0.00    -0.007 A 
HETATM   22  C   UNL     1      43.194 -15.442   4.910  1.00  0.00     0.021 A 
HETATM   23  C   UNL     1      42.508 -14.777   3.879  1.00  0.00    -0.055 A 
HETATM   24  C   UNL     1      41.238 -15.241   3.484  1.00  0.00    -0.056 A 
HETATM   25  C   UNL     1      43.129 -13.556   3.253  1.00  0.00     0.049 C 
HETATM   26  C   UNL     1      40.459 -14.568   2.384  1.00  0.00     0.049 C 
HETATM   27  C   UNL     1      40.692 -16.368   4.115  1.00  0.00     0.008 A 
HETATM   28  C   UNL     1      41.385 -17.020   5.138  1.00  0.00     0.014 A 
ENDBRANCH   1  21
TORSDOF 8
ENDMDL
MODEL 6
REMARK VINA RESULT:      -6.8      1.361      2.195
REMARK  8 active torsions:
REMARK  status: ('A' for Active; 'I' for Inactive)
REMARK    1  A    between atoms: C_6  and  C_7 
REMARK    2  A    between atoms: C_12  and  C_13 
REMARK    3  A    between atoms: C_13  and  N_14 
REMARK    4  A    between atoms: N_14  and  C_16 
REMARK    5  A    between atoms: N_14  and  C_23 
REMARK    6  A    between atoms: C_16  and  C_17 
REMARK    7  A    between atoms: C_23  and  C_24 
REMARK    8  A    between atoms: C_24  and  O_25 
ROOT
HETATM    1  C   UNL     1      43.194 -18.141   5.676  1.00  0.00     0.069 A 
HETATM    2  N   UNL     1      43.104 -18.734   6.913  1.00  0.00    -0.277 N 
HETATM    3  H   UNL     1      42.604 -18.398   7.733  1.00  0.00     0.189 HD
HETATM    4  N   UNL     1      43.755 -19.903   6.995  1.00  0.00    -0.186 NA
HETATM    5  C   UNL     1      44.232 -20.093   5.768  1.00  0.00     0.149 A 
HETATM    6  C   UNL     1      43.953 -19.011   4.903  1.00  0.00     0.016 A 
ENDROOT
BRANCH   6   7
HETATM    7  C   UNL     1      44.377 -18.882   3.488  1.00  0.00     0.277 C 
BRANCH   7   8
HETATM    8  N   UNL     1      43.256 -19.026   2.494  1.00  0.00    -0.061 N 
HETATM    9  H   UNL     1      42.384 -18.829   3.023  1.00  0.00     0.280 HD
BRANCH   8  10
HETATM   10  C   UNL     1      43.250 -18.012   1.378  1.00  0.00     0.273 C 
BRANCH  10  11
HETATM   11  C   UNL     1      42.113 -17.024   1.393  1.00  0.00    -0.033 A 
HETATM   12  C   UNL     1      42.225 -15.763   0.786  1.00  0.00     0.009 A 
HETATM   13  C   UNL     1      41.166 -14.854   0.832  1.00  0.00     0.001 A 
HETATM   14  C   UNL     1      39.979 -15.196   1.474  1.00  0.00     0.000 A 
HETATM   15  C   UNL     1      39.844 -16.450   2.062  1.00  0.00     0.001 A 
HETATM   16  C   UNL     1      40.901 -17.361   2.017  1.00  0.00     0.009 A 
ENDBRANCH  10  11
ENDBRANCH   8  10
BRANCH   8  17
HETATM   17  C   UNL     1      43.035 -20.459   2.045  1.00  0.00     0.261 C 
BRANCH  17  18
HETATM   18  C   UNL     1      44.380 -21.192   2.124  1.00  0.00     0.192 C 
BRANCH  18  19
HETATM   19  O   UNL     1      44.251 -22.370   1.322  1.00  0.00    -0.399 OA
HETATM   20  H   UNL     1      43.414 -22.298   0.818  1.00  0.00     0.209 HD
ENDBRANCH  18  19
ENDBRANCH  17  18
ENDBRANCH   8  17
ENDBRANCH   7   8
ENDBRANCH   6   7
BRANCH   1  21
HETATM   21  C   UNL     1      42.535 -16.881   5.371  1.00  0.00    -0.007 A 
HETATM   22  C   UNL     1      43.205 -15.884   4.652  1.00  0.00     0.021 A 
HETATM   23  C   UNL     1      42.584 -14.659   4.358  1.00  0.00    -0.055 A 
HETATM   24  C   UNL     1      41.269 -14.425   4.807  1.00  0.00    -0.056 A 
HETATM   25  C   UNL     1      43.357 -13.605   3.609  1.00  0.00     0.049 C 
HETATM   26  C   UNL     1      40.554 -13.131   4.520  1.00  0.00     0.049 C 
HETATM   27  C   UNL     1      40.601 -15.430   5.522  1.00  0.00     0.008 A 
HETATM   28  C   UNL     1      41.229 -16.644   5.806  1.00  0.00     0.014 A 
ENDBRANCH   1  21
TORSDOF 8
ENDMDL
MODEL 7
REMARK VINA RESULT:      -6.8      2.670      5.089
REMARK  8 active torsions:
REMARK  status: ('A' for Active; 'I' for Inactive)
REMARK    1  A    between atoms: C_6  and  C_7 
REMARK    2  A    between atoms: C_12  and  C_13 
REMARK    3  A    between atoms: C_13  and  N_14 
REMARK    4  A    between atoms: N_14  and  C_16 
REMARK    5  A    between atoms: N_14  and  C_23 
REMARK    6  A    between atoms: C_16  and  C_17 
REMARK    7  A    between atoms: C_23  and  C_24 
REMARK    8  A    between atoms: C_24  and  O_25 
ROOT
HETATM    1  C   UNL     1      43.756 -18.658   6.570  1.00  0.00     0.069 A 
HETATM    2  N   UNL     1      44.210 -19.064   7.803  1.00  0.00    -0.277 N 
HETATM    3  H   UNL     1      44.728 -19.908   8.032  1.00  0.00     0.189 HD
HETATM    4  N   UNL     1      43.928 -18.199   8.788  1.00  0.00    -0.186 NA
HETATM    5  C   UNL     1      43.323 -17.190   8.168  1.00  0.00     0.149 A 
HETATM    6  C   UNL     1      43.147 -17.428   6.786  1.00  0.00     0.016 A 
ENDROOT
BRANCH   6   7
HETATM    7  C   UNL     1      42.474 -16.531   5.815  1.00  0.00     0.277 C 
BRANCH   7   8
HETATM    8  N   UNL     1      43.359 -15.443   5.268  1.00  0.00    -0.061 N 
HETATM    9  H   UNL     1      44.333 -15.774   5.411  1.00  0.00     0.280 HD
BRANCH   8  10
HETATM   10  C   UNL     1      43.257 -15.219   3.780  1.00  0.00     0.273 C 
BRANCH  10  11
HETATM   11  C   UNL     1      41.867 -15.271   3.201  1.00  0.00    -0.033 A 
HETATM   12  C   UNL     1      41.401 -16.398   2.506  1.00  0.00     0.009 A 
HETATM   13  C   UNL     1      40.116 -16.415   1.958  1.00  0.00     0.001 A 
HETATM   14  C   UNL     1      39.278 -15.313   2.107  1.00  0.00     0.000 A 
HETATM   15  C   UNL     1      39.718 -14.197   2.811  1.00  0.00     0.001 A 
HETATM   16  C   UNL     1      41.001 -14.177   3.360  1.00  0.00     0.009 A 
ENDBRANCH  10  11
ENDBRANCH   8  10
BRANCH   8  17
HETATM   17  C   UNL     1      43.331 -14.174   6.100  1.00  0.00     0.261 C 
BRANCH  17  18
HETATM   18  C   UNL     1      44.695 -14.027   6.785  1.00  0.00     0.192 C 
BRANCH  18  19
HETATM   19  O   UNL     1      44.438 -13.919   8.188  1.00  0.00    -0.399 OA
HETATM   20  H   UNL     1      44.063 -13.030   8.355  1.00  0.00     0.209 HD
ENDBRANCH  18  19
ENDBRANCH  17  18
ENDBRANCH   8  17
ENDBRANCH   7   8
ENDBRANCH   6   7
BRANCH   1  21
HETATM   21  C   UNL     1      43.985 -19.440   5.365  1.00  0.00    -0.007 A 
HETATM   22  C   UNL     1      43.687 -18.907   4.105  1.00  0.00     0.021 A 
HETATM   23  C   UNL     1      43.894 -19.653   2.933  1.00  0.00    -0.055 A 
HETATM   24  C   UNL     1      44.396 -20.966   3.030  1.00  0.00    -0.056 A 
HETATM   25  C   UNL     1      43.529 -19.048   1.603  1.00  0.00     0.049 C 
HETATM   26  C   UNL     1      44.639 -21.811   1.807  1.00  0.00     0.049 C 
HETATM   27  C   UNL     1      44.697 -21.493   4.294  1.00  0.00     0.008 A 
HETATM   28  C   UNL     1      44.489 -20.739   5.451  1.00  0.00     0.014 A 
ENDBRANCH   1  21
TORSDOF 8
ENDMDL
MODEL 8
REMARK VINA RESULT:      -6.5      2.732      5.145
REMARK  8 active torsions:
REMARK  status: ('A' for Active; 'I' for Inactive)
REMARK    1  A    between atoms: C_6  and  C_7 
REMARK    2  A    between atoms: C_12  and  C_13 
REMARK    3  A    between atoms: C_13  and  N_14 
REMARK    4  A    between atoms: N_14  and  C_16 
REMARK    5  A    between atoms: N_14  and  C_23 
REMARK    6  A    between atoms: C_16  and  C_17 
REMARK    7  A    between atoms: C_23  and  C_24 
REMARK    8  A    between atoms: C_24  and  O_25 
ROOT
HETATM    1  C   UNL     1      42.722 -17.794   2.875  1.00  0.00     0.069 A 
HETATM    2  N   UNL     1      43.627 -18.408   2.042  1.00  0.00    -0.277 N 
HETATM    3  H   UNL     1      43.770 -18.250   1.048  1.00  0.00     0.189 HD
HETATM    4  N   UNL     1      44.404 -19.305   2.666  1.00  0.00    -0.186 NA
HETATM    5  C   UNL     1      44.028 -19.229   3.939  1.00  0.00     0.149 A 
HETATM    6  C   UNL     1      42.952 -18.333   4.135  1.00  0.00     0.016 A 
ENDROOT
BRANCH   6   7
HETATM    7  C   UNL     1      42.265 -18.046   5.417  1.00  0.00     0.277 C 
BRANCH   7   8
HETATM    8  N   UNL     1      42.418 -16.627   5.894  1.00  0.00    -0.061 N 
HETATM    9  H   UNL     1      42.901 -16.122   5.124  1.00  0.00     0.280 HD
BRANCH   8  10
HETATM   10  C   UNL     1      41.128 -15.869   6.083  1.00  0.00     0.273 C 
BRANCH  10  11
HETATM   11  C   UNL     1      41.051 -14.523   5.409  1.00  0.00    -0.033 A 
HETATM   12  C   UNL     1      39.823 -13.885   5.178  1.00  0.00     0.009 A 
HETATM   13  C   UNL     1      39.774 -12.648   4.532  1.00  0.00     0.001 A 
HETATM   14  C   UNL     1      40.950 -12.027   4.120  1.00  0.00     0.000 A 
HETATM   15  C   UNL     1      42.177 -12.637   4.361  1.00  0.00     0.001 A 
HETATM   16  C   UNL     1      42.230 -13.874   5.007  1.00  0.00     0.009 A 
ENDBRANCH  10  11
ENDBRANCH   8  10
BRANCH   8  17
HETATM   17  C   UNL     1      43.408 -16.482   7.035  1.00  0.00     0.261 C 
BRANCH  17  18
HETATM   18  C   UNL     1      43.313 -17.741   7.906  1.00  0.00     0.192 C 
BRANCH  18  19
HETATM   19  O   UNL     1      43.532 -17.322   9.256  1.00  0.00    -0.399 OA
HETATM   20  H   UNL     1      44.490 -17.406   9.443  1.00  0.00     0.209 HD
ENDBRANCH  18  19
ENDBRANCH  17  18
ENDBRANCH   8  17
ENDBRANCH   7   8
ENDBRANCH   6   7
BRANCH   1  21
HETATM   21  C   UNL     1      41.805 -16.769   2.401  1.00  0.00    -0.007 A 
HETATM   22  C   UNL     1      42.294 -15.592   1.820  1.00  0.00     0.021 A 
HETATM   23  C   UNL     1      41.421 -14.589   1.366  1.00  0.00    -0.055 A 
HETATM   24  C   UNL     1      40.030 -14.766   1.511  1.00  0.00    -0.056 A 
HETATM   25  C   UNL     1      41.995 -13.327   0.777  1.00  0.00     0.049 C 
HETATM   26  C   UNL     1      39.048 -13.726   1.040  1.00  0.00     0.049 C 
HETATM   27  C   UNL     1      39.547 -15.950   2.087  1.00  0.00     0.008 A 
HETATM   28  C   UNL     1      40.426 -16.939   2.533  1.00  0.00     0.014 A 
ENDBRANCH   1  21
TORSDOF 8
ENDMDL
MODEL 9
REMARK VINA RESULT:      -6.5      2.727      5.193
REMARK  8 active torsions:
REMARK  status: ('A' for Active; 'I' for Inactive)
REMARK    1  A    between atoms: C_6  and  C_7 
REMARK    2  A    between atoms: C_12  and  C_13 
REMARK    3  A    between atoms: C_13  and  N_14 
REMARK    4  A    between atoms: N_14  and  C_16 
REMARK    5  A    between atoms: N_14  and  C_23 
REMARK    6  A    between atoms: C_16  and  C_17 
REMARK    7  A    between atoms: C_23  and  C_24 
REMARK    8  A    between atoms: C_24  and  O_25 
ROOT
HETATM    1  C   UNL     1      43.774 -18.009   6.435  1.00  0.00     0.069 A 
HETATM    2  N   UNL     1      43.422 -18.428   7.696  1.00  0.00    -0.277 N 
HETATM    3  H   UNL     1      43.280 -19.380   8.023  1.00  0.00     0.189 HD
HETATM    4  N   UNL     1      43.276 -17.423   8.572  1.00  0.00    -0.186 NA
HETATM    5  C   UNL     1      43.591 -16.337   7.873  1.00  0.00     0.149 A 
HETATM    6  C   UNL     1      43.874 -16.626   6.518  1.00  0.00     0.016 A 
ENDROOT
BRANCH   6   7
HETATM    7  C   UNL     1      44.216 -15.645   5.460  1.00  0.00     0.277 C 
BRANCH   7   8
HETATM    8  N   UNL     1      43.065 -14.774   5.032  1.00  0.00    -0.061 N 
HETATM    9  H   UNL     1      43.352 -14.353   4.127  1.00  0.00     0.280 HD
BRANCH   8  10
HETATM   10  C   UNL     1      41.787 -15.507   4.712  1.00  0.00     0.273 C 
BRANCH  10  11
HETATM   11  C   UNL     1      41.580 -15.868   3.264  1.00  0.00    -0.033 A 
HETATM   12  C   UNL     1      40.694 -16.884   2.877  1.00  0.00     0.009 A 
HETATM   13  C   UNL     1      40.535 -17.216   1.530  1.00  0.00     0.001 A 
HETATM   14  C   UNL     1      41.250 -16.530   0.552  1.00  0.00     0.000 A 
HETATM   15  C   UNL     1      42.117 -15.505   0.917  1.00  0.00     0.001 A 
HETATM   16  C   UNL     1      42.278 -15.171   2.263  1.00  0.00     0.009 A 
ENDBRANCH  10  11
ENDBRANCH   8  10
BRANCH   8  17
HETATM   17  C   UNL     1      42.886 -13.547   5.908  1.00  0.00     0.261 C 
BRANCH  17  18
HETATM   18  C   UNL     1      41.712 -12.734   5.349  1.00  0.00     0.192 C 
BRANCH  18  19
HETATM   19  O   UNL     1      42.199 -12.060   4.185  1.00  0.00    -0.399 OA
HETATM   20  H   UNL     1      42.990 -12.544   3.869  1.00  0.00     0.209 HD
ENDBRANCH  18  19
ENDBRANCH  17  18
ENDBRANCH   8  17
ENDBRANCH   7   8
ENDBRANCH   6   7
BRANCH   1  21
HETATM   21  C   UNL     1      44.008 -18.945   5.346  1.00  0.00    -0.007 A 
HETATM   22  C   UNL     1      43.765 -18.567   4.020  1.00  0.00     0.021 A 
HETATM   23  C   UNL     1      43.978 -19.463   2.959  1.00  0.00    -0.055 A 
HETATM   24  C   UNL     1      44.431 -20.768   3.237  1.00  0.00    -0.056 A 
HETATM   25  C   UNL     1      43.671 -19.021   1.552  1.00  0.00     0.049 C 
HETATM   26  C   UNL     1      44.678 -21.769   2.139  1.00  0.00     0.049 C 
HETATM   27  C   UNL     1      44.679 -21.139   4.566  1.00  0.00     0.008 A 
HETATM   28  C   UNL     1      44.464 -20.238   5.612  1.00  0.00     0.014 A 
ENDBRANCH   1  21
TORSDOF 8
ENDMDL
MODEL 10
REMARK VINA RESULT:      -6.5      2.442      4.480
REMARK  8 active torsions:
REMARK  status: ('A' for Active; 'I' for Inactive)
REMARK    1  A    between atoms: C_6  and  C_7 
REMARK    2  A    between atoms: C_12  and  C_13 
REMARK    3  A    between atoms: C_13  and  N_14 
REMARK    4  A    between atoms: N_14  and  C_16 
REMARK    5  A    between atoms: N_14  and  C_23 
REMARK    6  A    between atoms: C_16  and  C_17 
REMARK    7  A    between atoms: C_23  and  C_24 
REMARK    8  A    between atoms: C_24  and  O_25 
ROOT
HETATM    1  C   UNL     1      42.492 -16.055   6.135  1.00  0.00     0.069 A 
HETATM    2  N   UNL     1      43.075 -16.080   7.379  1.00  0.00    -0.277 N 
HETATM    3  H   UNL     1      43.299 -15.293   7.982  1.00  0.00     0.189 HD
HETATM    4  N   UNL     1      43.346 -17.318   7.817  1.00  0.00    -0.186 NA
HETATM    5  C   UNL     1      42.881 -18.111   6.856  1.00  0.00     0.149 A 
HETATM    6  C   UNL     1      42.369 -17.386   5.755  1.00  0.00     0.016 A 
ENDROOT
BRANCH   6   7
HETATM    7  C   UNL     1      41.816 -17.958   4.504  1.00  0.00     0.277 C 
BRANCH   7   8
HETATM    8  N   UNL     1      42.446 -17.416   3.249  1.00  0.00    -0.061 N 
HETATM    9  H   UNL     1      42.555 -16.395   3.407  1.00  0.00     0.280 HD
BRANCH   8  10
HETATM   10  C   UNL     1      43.846 -17.901   2.970  1.00  0.00     0.273 C 
BRANCH  10  11
HETATM   11  C   UNL     1      44.038 -19.395   2.975  1.00  0.00    -0.033 A 
HETATM   12  C   UNL     1      44.647 -20.056   4.053  1.00  0.00     0.009 A 
HETATM   13  C   UNL     1      44.834 -21.439   4.027  1.00  0.00     0.001 A 
HETATM   14  C   UNL     1      44.405 -22.182   2.929  1.00  0.00     0.000 A 
HETATM   15  C   UNL     1      43.780 -21.545   1.862  1.00  0.00     0.001 A 
HETATM   16  C   UNL     1      43.592 -20.162   1.886  1.00  0.00     0.009 A 
ENDBRANCH  10  11
ENDBRANCH   8  10
BRANCH   8  17
HETATM   17  C   UNL     1      41.516 -17.451   2.050  1.00  0.00     0.261 C 
BRANCH  17  18
HETATM   18  C   UNL     1      40.743 -16.127   2.012  1.00  0.00     0.192 C 
BRANCH  18  19
HETATM   19  O   UNL     1      39.356 -16.461   2.122  1.00  0.00    -0.399 OA
HETATM   20  H   UNL     1      39.058 -16.204   3.019  1.00  0.00     0.209 HD
ENDBRANCH  18  19
ENDBRANCH  17  18
ENDBRANCH   8  17
ENDBRANCH   7   8
ENDBRANCH   6   7
BRANCH   1  21
HETATM   21  C   UNL     1      42.093 -14.813   5.492  1.00  0.00    -0.007 A 
HETATM   22  C   UNL     1      40.845 -14.240   5.765  1.00  0.00     0.021 A 
HETATM   23  C   UNL     1      40.443 -13.045   5.144  1.00  0.00    -0.055 A 
HETATM   24  C   UNL     1      41.305 -12.422   4.221  1.00  0.00    -0.056 A 
HETATM   25  C   UNL     1      39.078 -12.485   5.446  1.00  0.00     0.049 C 
HETATM   26  C   UNL     1      40.927 -11.139   3.528  1.00  0.00     0.049 C 
HETATM   27  C   UNL     1      42.557 -12.997   3.956  1.00  0.00     0.008 A 
HETATM   28  C   UNL     1      42.945 -14.184   4.581  1.00  0.00     0.014 A 
ENDBRANCH   1  21
TORSDOF 8
ENDMDL
