MODEL 1
REMARK VINA RESULT:      -9.2      0.000      0.000
REMARK  5 active torsions:
REMARK  status: ('A' for Active; 'I' for Inactive)
REMARK    1  A    between atoms: C_6  and  C_7 
REMARK    2  A    between atoms: C_7  and  C_8 
REMARK    3  A    between atoms: C_8  and  C_9 
REMARK    4  A    between atoms: C_9  and  N_10 
REMARK       I    between atoms: N_10  and  C_11 
REMARK    5  A    between atoms: C_11  and  C_12 
ROOT
HETATM    1  N   UNL     1      43.068 -16.185   5.042  1.00  0.00    -0.356 N 
HETATM    2  C   UNL     1      43.354 -17.512   5.291  1.00  0.00     0.272 C 
HETATM    3  O   UNL     1      43.621 -17.940   6.411  1.00  0.00    -0.266 OA
HETATM    4  H   UNL     1      42.802 -15.976   4.082  1.00  0.00     0.162 HD
ENDROOT
BRANCH   1   5
HETATM    5  C   UNL     1      43.012 -15.179   6.072  1.00  0.00     0.123 C 
BRANCH   5   6
HETATM    6  C   UNL     1      44.044 -14.078   5.846  1.00  0.00     0.027 C 
BRANCH   6   7
HETATM    7  C   UNL     1      45.087 -14.077   6.959  1.00  0.00     0.080 C 
BRANCH   7   8
HETATM    8  C   UNL     1      44.757 -13.087   8.022  1.00  0.00     0.105 A 
HETATM    9  N   UNL     1      45.479 -12.812   9.088  1.00  0.00    -0.233 NA
HETATM   10  C   UNL     1      44.768 -11.865   9.782  1.00  0.00     0.085 A 
HETATM   11  C   UNL     1      43.585 -11.550   9.124  1.00  0.00     0.062 A 
HETATM   12  C   UNL     1      45.070 -11.224  10.993  1.00  0.00     0.034 A 
HETATM   13  C   UNL     1      42.662 -10.620   9.607  1.00  0.00     0.032 A 
HETATM   14  N   UNL     1      43.606 -12.337   8.002  1.00  0.00    -0.343 N 
HETATM   15  C   UNL     1      42.978  -9.993  10.819  1.00  0.00     0.002 A 
HETATM   16  C   UNL     1      44.161 -10.287  11.502  1.00  0.00     0.002 A 
HETATM   17  H   UNL     1      42.895 -12.366   7.284  1.00  0.00     0.167 HD
ENDBRANCH   7   8
ENDBRANCH   6   7
ENDBRANCH   5   6
ENDBRANCH   1   5
BRANCH   2  18
HETATM   18  C   UNL     1      43.289 -18.350   4.076  1.00  0.00     0.152 A 
HETATM   19  N   UNL     1      42.402 -18.063   3.096  1.00  0.00    -0.169 NA
HETATM   20  N   UNL     1      42.606 -19.012   2.173  1.00  0.00    -0.281 N 
HETATM   21  H   UNL     1      42.034 -18.997   1.335  1.00  0.00     0.189 HD
HETATM   22  C   UNL     1      43.577 -19.909   2.508  1.00  0.00     0.036 A 
HETATM   23  C   UNL     1      44.059 -19.506   3.740  1.00  0.00     0.002 A 
HETATM   24  C   UNL     1      43.912 -21.067   1.633  1.00  0.00     0.059 C 
HETATM   25  C   UNL     1      45.154 -20.167   4.501  1.00  0.00     0.043 C 
HETATM   26  C   UNL     1      44.875 -21.636   4.827  1.00  0.00     0.005 C 
HETATM   27  C   UNL     1      44.420 -22.541   3.669  1.00  0.00     0.001 C 
HETATM   28  C   UNL     1      44.856 -22.094   2.271  1.00  0.00     0.006 C 
ENDBRANCH   2  18
TORSDOF 5
ENDMDL
MODEL 2
REMARK VINA RESULT:      -9.1      3.525      4.779
REMARK  5 active torsions:
REMARK  status: ('A' for Active; 'I' for Inactive)
REMARK    1  A    between atoms: C_6  and  C_7 
REMARK    2  A    between atoms: C_7  and  C_8 
REMARK    3  A    between atoms: C_8  and  C_9 
REMARK    4  A    between atoms: C_9  and  N_10 
REMARK       I    between atoms: N_10  and  C_11 
REMARK    5  A    between atoms: C_11  and  C_12 
ROOT
HETATM    1  N   UNL     1      42.105 -17.802   1.545  1.00  0.00    -0.356 N 
HETATM    2  C   UNL     1      43.290 -17.982   2.228  1.00  0.00     0.272 C 
HETATM    3  O   UNL     1      43.976 -17.049   2.637  1.00  0.00    -0.266 OA
HETATM    4  H   UNL     1      41.606 -18.660   1.319  1.00  0.00     0.162 HD
ENDROOT
BRANCH   1   5
HETATM    5  C   UNL     1      41.531 -16.508   1.282  1.00  0.00     0.123 C 
BRANCH   5   6
HETATM    6  C   UNL     1      40.148 -16.362   1.911  1.00  0.00     0.027 C 
BRANCH   6   7
HETATM    7  C   UNL     1      40.118 -15.186   2.883  1.00  0.00     0.080 C 
BRANCH   7   8
HETATM    8  C   UNL     1      41.019 -15.412   4.047  1.00  0.00     0.105 A 
HETATM    9  N   UNL     1      42.100 -14.722   4.348  1.00  0.00    -0.233 NA
HETATM   10  C   UNL     1      42.610 -15.308   5.480  1.00  0.00     0.085 A 
HETATM   11  C   UNL     1      41.821 -16.379   5.885  1.00  0.00     0.062 A 
HETATM   12  C   UNL     1      43.753 -14.979   6.224  1.00  0.00     0.034 A 
HETATM   13  C   UNL     1      42.108 -17.162   7.004  1.00  0.00     0.032 A 
HETATM   14  N   UNL     1      40.811 -16.419   4.959  1.00  0.00    -0.343 N 
HETATM   15  C   UNL     1      43.255 -16.822   7.732  1.00  0.00     0.002 A 
HETATM   16  C   UNL     1      44.065 -15.749   7.352  1.00  0.00     0.002 A 
HETATM   17  H   UNL     1      40.046 -17.079   4.946  1.00  0.00     0.167 HD
ENDBRANCH   7   8
ENDBRANCH   6   7
ENDBRANCH   5   6
ENDBRANCH   1   5
BRANCH   2  18
HETATM   18  C   UNL     1      43.630 -19.407   2.420  1.00  0.00     0.152 A 
HETATM   19  N   UNL     1      43.345 -20.313   1.457  1.00  0.00    -0.169 NA
HETATM   20  N   UNL     1      43.770 -21.479   1.959  1.00  0.00    -0.281 N 
HETATM   21  H   UNL     1      43.648 -22.317   1.398  1.00  0.00     0.189 HD
HETATM   22  C   UNL     1      44.311 -21.380   3.207  1.00  0.00     0.036 A 
HETATM   23  C   UNL     1      44.251 -20.040   3.541  1.00  0.00     0.002 A 
HETATM   24  C   UNL     1      44.791 -22.577   3.952  1.00  0.00     0.059 C 
HETATM   25  C   UNL     1      44.751 -19.440   4.809  1.00  0.00     0.043 C 
HETATM   26  C   UNL     1      44.100 -20.025   6.064  1.00  0.00     0.005 C 
HETATM   27  C   UNL     1      44.061 -21.557   6.189  1.00  0.00     0.001 C 
HETATM   28  C   UNL     1      45.150 -22.311   5.420  1.00  0.00     0.006 C 
ENDBRANCH   2  18
TORSDOF 5
ENDMDL
MODEL 3
REMARK VINA RESULT:      -9.1      2.208     10.137
REMARK  5 active torsions:
REMARK  status: ('A' for Active; 'I' for Inactive)
REMARK    1  A    between atoms: C_6  and  C_7 
REMARK    2  A    between atoms: C_7  and  C_8 
REMARK    3  A    between atoms: C_8  and  C_9 
REMARK    4  A    between atoms: C_9  and  N_10 
REMARK       I    between atoms: N_10  and  C_11 
REMARK    5  A    between atoms: C_11  and  C_12 
ROOT
HETATM    1  N   UNL     1      44.466 -13.523   8.279  1.00  0.00    -0.356 N 
HETATM    2  C   UNL     1      44.867 -12.384   8.944  1.00  0.00     0.272 C 
HETATM    3  O   UNL     1      45.714 -11.612   8.501  1.00  0.00    -0.266 OA
HETATM    4  H   UNL     1      43.713 -14.040   8.727  1.00  0.00     0.162 HD
ENDROOT
BRANCH   1   5
HETATM    5  C   UNL     1      44.964 -13.900   6.980  1.00  0.00     0.123 C 
BRANCH   5   6
HETATM    6  C   UNL     1      44.034 -14.886   6.280  1.00  0.00     0.027 C 
BRANCH   6   7
HETATM    7  C   UNL     1      44.154 -16.276   6.897  1.00  0.00     0.080 C 
BRANCH   7   8
HETATM    8  C   UNL     1      44.163 -17.341   5.857  1.00  0.00     0.105 A 
HETATM    9  N   UNL     1      44.783 -18.501   5.928  1.00  0.00    -0.233 NA
HETATM   10  C   UNL     1      44.527 -19.130   4.734  1.00  0.00     0.085 A 
HETATM   11  C   UNL     1      43.728 -18.340   3.916  1.00  0.00     0.062 A 
HETATM   12  C   UNL     1      44.948 -20.387   4.274  1.00  0.00     0.034 A 
HETATM   13  C   UNL     1      43.316 -18.728   2.640  1.00  0.00     0.032 A 
HETATM   14  N   UNL     1      43.504 -17.209   4.658  1.00  0.00    -0.343 N 
HETATM   15  C   UNL     1      43.749 -19.984   2.195  1.00  0.00     0.002 A 
HETATM   16  C   UNL     1      44.551 -20.802   2.996  1.00  0.00     0.002 A 
HETATM   17  H   UNL     1      42.954 -16.412   4.371  1.00  0.00     0.167 HD
ENDBRANCH   7   8
ENDBRANCH   6   7
ENDBRANCH   5   6
ENDBRANCH   1   5
BRANCH   2  18
HETATM   18  C   UNL     1      44.163 -12.193  10.229  1.00  0.00     0.152 A 
HETATM   19  N   UNL     1      44.482 -12.953  11.302  1.00  0.00    -0.169 NA
HETATM   20  N   UNL     1      43.658 -12.529  12.268  1.00  0.00    -0.281 N 
HETATM   21  H   UNL     1      43.717 -12.974  13.179  1.00  0.00     0.189 HD
HETATM   22  C   UNL     1      42.812 -11.534  11.877  1.00  0.00     0.036 A 
HETATM   23  C   UNL     1      43.117 -11.275  10.553  1.00  0.00     0.002 A 
HETATM   24  C   UNL     1      41.786 -10.968  12.796  1.00  0.00     0.059 C 
HETATM   25  C   UNL     1      42.468 -10.242   9.700  1.00  0.00     0.043 C 
HETATM   26  C   UNL     1      40.955 -10.422   9.562  1.00  0.00     0.005 C 
HETATM   27  C   UNL     1      40.147 -10.617  10.856  1.00  0.00     0.001 C 
HETATM   28  C   UNL     1      40.776 -10.030  12.122  1.00  0.00     0.006 C 
ENDBRANCH   2  18
TORSDOF 5
ENDMDL
MODEL 4
REMARK VINA RESULT:      -9.1      3.754      6.793
REMARK  5 active torsions:
REMARK  status: ('A' for Active; 'I' for Inactive)
REMARK    1  A    between atoms: C_6  and  C_7 
REMARK    2  A    between atoms: C_7  and  C_8 
REMARK    3  A    between atoms: C_8  and  C_9 
REMARK    4  A    between atoms: C_9  and  N_10 
REMARK       I    between atoms: N_10  and  C_11 
REMARK    5  A    between atoms: C_11  and  C_12 
ROOT
HETATM    1  N   UNL     1      41.591 -15.087   6.439  1.00  0.00    -0.356 N 
HETATM    2  C   UNL     1      42.890 -15.515   6.258  1.00  0.00     0.272 C 
HETATM    3  O   UNL     1      43.706 -14.907   5.570  1.00  0.00    -0.266 OA
HETATM    4  H   UNL     1      41.040 -15.649   7.083  1.00  0.00     0.162 HD
ENDROOT
BRANCH   1   5
HETATM    5  C   UNL     1      41.074 -13.866   5.877  1.00  0.00     0.123 C 
BRANCH   5   6
HETATM    6  C   UNL     1      39.762 -14.095   5.132  1.00  0.00     0.027 C 
BRANCH   6   7
HETATM    7  C   UNL     1      39.945 -13.877   3.633  1.00  0.00     0.080 C 
BRANCH   7   8
HETATM    8  C   UNL     1      40.818 -14.920   3.029  1.00  0.00     0.105 A 
HETATM    9  N   UNL     1      40.440 -16.107   2.602  1.00  0.00    -0.233 NA
HETATM   10  C   UNL     1      41.584 -16.722   2.156  1.00  0.00     0.085 A 
HETATM   11  C   UNL     1      42.688 -15.890   2.309  1.00  0.00     0.062 A 
HETATM   12  C   UNL     1      41.761 -18.000   1.605  1.00  0.00     0.034 A 
HETATM   13  C   UNL     1      43.984 -16.260   1.944  1.00  0.00     0.032 A 
HETATM   14  N   UNL     1      42.171 -14.746   2.860  1.00  0.00    -0.343 N 
HETATM   15  C   UNL     1      44.142 -17.540   1.399  1.00  0.00     0.002 A 
HETATM   16  C   UNL     1      43.051 -18.397   1.230  1.00  0.00     0.002 A 
HETATM   17  H   UNL     1      42.695 -13.918   3.106  1.00  0.00     0.167 HD
ENDBRANCH   7   8
ENDBRANCH   6   7
ENDBRANCH   5   6
ENDBRANCH   1   5
BRANCH   2  18
HETATM   18  C   UNL     1      43.189 -16.764   6.988  1.00  0.00     0.152 A 
HETATM   19  N   UNL     1      43.507 -16.728   8.302  1.00  0.00    -0.169 NA
HETATM   20  N   UNL     1      43.721 -18.009   8.629  1.00  0.00    -0.281 N 
HETATM   21  H   UNL     1      43.986 -18.222   9.586  1.00  0.00     0.189 HD
HETATM   22  C   UNL     1      43.567 -18.878   7.591  1.00  0.00     0.036 A 
HETATM   23  C   UNL     1      43.205 -18.108   6.501  1.00  0.00     0.002 A 
HETATM   24  C   UNL     1      43.814 -20.339   7.745  1.00  0.00     0.059 C 
HETATM   25  C   UNL     1      42.901 -18.623   5.137  1.00  0.00     0.043 C 
HETATM   26  C   UNL     1      44.057 -19.401   4.503  1.00  0.00     0.005 C 
HETATM   27  C   UNL     1      44.710 -20.507   5.349  1.00  0.00     0.001 C 
HETATM   28  C   UNL     1      43.818 -21.126   6.429  1.00  0.00     0.006 C 
ENDBRANCH   2  18
TORSDOF 5
ENDMDL
MODEL 5
REMARK VINA RESULT:      -9.1      3.834      7.837
REMARK  5 active torsions:
REMARK  status: ('A' for Active; 'I' for Inactive)
REMARK    1  A    between atoms: C_6  and  C_7 
REMARK    2  A    between atoms: C_7  and  C_8 
REMARK    3  A    between atoms: C_8  and  C_9 
REMARK    4  A    between atoms: C_9  and  N_10 
REMARK       I    between atoms: N_10  and  C_11 
REMARK    5  A    between atoms: C_11  and  C_12 
ROOT
HETATM    1  N   UNL     1      42.331 -16.551   6.674  1.00  0.00    -0.356 N 
HETATM    2  C   UNL     1      42.489 -15.380   5.962  1.00  0.00     0.272 C 
HETATM    3  O   UNL     1      43.292 -14.506   6.279  1.00  0.00    -0.266 OA
HETATM    4  H   UNL     1      41.677 -17.216   6.267  1.00  0.00     0.162 HD
ENDROOT
BRANCH   1   5
HETATM    5  C   UNL     1      43.118 -16.886   7.832  1.00  0.00     0.123 C 
BRANCH   5   6
HETATM    6  C   UNL     1      43.709 -18.290   7.730  1.00  0.00     0.027 C 
BRANCH   6   7
HETATM    7  C   UNL     1      44.923 -18.299   6.806  1.00  0.00     0.080 C 
BRANCH   7   8
HETATM    8  C   UNL     1      44.662 -19.078   5.564  1.00  0.00     0.105 A 
HETATM    9  N   UNL     1      44.072 -18.637   4.472  1.00  0.00    -0.233 NA
HETATM   10  C   UNL     1      44.033 -19.708   3.615  1.00  0.00     0.085 A 
HETATM   11  C   UNL     1      44.616 -20.830   4.193  1.00  0.00     0.062 A 
HETATM   12  C   UNL     1      43.509 -19.801   2.317  1.00  0.00     0.034 A 
HETATM   13  C   UNL     1      44.709 -22.065   3.548  1.00  0.00     0.032 A 
HETATM   14  N   UNL     1      45.015 -20.399   5.432  1.00  0.00    -0.343 N 
HETATM   15  C   UNL     1      44.177 -22.140   2.255  1.00  0.00     0.002 A 
HETATM   16  C   UNL     1      43.588 -21.028   1.646  1.00  0.00     0.002 A 
HETATM   17  H   UNL     1      45.484 -20.958   6.131  1.00  0.00     0.167 HD
ENDBRANCH   7   8
ENDBRANCH   6   7
ENDBRANCH   5   6
ENDBRANCH   1   5
BRANCH   2  18
HETATM   18  C   UNL     1      41.604 -15.304   4.781  1.00  0.00     0.152 A 
HETATM   19  N   UNL     1      40.260 -15.268   4.937  1.00  0.00    -0.169 NA
HETATM   20  N   UNL     1      39.781 -15.213   3.687  1.00  0.00    -0.281 N 
HETATM   21  H   UNL     1      38.774 -15.186   3.560  1.00  0.00     0.189 HD
HETATM   22  C   UNL     1      40.746 -15.219   2.724  1.00  0.00     0.036 A 
HETATM   23  C   UNL     1      41.954 -15.264   3.396  1.00  0.00     0.002 A 
HETATM   24  C   UNL     1      40.408 -15.216   1.273  1.00  0.00     0.059 C 
HETATM   25  C   UNL     1      43.300 -15.262   2.761  1.00  0.00     0.043 C 
HETATM   26  C   UNL     1      43.525 -16.426   1.794  1.00  0.00     0.005 C 
HETATM   27  C   UNL     1      42.443 -16.678   0.729  1.00  0.00     0.001 C 
HETATM   28  C   UNL     1      41.602 -15.458   0.341  1.00  0.00     0.006 C 
ENDBRANCH   2  18
TORSDOF 5
ENDMDL
MODEL 6
REMARK VINA RESULT:      -8.9      1.768      2.613
REMARK  5 active torsions:
REMARK  status: ('A' for Active; 'I' for Inactive)
REMARK    1  A    between atoms: C_6  and  C_7 
REMARK    2  A    between atoms: C_7  and  C_8 
REMARK    3  A    between atoms: C_8  and  C_9 
REMARK    4  A    between atoms: C_9  and  N_10 
REMARK       I    between atoms: N_10  and  C_11 
REMARK    5  A    between atoms: C_11  and  C_12 
ROOT
HETATM    1  N   UNL     1      44.249 -16.039   6.619  1.00  0.00    -0.356 N 
HETATM    2  C   UNL     1      43.722 -17.281   6.903  1.00  0.00     0.272 C 
HETATM    3  O   UNL     1      43.129 -17.534   7.949  1.00  0.00    -0.266 OA
HETATM    4  H   UNL     1      44.658 -15.948   5.692  1.00  0.00     0.162 HD
ENDROOT
BRANCH   1   5
HETATM    5  C   UNL     1      44.121 -14.903   7.496  1.00  0.00     0.123 C 
BRANCH   5   6
HETATM    6  C   UNL     1      44.837 -13.675   6.944  1.00  0.00     0.027 C 
BRANCH   6   7
HETATM    7  C   UNL     1      45.627 -12.970   8.042  1.00  0.00     0.080 C 
BRANCH   7   8
HETATM    8  C   UNL     1      44.731 -12.407   9.090  1.00  0.00     0.105 A 
HETATM    9  N   UNL     1      44.821 -12.606  10.388  1.00  0.00    -0.233 NA
HETATM   10  C   UNL     1      43.773 -11.914  10.942  1.00  0.00     0.085 A 
HETATM   11  C   UNL     1      43.026 -11.272   9.961  1.00  0.00     0.062 A 
HETATM   12  C   UNL     1      43.390 -11.787  12.286  1.00  0.00     0.034 A 
HETATM   13  C   UNL     1      41.897 -10.499  10.238  1.00  0.00     0.032 A 
HETATM   14  N   UNL     1      43.662 -11.597   8.790  1.00  0.00    -0.343 N 
HETATM   15  C   UNL     1      41.528 -10.387  11.584  1.00  0.00     0.002 A 
HETATM   16  C   UNL     1      42.261 -11.018  12.594  1.00  0.00     0.002 A 
HETATM   17  H   UNL     1      43.389 -11.296   7.865  1.00  0.00     0.167 HD
ENDBRANCH   7   8
ENDBRANCH   6   7
ENDBRANCH   5   6
ENDBRANCH   1   5
BRANCH   2  18
HETATM   18  C   UNL     1      43.936 -18.257   5.815  1.00  0.00     0.152 A 
HETATM   19  N   UNL     1      44.583 -19.420   6.059  1.00  0.00    -0.169 NA
HETATM   20  N   UNL     1      44.609 -20.043   4.874  1.00  0.00    -0.281 N 
HETATM   21  H   UNL     1      45.062 -20.949   4.818  1.00  0.00     0.189 HD
HETATM   22  C   UNL     1      44.017 -19.339   3.867  1.00  0.00     0.036 A 
HETATM   23  C   UNL     1      43.552 -18.171   4.442  1.00  0.00     0.002 A 
HETATM   24  C   UNL     1      43.992 -19.844   2.466  1.00  0.00     0.059 C 
HETATM   25  C   UNL     1      42.809 -17.093   3.733  1.00  0.00     0.043 C 
HETATM   26  C   UNL     1      43.578 -16.487   2.557  1.00  0.00     0.005 C 
HETATM   27  C   UNL     1      44.187 -17.462   1.536  1.00  0.00     0.001 C 
HETATM   28  C   UNL     1      43.497 -18.825   1.431  1.00  0.00     0.006 C 
ENDBRANCH   2  18
TORSDOF 5
ENDMDL
MODEL 7
REMARK VINA RESULT:      -8.6      2.202     10.394
REMARK  5 active torsions:
REMARK  status: ('A' for Active; 'I' for Inactive)
REMARK    1  A    between atoms: C_6  and  C_7 
REMARK    2  A    between atoms: C_7  and  C_8 
REMARK    3  A    between atoms: C_8  and  C_9 
REMARK    4  A    between atoms: C_9  and  N_10 
REMARK       I    between atoms: N_10  and  C_11 
REMARK    5  A    between atoms: C_11  and  C_12 
ROOT
HETATM    1  N   UNL     1      43.997 -12.711   8.329  1.00  0.00    -0.356 N 
HETATM    2  C   UNL     1      44.357 -11.518   8.921  1.00  0.00     0.272 C 
HETATM    3  O   UNL     1      45.525 -11.162   9.051  1.00  0.00    -0.266 OA
HETATM    4  H   UNL     1      42.994 -12.855   8.228  1.00  0.00     0.162 HD
ENDROOT
BRANCH   1   5
HETATM    5  C   UNL     1      44.947 -13.637   7.767  1.00  0.00     0.123 C 
BRANCH   5   6
HETATM    6  C   UNL     1      44.514 -14.127   6.388  1.00  0.00     0.027 C 
BRANCH   6   7
HETATM    7  C   UNL     1      43.370 -15.129   6.505  1.00  0.00     0.080 C 
BRANCH   7   8
HETATM    8  C   UNL     1      43.637 -16.364   5.716  1.00  0.00     0.105 A 
HETATM    9  N   UNL     1      44.210 -17.465   6.155  1.00  0.00    -0.233 NA
HETATM   10  C   UNL     1      44.265 -18.310   5.074  1.00  0.00     0.085 A 
HETATM   11  C   UNL     1      43.709 -17.713   3.948  1.00  0.00     0.062 A 
HETATM   12  C   UNL     1      44.780 -19.611   4.975  1.00  0.00     0.034 A 
HETATM   13  C   UNL     1      43.636 -18.341   2.703  1.00  0.00     0.032 A 
HETATM   14  N   UNL     1      43.311 -16.476   4.387  1.00  0.00    -0.343 N 
HETATM   15  C   UNL     1      44.159 -19.638   2.622  1.00  0.00     0.002 A 
HETATM   16  C   UNL     1      44.721 -20.265   3.738  1.00  0.00     0.002 A 
HETATM   17  H   UNL     1      42.859 -15.767   3.827  1.00  0.00     0.167 HD
ENDBRANCH   7   8
ENDBRANCH   6   7
ENDBRANCH   5   6
ENDBRANCH   1   5
BRANCH   2  18
HETATM   18  C   UNL     1      43.193 -10.723   9.362  1.00  0.00     0.152 A 
HETATM   19  N   UNL     1      42.401 -10.110   8.453  1.00  0.00    -0.169 NA
HETATM   20  N   UNL     1      41.473  -9.484   9.188  1.00  0.00    -0.281 N 
HETATM   21  H   UNL     1      40.763  -8.942   8.705  1.00  0.00     0.189 HD
HETATM   22  C   UNL     1      41.625  -9.652  10.532  1.00  0.00     0.036 A 
HETATM   23  C   UNL     1      42.731 -10.467  10.690  1.00  0.00     0.002 A 
HETATM   24  C   UNL     1      40.722  -8.990  11.514  1.00  0.00     0.059 C 
HETATM   25  C   UNL     1      43.273 -10.950  11.990  1.00  0.00     0.043 C 
HETATM   26  C   UNL     1      43.673  -9.823  12.945  1.00  0.00     0.005 C 
HETATM   27  C   UNL     1      42.643  -8.707  13.189  1.00  0.00     0.001 C 
HETATM   28  C   UNL     1      41.179  -9.101  12.975  1.00  0.00     0.006 C 
ENDBRANCH   2  18
TORSDOF 5
ENDMDL
MODEL 8
REMARK VINA RESULT:      -8.5      3.967      8.565
REMARK  5 active torsions:
REMARK  status: ('A' for Active; 'I' for Inactive)
REMARK    1  A    between atoms: C_6  and  C_7 
REMARK    2  A    between atoms: C_7  and  C_8 
REMARK    3  A    between atoms: C_8  and  C_9 
REMARK    4  A    between atoms: C_9  and  N_10 
REMARK       I    between atoms: N_10  and  C_11 
REMARK    5  A    between atoms: C_11  and  C_12 
ROOT
HETATM    1  N   UNL     1      41.748 -15.288   5.174  1.00  0.00    -0.356 N 
HETATM    2  C   UNL     1      41.952 -14.903   3.865  1.00  0.00     0.272 C 
HETATM    3  O   UNL     1      43.026 -14.472   3.454  1.00  0.00    -0.266 OA
HETATM    4  H   UNL     1      40.830 -15.685   5.367  1.00  0.00     0.162 HD
ENDROOT
BRANCH   1   5
HETATM    5  C   UNL     1      42.781 -15.266   6.177  1.00  0.00     0.123 C 
BRANCH   5   6
HETATM    6  C   UNL     1      43.049 -16.656   6.747  1.00  0.00     0.027 C 
BRANCH   6   7
HETATM    7  C   UNL     1      44.426 -17.158   6.324  1.00  0.00     0.080 C 
BRANCH   7   8
HETATM    8  C   UNL     1      44.327 -18.263   5.331  1.00  0.00     0.105 A 
HETATM    9  N   UNL     1      44.824 -19.476   5.456  1.00  0.00    -0.233 NA
HETATM   10  C   UNL     1      44.508 -20.128   4.290  1.00  0.00     0.085 A 
HETATM   11  C   UNL     1      43.796 -19.296   3.432  1.00  0.00     0.062 A 
HETATM   12  C   UNL     1      44.798 -21.439   3.887  1.00  0.00     0.034 A 
HETATM   13  C   UNL     1      43.350 -19.696   2.171  1.00  0.00     0.032 A 
HETATM   14  N   UNL     1      43.689 -18.116   4.123  1.00  0.00    -0.343 N 
HETATM   15  C   UNL     1      43.652 -21.007   1.784  1.00  0.00     0.002 A 
HETATM   16  C   UNL     1      44.363 -21.867   2.626  1.00  0.00     0.002 A 
HETATM   17  H   UNL     1      43.224 -17.280   3.798  1.00  0.00     0.167 HD
ENDBRANCH   7   8
ENDBRANCH   6   7
ENDBRANCH   5   6
ENDBRANCH   1   5
BRANCH   2  18
HETATM   18  C   UNL     1      40.751 -15.077   3.023  1.00  0.00     0.152 A 
HETATM   19  N   UNL     1      40.418 -16.301   2.553  1.00  0.00    -0.169 NA
HETATM   20  N   UNL     1      39.307 -16.093   1.834  1.00  0.00    -0.281 N 
HETATM   21  H   UNL     1      38.877 -16.888   1.373  1.00  0.00     0.189 HD
HETATM   22  C   UNL     1      38.904 -14.791   1.805  1.00  0.00     0.036 A 
HETATM   23  C   UNL     1      39.812 -14.094   2.581  1.00  0.00     0.002 A 
HETATM   24  C   UNL     1      37.720 -14.353   1.015  1.00  0.00     0.059 C 
HETATM   25  C   UNL     1      39.768 -12.633   2.867  1.00  0.00     0.043 C 
HETATM   26  C   UNL     1      39.812 -11.760   1.611  1.00  0.00     0.005 C 
HETATM   27  C   UNL     1      38.828 -12.103   0.479  1.00  0.00     0.001 C 
HETATM   28  C   UNL     1      37.552 -12.831   0.911  1.00  0.00     0.006 C 
ENDBRANCH   2  18
TORSDOF 5
ENDMDL
MODEL 9
REMARK VINA RESULT:      -8.4      4.791      8.456
REMARK  5 active torsions:
REMARK  status: ('A' for Active; 'I' for Inactive)
REMARK    1  A    between atoms: C_6  and  C_7 
REMARK    2  A    between atoms: C_7  and  C_8 
REMARK    3  A    between atoms: C_8  and  C_9 
REMARK    4  A    between atoms: C_9  and  N_10 
REMARK       I    between atoms: N_10  and  C_11 
REMARK    5  A    between atoms: C_11  and  C_12 
ROOT
HETATM    1  N   UNL     1      41.442 -14.554   3.125  1.00  0.00    -0.356 N 
HETATM    2  C   UNL     1      42.069 -13.989   2.034  1.00  0.00     0.272 C 
HETATM    3  O   UNL     1      42.846 -13.042   2.124  1.00  0.00    -0.266 OA
HETATM    4  H   UNL     1      40.873 -15.372   2.918  1.00  0.00     0.162 HD
ENDROOT
BRANCH   1   5
HETATM    5  C   UNL     1      41.668 -14.122   4.481  1.00  0.00     0.123 C 
BRANCH   5   6
HETATM    6  C   UNL     1      42.914 -14.767   5.082  1.00  0.00     0.027 C 
BRANCH   6   7
HETATM    7  C   UNL     1      42.570 -16.105   5.731  1.00  0.00     0.080 C 
BRANCH   7   8
HETATM    8  C   UNL     1      42.951 -17.252   4.861  1.00  0.00     0.105 A 
HETATM    9  N   UNL     1      42.459 -17.530   3.672  1.00  0.00    -0.233 NA
HETATM   10  C   UNL     1      43.087 -18.683   3.272  1.00  0.00     0.085 A 
HETATM   11  C   UNL     1      43.988 -19.119   4.238  1.00  0.00     0.062 A 
HETATM   12  C   UNL     1      42.938 -19.424   2.090  1.00  0.00     0.034 A 
HETATM   13  C   UNL     1      44.762 -20.273   4.099  1.00  0.00     0.032 A 
HETATM   14  N   UNL     1      43.886 -18.185   5.236  1.00  0.00    -0.343 N 
HETATM   15  C   UNL     1      44.597 -21.002   2.915  1.00  0.00     0.002 A 
HETATM   16  C   UNL     1      43.702 -20.586   1.925  1.00  0.00     0.002 A 
HETATM   17  H   UNL     1      44.406 -18.186   6.102  1.00  0.00     0.167 HD
ENDBRANCH   7   8
ENDBRANCH   6   7
ENDBRANCH   5   6
ENDBRANCH   1   5
BRANCH   2  18
HETATM   18  C   UNL     1      41.713 -14.652   0.762  1.00  0.00     0.152 A 
HETATM   19  N   UNL     1      41.700 -16.002   0.676  1.00  0.00    -0.169 NA
HETATM   20  N   UNL     1      41.354 -16.252  -0.593  1.00  0.00    -0.281 N 
HETATM   21  H   UNL     1      41.288 -17.221  -0.890  1.00  0.00     0.189 HD
HETATM   22  C   UNL     1      41.147 -15.132  -1.341  1.00  0.00     0.036 A 
HETATM   23  C   UNL     1      41.359 -14.062  -0.490  1.00  0.00     0.002 A 
HETATM   24  C   UNL     1      40.806 -15.206  -2.789  1.00  0.00     0.059 C 
HETATM   25  C   UNL     1      41.224 -12.625  -0.855  1.00  0.00     0.043 C 
HETATM   26  C   UNL     1      42.136 -12.194  -2.005  1.00  0.00     0.005 C 
HETATM   27  C   UNL     1      42.124 -13.061  -3.276  1.00  0.00     0.001 C 
HETATM   28  C   UNL     1      40.839 -13.857  -3.520  1.00  0.00     0.006 C 
ENDBRANCH   2  18
TORSDOF 5
ENDMDL
MODEL 10
REMARK VINA RESULT:      -8.4      2.935     10.330
REMARK  5 active torsions:
REMARK  status: ('A' for Active; 'I' for Inactive)
REMARK    1  A    between atoms: C_6  and  C_7 
REMARK    2  A    between atoms: C_7  and  C_8 
REMARK    3  A    between atoms: C_8  and  C_9 
REMARK    4  A    between atoms: C_9  and  N_10 
REMARK       I    between atoms: N_10  and  C_11 
REMARK    5  A    between atoms: C_11  and  C_12 
ROOT
HETATM    1  N   UNL     1      41.287 -11.753   7.363  1.00  0.00    -0.356 N 
HETATM    2  C   UNL     1      41.573 -10.618   8.092  1.00  0.00     0.272 C 
HETATM    3  O   UNL     1      42.165  -9.651   7.620  1.00  0.00    -0.266 OA
HETATM    4  H   UNL     1      40.737 -12.454   7.856  1.00  0.00     0.162 HD
ENDROOT
BRANCH   1   5
HETATM    5  C   UNL     1      41.613 -11.902   5.968  1.00  0.00     0.123 C 
BRANCH   5   6
HETATM    6  C   UNL     1      42.432 -13.163   5.707  1.00  0.00     0.027 C 
BRANCH   6   7
HETATM    7  C   UNL     1      42.744 -13.308   4.220  1.00  0.00     0.080 C 
BRANCH   7   8
HETATM    8  C   UNL     1      42.973 -14.730   3.843  1.00  0.00     0.105 A 
HETATM    9  N   UNL     1      42.756 -15.786   4.599  1.00  0.00    -0.233 NA
HETATM   10  C   UNL     1      43.135 -16.867   3.841  1.00  0.00     0.085 A 
HETATM   11  C   UNL     1      43.588 -16.464   2.590  1.00  0.00     0.062 A 
HETATM   12  C   UNL     1      43.121 -18.234   4.156  1.00  0.00     0.034 A 
HETATM   13  C   UNL     1      44.043 -17.354   1.615  1.00  0.00     0.032 A 
HETATM   14  N   UNL     1      43.468 -15.098   2.615  1.00  0.00    -0.343 N 
HETATM   15  C   UNL     1      44.025 -18.714   1.949  1.00  0.00     0.002 A 
HETATM   16  C   UNL     1      43.572 -19.149   3.197  1.00  0.00     0.002 A 
HETATM   17  H   UNL     1      43.707 -14.469   1.862  1.00  0.00     0.167 HD
ENDBRANCH   7   8
ENDBRANCH   6   7
ENDBRANCH   5   6
ENDBRANCH   1   5
BRANCH   2  18
HETATM   18  C   UNL     1      41.081 -10.692   9.483  1.00  0.00     0.152 A 
HETATM   19  N   UNL     1      39.758 -10.594   9.746  1.00  0.00    -0.169 NA
HETATM   20  N   UNL     1      39.674 -10.688  11.079  1.00  0.00    -0.281 N 
HETATM   21  H   UNL     1      38.756 -10.632  11.508  1.00  0.00     0.189 HD
HETATM   22  C   UNL     1      40.879 -10.835  11.700  1.00  0.00     0.036 A 
HETATM   23  C   UNL     1      41.826 -10.855  10.692  1.00  0.00     0.002 A 
HETATM   24  C   UNL     1      40.996 -10.904  13.183  1.00  0.00     0.059 C 
HETATM   25  C   UNL     1      43.293 -11.023  10.884  1.00  0.00     0.043 C 
HETATM   26  C   UNL     1      43.922  -9.951  11.777  1.00  0.00     0.005 C 
HETATM   27  C   UNL     1      43.245  -9.673  13.129  1.00  0.00     0.001 C 
HETATM   28  C   UNL     1      42.434 -10.834  13.713  1.00  0.00     0.006 C 
ENDBRANCH   2  18
TORSDOF 5
ENDMDL
