MODEL 1
REMARK VINA RESULT:      -9.0      0.000      0.000
REMARK  6 active torsions:
REMARK  status: ('A' for Active; 'I' for Inactive)
REMARK    1  A    between atoms: C_2  and  C_3 
REMARK       I    between atoms: C_3  and  N_4 
REMARK    2  A    between atoms: N_4  and  C_5 
REMARK    3  A    between atoms: C_5  and  C_6 
REMARK    4  A    between atoms: N_8  and  C_10 
REMARK    5  A    between atoms: C_10  and  C_11 
REMARK    6  A    between atoms: C_12  and  C_13 
ROOT
HETATM    1  C   UNL     1      44.091 -15.445   6.426  1.00  0.00     0.029 C 
HETATM    2  C   UNL     1      42.948 -15.304   5.414  1.00  0.00     0.241 C 
HETATM    3  N   UNL     1      42.244 -16.633   5.215  1.00  0.00    -0.067 N 
HETATM    4  H   UNL     1      42.938 -17.308   4.875  1.00  0.00     0.280 HD
HETATM    5  C   UNL     1      41.693 -17.183   6.504  1.00  0.00     0.235 C 
HETATM    6  C   UNL     1      42.834 -17.371   7.491  1.00  0.00     0.028 C 
HETATM    7  C   UNL     1      43.584 -16.068   7.736  1.00  0.00     0.009 C 
ENDROOT
BRANCH   3   8
HETATM    8  C   UNL     1      41.196 -16.518   4.117  1.00  0.00     0.277 C 
BRANCH   8   9
HETATM    9  C   UNL     1      41.776 -16.428   2.750  1.00  0.00     0.016 A 
HETATM   10  C   UNL     1      42.727 -17.296   2.114  1.00  0.00     0.096 A 
HETATM   11  N   UNL     1      43.017 -16.850   0.884  1.00  0.00    -0.174 NA
HETATM   12  N   UNL     1      42.330 -15.716   0.742  1.00  0.00    -0.288 N 
HETATM   13  H   UNL     1      42.439 -15.193  -0.124  1.00  0.00     0.188 HD
HETATM   14  C   UNL     1      41.566 -15.417   1.829  1.00  0.00     0.120 A 
BRANCH  10  15
HETATM   15  C   UNL     1      43.391 -18.502   2.620  1.00  0.00    -0.003 A 
HETATM   16  C   UNL     1      43.487 -19.669   1.856  1.00  0.00     0.037 A 
HETATM   17  C   UNL     1      44.114 -20.803   2.377  1.00  0.00     0.035 A 
HETATM   18 CL   UNL     1      44.183 -22.233   1.421  1.00  0.00    -0.084 Cl
HETATM   19  C   UNL     1      44.675 -20.786   3.651  1.00  0.00     0.024 A 
HETATM   20  C   UNL     1      44.609 -19.621   4.412  1.00  0.00     0.003 A 
HETATM   21  C   UNL     1      43.970 -18.488   3.899  1.00  0.00     0.014 A 
ENDBRANCH  10  15
ENDBRANCH   8   9
ENDBRANCH   3   8
BRANCH   1  22
HETATM   22  C   UNL     1      44.753 -14.091   6.740  1.00  0.00     0.128 C 
BRANCH  22  23
HETATM   23  N   UNL     1      44.365 -13.527   8.017  1.00  0.00    -0.360 N 
HETATM   24  C   UNL     1      45.152 -12.593   8.664  1.00  0.00     0.221 C 
HETATM   25  O   UNL     1      46.314 -12.392   8.322  1.00  0.00    -0.273 OA
HETATM   26  H   UNL     1      43.391 -13.601   8.294  1.00  0.00     0.162 HD
BRANCH  24  27
HETATM   27  C   UNL     1      44.478 -11.903   9.847  1.00  0.00     0.070 C 
HETATM   28  C   UNL     1      43.320 -11.023   9.378  1.00  0.00     0.019 C 
HETATM   29  C   UNL     1      45.487 -11.066  10.631  1.00  0.00     0.019 C 
ENDBRANCH  24  27
ENDBRANCH  22  23
ENDBRANCH   1  22
TORSDOF 6
ENDMDL
MODEL 2
REMARK VINA RESULT:      -8.7      4.035      9.116
REMARK  6 active torsions:
REMARK  status: ('A' for Active; 'I' for Inactive)
REMARK    1  A    between atoms: C_2  and  C_3 
REMARK       I    between atoms: C_3  and  N_4 
REMARK    2  A    between atoms: N_4  and  C_5 
REMARK    3  A    between atoms: C_5  and  C_6 
REMARK    4  A    between atoms: N_8  and  C_10 
REMARK    5  A    between atoms: C_10  and  C_11 
REMARK    6  A    between atoms: C_12  and  C_13 
ROOT
HETATM    1  C   UNL     1      43.335 -16.390   4.427  1.00  0.00     0.029 C 
HETATM    2  C   UNL     1      43.396 -15.946   5.894  1.00  0.00     0.241 C 
HETATM    3  N   UNL     1      44.164 -14.643   6.025  1.00  0.00    -0.067 N 
HETATM    4  H   UNL     1      45.110 -14.798   5.660  1.00  0.00     0.280 HD
HETATM    5  C   UNL     1      43.553 -13.540   5.203  1.00  0.00     0.235 C 
HETATM    6  C   UNL     1      43.538 -13.959   3.742  1.00  0.00     0.028 C 
HETATM    7  C   UNL     1      42.780 -15.264   3.541  1.00  0.00     0.009 C 
ENDROOT
BRANCH   3   8
HETATM    8  C   UNL     1      44.332 -14.275   7.492  1.00  0.00     0.277 C 
BRANCH   8   9
HETATM    9  C   UNL     1      45.359 -13.223   7.725  1.00  0.00     0.016 A 
HETATM   10  C   UNL     1      45.337 -12.132   8.658  1.00  0.00     0.096 A 
HETATM   11  N   UNL     1      46.445 -11.389   8.535  1.00  0.00    -0.174 NA
HETATM   12  N   UNL     1      47.134 -11.936   7.532  1.00  0.00    -0.288 N 
HETATM   13  H   UNL     1      48.007 -11.495   7.251  1.00  0.00     0.188 HD
HETATM   14  C   UNL     1      46.531 -13.041   7.012  1.00  0.00     0.120 A 
BRANCH  10  15
HETATM   15  C   UNL     1      44.314 -11.745   9.635  1.00  0.00    -0.003 A 
HETATM   16  C   UNL     1      43.193 -10.992   9.273  1.00  0.00     0.037 A 
HETATM   17  C   UNL     1      42.248 -10.630  10.235  1.00  0.00     0.035 A 
HETATM   18 CL   UNL     1      40.897  -9.673   9.760  1.00  0.00    -0.084 Cl
HETATM   19  C   UNL     1      42.388 -11.029  11.561  1.00  0.00     0.024 A 
HETATM   20  C   UNL     1      43.488 -11.802  11.929  1.00  0.00     0.003 A 
HETATM   21  C   UNL     1      44.444 -12.155  10.972  1.00  0.00     0.014 A 
ENDBRANCH  10  15
ENDBRANCH   8   9
ENDBRANCH   3   8
BRANCH   1  22
HETATM   22  C   UNL     1      42.464 -17.646   4.241  1.00  0.00     0.128 C 
BRANCH  22  23
HETATM   23  N   UNL     1      43.221 -18.861   4.018  1.00  0.00    -0.360 N 
HETATM   24  C   UNL     1      43.467 -19.336   2.745  1.00  0.00     0.221 C 
HETATM   25  O   UNL     1      42.853 -18.904   1.773  1.00  0.00    -0.273 OA
HETATM   26  H   UNL     1      43.806 -19.203   4.774  1.00  0.00     0.162 HD
BRANCH  24  27
HETATM   27  C   UNL     1      44.498 -20.460   2.673  1.00  0.00     0.070 C 
HETATM   28  C   UNL     1      43.983 -21.619   1.822  1.00  0.00     0.019 C 
HETATM   29  C   UNL     1      44.855 -20.957   4.074  1.00  0.00     0.019 C 
ENDBRANCH  24  27
ENDBRANCH  22  23
ENDBRANCH   1  22
TORSDOF 6
ENDMDL
MODEL 3
REMARK VINA RESULT:      -8.7      1.533      2.045
REMARK  6 active torsions:
REMARK  status: ('A' for Active; 'I' for Inactive)
REMARK    1  A    between atoms: C_2  and  C_3 
REMARK       I    between atoms: C_3  and  N_4 
REMARK    2  A    between atoms: N_4  and  C_5 
REMARK    3  A    between atoms: C_5  and  C_6 
REMARK    4  A    between atoms: N_8  and  C_10 
REMARK    5  A    between atoms: C_10  and  C_11 
REMARK    6  A    between atoms: C_12  and  C_13 
ROOT
HETATM    1  C   UNL     1      43.467 -14.156   6.272  1.00  0.00     0.029 C 
HETATM    2  C   UNL     1      43.931 -14.535   4.861  1.00  0.00     0.241 C 
HETATM    3  N   UNL     1      42.753 -14.571   3.904  1.00  0.00    -0.067 N 
HETATM    4  H   UNL     1      42.083 -15.264   4.257  1.00  0.00     0.280 HD
HETATM    5  C   UNL     1      42.028 -13.252   3.846  1.00  0.00     0.235 C 
HETATM    6  C   UNL     1      41.525 -12.901   5.237  1.00  0.00     0.028 C 
HETATM    7  C   UNL     1      42.662 -12.847   6.248  1.00  0.00     0.009 C 
ENDROOT
BRANCH   3   8
HETATM    8  C   UNL     1      43.196 -15.072   2.537  1.00  0.00     0.277 C 
BRANCH   8   9
HETATM    9  C   UNL     1      42.197 -15.952   1.875  1.00  0.00     0.016 A 
HETATM   10  C   UNL     1      42.100 -17.385   1.900  1.00  0.00     0.096 A 
HETATM   11  N   UNL     1      41.070 -17.796   1.147  1.00  0.00    -0.174 NA
HETATM   12  N   UNL     1      40.552 -16.690   0.612  1.00  0.00    -0.288 N 
HETATM   13  H   UNL     1      39.769 -16.788  -0.030  1.00  0.00     0.188 HD
HETATM   14  C   UNL     1      41.186 -15.555   1.017  1.00  0.00     0.120 A 
BRANCH  10  15
HETATM   15  C   UNL     1      42.943 -18.377   2.574  1.00  0.00    -0.003 A 
HETATM   16  C   UNL     1      43.360 -19.549   1.936  1.00  0.00     0.037 A 
HETATM   17  C   UNL     1      44.151 -20.478   2.615  1.00  0.00     0.035 A 
HETATM   18 CL   UNL     1      44.618 -21.926   1.809  1.00  0.00    -0.084 Cl
HETATM   19  C   UNL     1      44.558 -20.246   3.926  1.00  0.00     0.024 A 
HETATM   20  C   UNL     1      44.170 -19.070   4.564  1.00  0.00     0.003 A 
HETATM   21  C   UNL     1      43.368 -18.144   3.892  1.00  0.00     0.014 A 
ENDBRANCH  10  15
ENDBRANCH   8   9
ENDBRANCH   3   8
BRANCH   1  22
HETATM   22  C   UNL     1      44.651 -13.995   7.244  1.00  0.00     0.128 C 
BRANCH  22  23
HETATM   23  N   UNL     1      44.328 -13.266   8.453  1.00  0.00    -0.360 N 
HETATM   24  C   UNL     1      45.115 -12.223   8.900  1.00  0.00     0.221 C 
HETATM   25  O   UNL     1      46.241 -12.033   8.448  1.00  0.00    -0.273 OA
HETATM   26  H   UNL     1      43.380 -13.333   8.810  1.00  0.00     0.162 HD
BRANCH  24  27
HETATM   27  C   UNL     1      44.494 -11.392  10.021  1.00  0.00     0.070 C 
HETATM   28  C   UNL     1      44.248 -12.249  11.263  1.00  0.00     0.019 C 
HETATM   29  C   UNL     1      43.186 -10.752   9.560  1.00  0.00     0.019 C 
ENDBRANCH  24  27
ENDBRANCH  22  23
ENDBRANCH   1  22
TORSDOF 6
ENDMDL
MODEL 4
REMARK VINA RESULT:      -8.7      3.711      7.142
REMARK  6 active torsions:
REMARK  status: ('A' for Active; 'I' for Inactive)
REMARK    1  A    between atoms: C_2  and  C_3 
REMARK       I    between atoms: C_3  and  N_4 
REMARK    2  A    between atoms: N_4  and  C_5 
REMARK    3  A    between atoms: C_5  and  C_6 
REMARK    4  A    between atoms: N_8  and  C_10 
REMARK    5  A    between atoms: C_10  and  C_11 
REMARK    6  A    between atoms: C_12  and  C_13 
ROOT
HETATM    1  C   UNL     1      40.838 -16.115   1.384  1.00  0.00     0.029 C 
HETATM    2  C   UNL     1      40.908 -16.446   2.879  1.00  0.00     0.241 C 
HETATM    3  N   UNL     1      41.887 -17.579   3.129  1.00  0.00    -0.067 N 
HETATM    4  H   UNL     1      41.564 -18.396   2.599  1.00  0.00     0.280 HD
HETATM    5  C   UNL     1      43.270 -17.254   2.633  1.00  0.00     0.235 C 
HETATM    6  C   UNL     1      43.209 -16.975   1.139  1.00  0.00     0.028 C 
HETATM    7  C   UNL     1      42.242 -15.843   0.820  1.00  0.00     0.009 C 
ENDROOT
BRANCH   3   8
HETATM    8  C   UNL     1      41.857 -17.990   4.594  1.00  0.00     0.277 C 
BRANCH   8   9
HETATM    9  C   UNL     1      43.169 -17.838   5.279  1.00  0.00     0.016 A 
HETATM   10  C   UNL     1      44.258 -18.770   5.362  1.00  0.00     0.096 A 
HETATM   11  N   UNL     1      45.254 -18.261   6.099  1.00  0.00    -0.174 NA
HETATM   12  N   UNL     1      44.816 -17.075   6.524  1.00  0.00    -0.288 N 
HETATM   13  H   UNL     1      45.419 -16.531   7.138  1.00  0.00     0.188 HD
HETATM   14  C   UNL     1      43.574 -16.768   6.059  1.00  0.00     0.120 A 
BRANCH  10  15
HETATM   15  C   UNL     1      44.390 -20.120   4.804  1.00  0.00    -0.003 A 
HETATM   16  C   UNL     1      44.324 -20.362   3.429  1.00  0.00     0.037 A 
HETATM   17  C   UNL     1      44.440 -21.663   2.936  1.00  0.00     0.035 A 
HETATM   18 CL   UNL     1      44.319 -21.928   1.239  1.00  0.00    -0.084 Cl
HETATM   19  C   UNL     1      44.646 -22.737   3.798  1.00  0.00     0.024 A 
HETATM   20  C   UNL     1      44.740 -22.505   5.168  1.00  0.00     0.003 A 
HETATM   21  C   UNL     1      44.611 -21.206   5.666  1.00  0.00     0.014 A 
ENDBRANCH  10  15
ENDBRANCH   8   9
ENDBRANCH   3   8
BRANCH   1  22
HETATM   22  C   UNL     1      39.944 -14.893   1.105  1.00  0.00     0.128 C 
BRANCH  22  23
HETATM   23  N   UNL     1      39.429 -14.833  -0.247  1.00  0.00    -0.360 N 
HETATM   24  C   UNL     1      39.883 -13.895  -1.153  1.00  0.00     0.221 C 
HETATM   25  O   UNL     1      40.542 -12.924  -0.790  1.00  0.00    -0.273 OA
HETATM   26  H   UNL     1      38.950 -15.652  -0.611  1.00  0.00     0.162 HD
BRANCH  24  27
HETATM   27  C   UNL     1      39.447 -14.140  -2.596  1.00  0.00     0.070 C 
HETATM   28  C   UNL     1      37.946 -14.417  -2.672  1.00  0.00     0.019 C 
HETATM   29  C   UNL     1      40.226 -15.303  -3.207  1.00  0.00     0.019 C 
ENDBRANCH  24  27
ENDBRANCH  22  23
ENDBRANCH   1  22
TORSDOF 6
ENDMDL
MODEL 5
REMARK VINA RESULT:      -8.4      3.849      7.662
REMARK  6 active torsions:
REMARK  status: ('A' for Active; 'I' for Inactive)
REMARK    1  A    between atoms: C_2  and  C_3 
REMARK       I    between atoms: C_3  and  N_4 
REMARK    2  A    between atoms: N_4  and  C_5 
REMARK    3  A    between atoms: C_5  and  C_6 
REMARK    4  A    between atoms: N_8  and  C_10 
REMARK    5  A    between atoms: C_10  and  C_11 
REMARK    6  A    between atoms: C_12  and  C_13 
ROOT
HETATM    1  C   UNL     1      41.882 -15.399   0.391  1.00  0.00     0.029 C 
HETATM    2  C   UNL     1      41.405 -16.141   1.645  1.00  0.00     0.241 C 
HETATM    3  N   UNL     1      41.972 -15.494   2.895  1.00  0.00    -0.067 N 
HETATM    4  H   UNL     1      42.995 -15.528   2.829  1.00  0.00     0.280 HD
HETATM    5  C   UNL     1      41.587 -14.043   3.007  1.00  0.00     0.235 C 
HETATM    6  C   UNL     1      42.104 -13.296   1.788  1.00  0.00     0.028 C 
HETATM    7  C   UNL     1      41.570 -13.898   0.495  1.00  0.00     0.009 C 
ENDROOT
BRANCH   3   8
HETATM    8  C   UNL     1      41.602 -16.309   4.126  1.00  0.00     0.277 C 
BRANCH   8   9
HETATM    9  C   UNL     1      42.680 -16.361   5.149  1.00  0.00     0.016 A 
HETATM   10  C   UNL     1      43.719 -17.338   5.317  1.00  0.00     0.096 A 
HETATM   11  N   UNL     1      44.475 -17.038   6.382  1.00  0.00    -0.174 NA
HETATM   12  N   UNL     1      43.925 -15.948   6.917  1.00  0.00    -0.288 N 
HETATM   13  H   UNL     1      44.335 -15.570   7.769  1.00  0.00     0.188 HD
HETATM   14  C   UNL     1      42.848 -15.496   6.216  1.00  0.00     0.120 A 
BRANCH  10  15
HETATM   15  C   UNL     1      44.012 -18.547   4.541  1.00  0.00    -0.003 A 
HETATM   16  C   UNL     1      44.398 -19.743   5.154  1.00  0.00     0.037 A 
HETATM   17  C   UNL     1      44.683 -20.871   4.380  1.00  0.00     0.035 A 
HETATM   18 CL   UNL     1      45.189 -22.317   5.166  1.00  0.00    -0.084 Cl
HETATM   19  C   UNL     1      44.565 -20.834   2.994  1.00  0.00     0.024 A 
HETATM   20  C   UNL     1      44.156 -19.655   2.374  1.00  0.00     0.003 A 
HETATM   21  C   UNL     1      43.883 -18.521   3.143  1.00  0.00     0.014 A 
ENDBRANCH  10  15
ENDBRANCH   8   9
ENDBRANCH   3   8
BRANCH   1  22
HETATM   22  C   UNL     1      41.233 -15.955  -0.890  1.00  0.00     0.128 C 
BRANCH  22  23
HETATM   23  N   UNL     1      40.202 -15.104  -1.448  1.00  0.00    -0.360 N 
HETATM   24  C   UNL     1      40.107 -14.880  -2.808  1.00  0.00     0.221 C 
HETATM   25  O   UNL     1      41.025 -15.175  -3.569  1.00  0.00    -0.273 OA
HETATM   26  H   UNL     1      39.387 -14.906  -0.876  1.00  0.00     0.162 HD
BRANCH  24  27
HETATM   27  C   UNL     1      38.818 -14.193  -3.251  1.00  0.00     0.070 C 
HETATM   28  C   UNL     1      38.284 -13.275  -2.153  1.00  0.00     0.019 C 
HETATM   29  C   UNL     1      37.758 -15.225  -3.633  1.00  0.00     0.019 C 
ENDBRANCH  24  27
ENDBRANCH  22  23
ENDBRANCH   1  22
TORSDOF 6
ENDMDL
MODEL 6
REMARK VINA RESULT:      -8.3      4.090      7.698
REMARK  6 active torsions:
REMARK  status: ('A' for Active; 'I' for Inactive)
REMARK    1  A    between atoms: C_2  and  C_3 
REMARK       I    between atoms: C_3  and  N_4 
REMARK    2  A    between atoms: N_4  and  C_5 
REMARK    3  A    between atoms: C_5  and  C_6 
REMARK    4  A    between atoms: N_8  and  C_10 
REMARK    5  A    between atoms: C_10  and  C_11 
REMARK    6  A    between atoms: C_12  and  C_13 
ROOT
HETATM    1  C   UNL     1      41.930 -14.585   0.475  1.00  0.00     0.029 C 
HETATM    2  C   UNL     1      42.206 -15.083   1.898  1.00  0.00     0.241 C 
HETATM    3  N   UNL     1      42.776 -13.966   2.753  1.00  0.00    -0.067 N 
HETATM    4  H   UNL     1      43.646 -13.646   2.313  1.00  0.00     0.280 HD
HETATM    5  C   UNL     1      41.855 -12.777   2.820  1.00  0.00     0.235 C 
HETATM    6  C   UNL     1      41.621 -12.251   1.412  1.00  0.00     0.028 C 
HETATM    7  C   UNL     1      41.047 -13.327   0.500  1.00  0.00     0.009 C 
ENDROOT
BRANCH   3   8
HETATM    8  C   UNL     1      43.168 -14.497   4.124  1.00  0.00     0.277 C 
BRANCH   8   9
HETATM    9  C   UNL     1      42.077 -15.244   4.806  1.00  0.00     0.016 A 
HETATM   10  C   UNL     1      41.973 -16.652   5.066  1.00  0.00     0.096 A 
HETATM   11  N   UNL     1      40.814 -16.929   5.680  1.00  0.00    -0.174 NA
HETATM   12  N   UNL     1      40.168 -15.767   5.769  1.00  0.00    -0.288 N 
HETATM   13  H   UNL     1      39.237 -15.763   6.181  1.00  0.00     0.188 HD
HETATM   14  C   UNL     1      40.880 -14.721   5.265  1.00  0.00     0.120 A 
BRANCH  10  15
HETATM   15  C   UNL     1      42.896 -17.744   4.739  1.00  0.00    -0.003 A 
HETATM   16  C   UNL     1      42.787 -18.475   3.552  1.00  0.00     0.037 A 
HETATM   17  C   UNL     1      43.676 -19.517   3.283  1.00  0.00     0.035 A 
HETATM   18 CL   UNL     1      43.490 -20.418   1.827  1.00  0.00    -0.084 Cl
HETATM   19  C   UNL     1      44.698 -19.832   4.174  1.00  0.00     0.024 A 
HETATM   20  C   UNL     1      44.833 -19.094   5.348  1.00  0.00     0.003 A 
HETATM   21  C   UNL     1      43.937 -18.058   5.627  1.00  0.00     0.014 A 
ENDBRANCH  10  15
ENDBRANCH   8   9
ENDBRANCH   3   8
BRANCH   1  22
HETATM   22  C   UNL     1      41.243 -15.659  -0.388  1.00  0.00     0.128 C 
BRANCH  22  23
HETATM   23  N   UNL     1      40.290 -15.129  -1.343  1.00  0.00    -0.360 N 
HETATM   24  C   UNL     1      40.455 -15.306  -2.703  1.00  0.00     0.221 C 
HETATM   25  O   UNL     1      41.524 -15.687  -3.172  1.00  0.00    -0.273 OA
HETATM   26  H   UNL     1      39.365 -14.881  -1.004  1.00  0.00     0.162 HD
BRANCH  24  27
HETATM   27  C   UNL     1      39.237 -14.932  -3.545  1.00  0.00     0.070 C 
HETATM   28  C   UNL     1      38.089 -14.450  -2.660  1.00  0.00     0.019 C 
HETATM   29  C   UNL     1      38.782 -16.118  -4.394  1.00  0.00     0.019 C 
ENDBRANCH  24  27
ENDBRANCH  22  23
ENDBRANCH   1  22
TORSDOF 6
ENDMDL
MODEL 7
REMARK VINA RESULT:      -8.3      2.765      4.577
REMARK  6 active torsions:
REMARK  status: ('A' for Active; 'I' for Inactive)
REMARK    1  A    between atoms: C_2  and  C_3 
REMARK       I    between atoms: C_3  and  N_4 
REMARK    2  A    between atoms: N_4  and  C_5 
REMARK    3  A    between atoms: C_5  and  C_6 
REMARK    4  A    between atoms: N_8  and  C_10 
REMARK    5  A    between atoms: C_10  and  C_11 
REMARK    6  A    between atoms: C_12  and  C_13 
ROOT
HETATM    1  C   UNL     1      42.420 -15.461   3.329  1.00  0.00     0.029 C 
HETATM    2  C   UNL     1      43.435 -16.350   2.601  1.00  0.00     0.241 C 
HETATM    3  N   UNL     1      42.828 -17.704   2.283  1.00  0.00    -0.067 N 
HETATM    4  H   UNL     1      42.547 -18.138   3.170  1.00  0.00     0.280 HD
HETATM    5  C   UNL     1      41.585 -17.585   1.441  1.00  0.00     0.235 C 
HETATM    6  C   UNL     1      40.559 -16.746   2.185  1.00  0.00     0.028 C 
HETATM    7  C   UNL     1      41.108 -15.369   2.534  1.00  0.00     0.009 C 
ENDROOT
BRANCH   3   8
HETATM    8  C   UNL     1      43.876 -18.625   1.677  1.00  0.00     0.277 C 
BRANCH   8   9
HETATM    9  C   UNL     1      44.065 -19.890   2.437  1.00  0.00     0.016 A 
HETATM   10  C   UNL     1      44.133 -20.087   3.858  1.00  0.00     0.096 A 
HETATM   11  N   UNL     1      44.343 -21.380   4.140  1.00  0.00    -0.174 NA
HETATM   12  N   UNL     1      44.461 -21.991   2.961  1.00  0.00    -0.288 N 
HETATM   13  H   UNL     1      44.661 -22.989   2.953  1.00  0.00     0.188 HD
HETATM   14  C   UNL     1      44.299 -21.146   1.905  1.00  0.00     0.120 A 
BRANCH  10  15
HETATM   15  C   UNL     1      44.037 -19.116   4.952  1.00  0.00    -0.003 A 
HETATM   16  C   UNL     1      42.816 -18.560   5.343  1.00  0.00     0.037 A 
HETATM   17  C   UNL     1      42.767 -17.626   6.381  1.00  0.00     0.035 A 
HETATM   18 CL   UNL     1      41.249 -16.936   6.812  1.00  0.00    -0.084 Cl
HETATM   19  C   UNL     1      43.923 -17.251   7.059  1.00  0.00     0.024 A 
HETATM   20  C   UNL     1      45.143 -17.818   6.696  1.00  0.00     0.003 A 
HETATM   21  C   UNL     1      45.198 -18.743   5.649  1.00  0.00     0.014 A 
ENDBRANCH  10  15
ENDBRANCH   8   9
ENDBRANCH   3   8
BRANCH   1  22
HETATM   22  C   UNL     1      42.963 -14.040   3.564  1.00  0.00     0.128 C 
BRANCH  22  23
HETATM   23  N   UNL     1      43.847 -13.925   4.706  1.00  0.00    -0.360 N 
HETATM   24  C   UNL     1      43.372 -13.585   5.957  1.00  0.00     0.221 C 
HETATM   25  O   UNL     1      42.244 -13.121   6.107  1.00  0.00    -0.273 OA
HETATM   26  H   UNL     1      44.758 -14.370   4.648  1.00  0.00     0.162 HD
BRANCH  24  27
HETATM   27  C   UNL     1      44.375 -13.775   7.092  1.00  0.00     0.070 C 
HETATM   28  C   UNL     1      44.188 -12.707   8.169  1.00  0.00     0.019 C 
HETATM   29  C   UNL     1      45.807 -13.737   6.561  1.00  0.00     0.019 C 
ENDBRANCH  24  27
ENDBRANCH  22  23
ENDBRANCH   1  22
TORSDOF 6
ENDMDL
MODEL 8
REMARK VINA RESULT:      -8.2      4.109      7.907
REMARK  6 active torsions:
REMARK  status: ('A' for Active; 'I' for Inactive)
REMARK    1  A    between atoms: C_2  and  C_3 
REMARK       I    between atoms: C_3  and  N_4 
REMARK    2  A    between atoms: N_4  and  C_5 
REMARK    3  A    between atoms: C_5  and  C_6 
REMARK    4  A    between atoms: N_8  and  C_10 
REMARK    5  A    between atoms: C_10  and  C_11 
REMARK    6  A    between atoms: C_12  and  C_13 
ROOT
HETATM    1  C   UNL     1      40.960 -14.549   0.303  1.00  0.00     0.029 C 
HETATM    2  C   UNL     1      41.775 -15.798   0.658  1.00  0.00     0.241 C 
HETATM    3  N   UNL     1      41.713 -16.070   2.150  1.00  0.00    -0.067 N 
HETATM    4  H   UNL     1      42.091 -15.249   2.635  1.00  0.00     0.280 HD
HETATM    5  C   UNL     1      40.299 -16.252   2.634  1.00  0.00     0.235 C 
HETATM    6  C   UNL     1      39.503 -14.993   2.328  1.00  0.00     0.028 C 
HETATM    7  C   UNL     1      39.525 -14.664   0.842  1.00  0.00     0.009 C 
ENDROOT
BRANCH   3   8
HETATM    8  C   UNL     1      42.625 -17.232   2.514  1.00  0.00     0.277 C 
BRANCH   8   9
HETATM    9  C   UNL     1      43.245 -17.100   3.860  1.00  0.00     0.016 A 
HETATM   10  C   UNL     1      43.917 -18.096   4.646  1.00  0.00     0.096 A 
HETATM   11  N   UNL     1      44.307 -17.581   5.820  1.00  0.00    -0.174 NA
HETATM   12  N   UNL     1      43.864 -16.323   5.825  1.00  0.00    -0.288 N 
HETATM   13  H   UNL     1      44.029 -15.758   6.654  1.00  0.00     0.188 HD
HETATM   14  C   UNL     1      43.224 -15.980   4.673  1.00  0.00     0.120 A 
BRANCH  10  15
HETATM   15  C   UNL     1      44.181 -19.509   4.355  1.00  0.00    -0.003 A 
HETATM   16  C   UNL     1      44.107 -20.023   3.057  1.00  0.00     0.037 A 
HETATM   17  C   UNL     1      44.352 -21.377   2.821  1.00  0.00     0.035 A 
HETATM   18 CL   UNL     1      44.218 -21.983   1.214  1.00  0.00    -0.084 Cl
HETATM   19  C   UNL     1      44.696 -22.233   3.863  1.00  0.00     0.024 A 
HETATM   20  C   UNL     1      44.799 -21.727   5.157  1.00  0.00     0.003 A 
HETATM   21  C   UNL     1      44.542 -20.375   5.400  1.00  0.00     0.014 A 
ENDBRANCH  10  15
ENDBRANCH   8   9
ENDBRANCH   3   8
BRANCH   1  22
HETATM   22  C   UNL     1      40.905 -14.309  -1.216  1.00  0.00     0.128 C 
BRANCH  22  23
HETATM   23  N   UNL     1      39.865 -15.055  -1.895  1.00  0.00    -0.360 N 
HETATM   24  C   UNL     1      38.813 -14.420  -2.525  1.00  0.00     0.221 C 
HETATM   25  O   UNL     1      38.573 -13.232  -2.326  1.00  0.00    -0.273 OA
HETATM   26  H   UNL     1      40.060 -16.018  -2.150  1.00  0.00     0.162 HD
BRANCH  24  27
HETATM   27  C   UNL     1      37.965 -15.325  -3.416  1.00  0.00     0.070 C 
HETATM   28  C   UNL     1      38.847 -16.155  -4.348  1.00  0.00     0.019 C 
HETATM   29  C   UNL     1      36.970 -14.501  -4.233  1.00  0.00     0.019 C 
ENDBRANCH  24  27
ENDBRANCH  22  23
ENDBRANCH   1  22
TORSDOF 6
ENDMDL
MODEL 9
REMARK VINA RESULT:      -8.1      3.065      3.797
REMARK  6 active torsions:
REMARK  status: ('A' for Active; 'I' for Inactive)
REMARK    1  A    between atoms: C_2  and  C_3 
REMARK       I    between atoms: C_3  and  N_4 
REMARK    2  A    between atoms: N_4  and  C_5 
REMARK    3  A    between atoms: C_5  and  C_6 
REMARK    4  A    between atoms: N_8  and  C_10 
REMARK    5  A    between atoms: C_10  and  C_11 
REMARK    6  A    between atoms: C_12  and  C_13 
ROOT
HETATM    1  C   UNL     1      40.242 -13.065   5.395  1.00  0.00     0.029 C 
HETATM    2  C   UNL     1      40.170 -14.550   5.019  1.00  0.00     0.241 C 
HETATM    3  N   UNL     1      41.220 -14.887   3.976  1.00  0.00    -0.067 N 
HETATM    4  H   UNL     1      41.043 -14.302   3.152  1.00  0.00     0.280 HD
HETATM    5  C   UNL     1      42.613 -14.567   4.449  1.00  0.00     0.235 C 
HETATM    6  C   UNL     1      42.699 -13.084   4.774  1.00  0.00     0.028 C 
HETATM    7  C   UNL     1      41.668 -12.679   5.819  1.00  0.00     0.009 C 
ENDROOT
BRANCH   3   8
HETATM    8  C   UNL     1      41.061 -16.328   3.512  1.00  0.00     0.277 C 
BRANCH   8   9
HETATM    9  C   UNL     1      41.794 -16.630   2.253  1.00  0.00     0.016 A 
HETATM   10  C   UNL     1      42.887 -17.536   2.041  1.00  0.00     0.096 A 
HETATM   11  N   UNL     1      43.286 -17.496   0.762  1.00  0.00    -0.174 NA
HETATM   12  N   UNL     1      42.526 -16.570   0.178  1.00  0.00    -0.288 N 
HETATM   13  H   UNL     1      42.694 -16.358  -0.803  1.00  0.00     0.188 HD
HETATM   14  C   UNL     1      41.611 -16.020   1.024  1.00  0.00     0.120 A 
BRANCH  10  15
HETATM   15  C   UNL     1      43.587 -18.411   2.988  1.00  0.00    -0.003 A 
HETATM   16  C   UNL     1      44.012 -17.957   4.239  1.00  0.00     0.037 A 
HETATM   17  C   UNL     1      44.688 -18.816   5.108  1.00  0.00     0.035 A 
HETATM   18 CL   UNL     1      45.228 -18.212   6.628  1.00  0.00    -0.084 Cl
HETATM   19  C   UNL     1      44.929 -20.141   4.758  1.00  0.00     0.024 A 
HETATM   20  C   UNL     1      44.487 -20.613   3.524  1.00  0.00     0.003 A 
HETATM   21  C   UNL     1      43.822 -19.753   2.646  1.00  0.00     0.014 A 
ENDBRANCH  10  15
ENDBRANCH   8   9
ENDBRANCH   3   8
BRANCH   1  22
HETATM   22  C   UNL     1      39.270 -12.712   6.535  1.00  0.00     0.128 C 
BRANCH  22  23
HETATM   23  N   UNL     1      39.911 -12.145   7.704  1.00  0.00    -0.360 N 
HETATM   24  C   UNL     1      39.480 -10.957   8.261  1.00  0.00     0.221 C 
HETATM   25  O   UNL     1      38.716 -10.209   7.656  1.00  0.00    -0.273 OA
HETATM   26  H   UNL     1      40.484 -12.758   8.276  1.00  0.00     0.162 HD
BRANCH  24  27
HETATM   27  C   UNL     1      40.075 -10.644   9.632  1.00  0.00     0.070 C 
HETATM   28  C   UNL     1      39.508  -9.338  10.187  1.00  0.00     0.019 C 
HETATM   29  C   UNL     1      41.599 -10.562   9.554  1.00  0.00     0.019 C 
ENDBRANCH  24  27
ENDBRANCH  22  23
ENDBRANCH   1  22
TORSDOF 6
ENDMDL
MODEL 10
REMARK VINA RESULT:      -8.1      3.022      4.319
REMARK  6 active torsions:
REMARK  status: ('A' for Active; 'I' for Inactive)
REMARK    1  A    between atoms: C_2  and  C_3 
REMARK       I    between atoms: C_3  and  N_4 
REMARK    2  A    between atoms: N_4  and  C_5 
REMARK    3  A    between atoms: C_5  and  C_6 
REMARK    4  A    between atoms: N_8  and  C_10 
REMARK    5  A    between atoms: C_10  and  C_11 
REMARK    6  A    between atoms: C_12  and  C_13 
ROOT
HETATM    1  C   UNL     1      42.543 -14.040   5.580  1.00  0.00     0.029 C 
HETATM    2  C   UNL     1      42.011 -15.431   5.943  1.00  0.00     0.241 C 
HETATM    3  N   UNL     1      43.157 -16.414   6.107  1.00  0.00    -0.067 N 
HETATM    4  H   UNL     1      43.670 -16.448   5.219  1.00  0.00     0.280 HD
HETATM    5  C   UNL     1      44.136 -15.972   7.161  1.00  0.00     0.235 C 
HETATM    6  C   UNL     1      44.702 -14.614   6.776  1.00  0.00     0.028 C 
HETATM    7  C   UNL     1      43.599 -13.579   6.597  1.00  0.00     0.009 C 
ENDROOT
BRANCH   3   8
HETATM    8  C   UNL     1      42.620 -17.818   6.339  1.00  0.00     0.277 C 
BRANCH   8   9
HETATM    9  C   UNL     1      43.445 -18.881   5.704  1.00  0.00     0.016 A 
HETATM   10  C   UNL     1      43.700 -19.114   4.310  1.00  0.00     0.096 A 
HETATM   11  N   UNL     1      44.473 -20.196   4.151  1.00  0.00    -0.174 NA
HETATM   12  N   UNL     1      44.670 -20.681   5.378  1.00  0.00    -0.288 N 
HETATM   13  H   UNL     1      45.213 -21.536   5.477  1.00  0.00     0.188 HD
HETATM   14  C   UNL     1      44.079 -19.929   6.348  1.00  0.00     0.120 A 
BRANCH  10  15
HETATM   15  C   UNL     1      43.230 -18.383   3.129  1.00  0.00    -0.003 A 
HETATM   16  C   UNL     1      41.970 -17.779   3.086  1.00  0.00     0.037 A 
HETATM   17  C   UNL     1      41.551 -17.104   1.938  1.00  0.00     0.035 A 
HETATM   18 CL   UNL     1      39.979 -16.401   1.909  1.00  0.00    -0.084 Cl
HETATM   19  C   UNL     1      42.383 -16.999   0.827  1.00  0.00     0.024 A 
HETATM   20  C   UNL     1      43.651 -17.575   0.867  1.00  0.00     0.003 A 
HETATM   21  C   UNL     1      44.070 -18.263   2.010  1.00  0.00     0.014 A 
ENDBRANCH  10  15
ENDBRANCH   8   9
ENDBRANCH   3   8
BRANCH   1  22
HETATM   22  C   UNL     1      41.417 -12.991   5.521  1.00  0.00     0.128 C 
BRANCH  22  23
HETATM   23  N   UNL     1      41.495 -11.981   6.557  1.00  0.00    -0.360 N 
HETATM   24  C   UNL     1      40.360 -11.395   7.082  1.00  0.00     0.221 C 
HETATM   25  O   UNL     1      39.268 -11.511   6.530  1.00  0.00    -0.273 OA
HETATM   26  H   UNL     1      42.356 -11.913   7.091  1.00  0.00     0.162 HD
BRANCH  24  27
HETATM   27  C   UNL     1      40.597 -10.564   8.341  1.00  0.00     0.070 C 
HETATM   28  C   UNL     1      42.064 -10.622   8.764  1.00  0.00     0.019 C 
HETATM   29  C   UNL     1      39.703 -11.045   9.483  1.00  0.00     0.019 C 
ENDBRANCH  24  27
ENDBRANCH  22  23
ENDBRANCH   1  22
TORSDOF 6
ENDMDL
