MODEL 1
REMARK VINA RESULT:      -6.7      0.000      0.000
REMARK  4 active torsions:
REMARK  status: ('A' for Active; 'I' for Inactive)
REMARK    1  A    between atoms: C_11  and  N_12 
REMARK    2  A    between atoms: N_12  and  C_13 
REMARK    3  A    between atoms: C_13  and  C_14 
REMARK    4  A    between atoms: C_15  and  C_16 
ROOT
HETATM    1  N   UNL     1      40.780 -15.863   3.891  1.00  0.00     0.092 N 
HETATM    2  H   UNL     1      40.010 -15.264   4.179  1.00  0.00     0.316 HD
ENDROOT
BRANCH   1   3
HETATM    3  C   UNL     1      40.487 -16.648   2.697  1.00  0.00     0.225 C 
HETATM    4  C   UNL     1      41.688 -17.514   2.288  1.00  0.00     0.073 C 
HETATM    5  C   UNL     1      42.855 -16.781   1.614  1.00  0.00     0.121 C 
HETATM    6  N   UNL     1      42.325 -15.874   0.519  1.00  0.00    -0.059 N 
HETATM    7  C   UNL     1      43.748 -15.994   2.579  1.00  0.00     0.046 C 
HETATM    8  C   UNL     1      43.757 -17.811   0.898  1.00  0.00     0.046 C 
HETATM    9  C   UNL     1      41.115 -15.003   0.765  1.00  0.00     0.121 C 
HETATM   10  H   UNL     1      42.104 -16.479  -0.286  1.00  0.00     0.279 HD
HETATM   11  H   UNL     1      43.098 -15.282   0.183  1.00  0.00     0.279 HD
HETATM   12  C   UNL     1      41.539 -13.700   1.452  1.00  0.00     0.046 C 
HETATM   13  C   UNL     1      40.571 -14.622  -0.629  1.00  0.00     0.046 C 
HETATM   14  C   UNL     1      40.027 -15.794   1.511  1.00  0.00     0.073 C 
ENDBRANCH   1   3
BRANCH   1  15
HETATM   15  C   UNL     1      41.083 -16.704   5.062  1.00  0.00     0.312 C 
BRANCH  15  16
HETATM   16  C   UNL     1      42.236 -16.072   5.766  1.00  0.00     0.014 A 
HETATM   17  C   UNL     1      43.456 -16.627   6.288  1.00  0.00     0.071 A 
HETATM   18  N   UNL     1      44.205 -15.662   6.844  1.00  0.00    -0.178 NA
HETATM   19  N   UNL     1      43.513 -14.534   6.679  1.00  0.00    -0.288 N 
HETATM   20  H   UNL     1      43.919 -13.667   7.021  1.00  0.00     0.188 HD
HETATM   21  C   UNL     1      42.326 -14.722   6.055  1.00  0.00     0.120 A 
BRANCH  17  22
HETATM   22  C   UNL     1      44.031 -18.048   6.271  1.00  0.00    -0.004 C 
HETATM   23  C   UNL     1      45.561 -17.976   6.442  1.00  0.00     0.021 C 
HETATM   24  C   UNL     1      43.458 -18.893   7.439  1.00  0.00     0.021 C 
HETATM   25  C   UNL     1      43.706 -18.821   4.979  1.00  0.00     0.021 C 
ENDBRANCH  17  22
ENDBRANCH  15  16
ENDBRANCH   1  15
TORSDOF 4
ENDMDL
MODEL 2
REMARK VINA RESULT:      -6.7      1.531      3.226
REMARK  4 active torsions:
REMARK  status: ('A' for Active; 'I' for Inactive)
REMARK    1  A    between atoms: C_11  and  N_12 
REMARK    2  A    between atoms: N_12  and  C_13 
REMARK    3  A    between atoms: C_13  and  C_14 
REMARK    4  A    between atoms: C_15  and  C_16 
ROOT
HETATM    1  N   UNL     1      41.666 -13.957   3.660  1.00  0.00     0.092 N 
HETATM    2  H   UNL     1      41.080 -14.783   3.565  1.00  0.00     0.316 HD
ENDROOT
BRANCH   1   3
HETATM    3  C   UNL     1      42.741 -13.893   2.677  1.00  0.00     0.225 C 
HETATM    4  C   UNL     1      42.206 -13.533   1.283  1.00  0.00     0.073 C 
HETATM    5  C   UNL     1      41.478 -14.652   0.527  1.00  0.00     0.121 C 
HETATM    6  N   UNL     1      42.301 -15.926   0.581  1.00  0.00    -0.059 N 
HETATM    7  C   UNL     1      40.048 -14.915   1.012  1.00  0.00     0.046 C 
HETATM    8  C   UNL     1      41.388 -14.281  -0.970  1.00  0.00     0.046 C 
HETATM    9  C   UNL     1      42.933 -16.375   1.879  1.00  0.00     0.121 C 
HETATM   10  H   UNL     1      43.063 -15.816  -0.104  1.00  0.00     0.279 HD
HETATM   11  H   UNL     1      41.733 -16.698   0.204  1.00  0.00     0.279 HD
HETATM   12  C   UNL     1      41.914 -17.158   2.714  1.00  0.00     0.046 C 
HETATM   13  C   UNL     1      44.054 -17.363   1.490  1.00  0.00     0.046 C 
HETATM   14  C   UNL     1      43.572 -15.179   2.606  1.00  0.00     0.073 C 
ENDBRANCH   1   3
BRANCH   1  15
HETATM   15  C   UNL     1      42.164 -13.984   5.045  1.00  0.00     0.312 C 
BRANCH  15  16
HETATM   16  C   UNL     1      41.530 -15.156   5.715  1.00  0.00     0.014 A 
HETATM   17  C   UNL     1      42.089 -16.230   6.492  1.00  0.00     0.071 A 
HETATM   18  N   UNL     1      41.119 -17.063   6.898  1.00  0.00    -0.178 NA
HETATM   19  N   UNL     1      39.984 -16.549   6.423  1.00  0.00    -0.288 N 
HETATM   20  H   UNL     1      39.113 -17.028   6.636  1.00  0.00     0.188 HD
HETATM   21  C   UNL     1      40.172 -15.420   5.699  1.00  0.00     0.120 A 
BRANCH  17  22
HETATM   22  C   UNL     1      43.521 -16.534   6.947  1.00  0.00    -0.004 C 
HETATM   23  C   UNL     1      43.474 -17.320   8.271  1.00  0.00     0.021 C 
HETATM   24  C   UNL     1      44.263 -17.405   5.898  1.00  0.00     0.021 C 
HETATM   25  C   UNL     1      44.380 -15.270   7.142  1.00  0.00     0.021 C 
ENDBRANCH  17  22
ENDBRANCH  15  16
ENDBRANCH   1  15
TORSDOF 4
ENDMDL
MODEL 3
REMARK VINA RESULT:      -6.5      2.245      3.975
REMARK  4 active torsions:
REMARK  status: ('A' for Active; 'I' for Inactive)
REMARK    1  A    between atoms: C_11  and  N_12 
REMARK    2  A    between atoms: N_12  and  C_13 
REMARK    3  A    between atoms: C_13  and  C_14 
REMARK    4  A    between atoms: C_15  and  C_16 
ROOT
HETATM    1  N   UNL     1      42.373 -16.278   2.339  1.00  0.00     0.092 N 
HETATM    2  H   UNL     1      42.505 -15.326   2.007  1.00  0.00     0.316 HD
ENDROOT
BRANCH   1   3
HETATM    3  C   UNL     1      41.074 -16.498   2.966  1.00  0.00     0.225 C 
HETATM    4  C   UNL     1      39.924 -16.142   2.012  1.00  0.00     0.073 C 
HETATM    5  C   UNL     1      39.656 -14.645   1.804  1.00  0.00     0.121 C 
HETATM    6  N   UNL     1      39.607 -13.943   3.149  1.00  0.00    -0.059 N 
HETATM    7  C   UNL     1      40.651 -13.949   0.870  1.00  0.00     0.046 C 
HETATM    8  C   UNL     1      38.251 -14.460   1.189  1.00  0.00     0.046 C 
HETATM    9  C   UNL     1      40.647 -14.238   4.205  1.00  0.00     0.121 C 
HETATM   10  H   UNL     1      38.687 -14.157   3.562  1.00  0.00     0.279 HD
HETATM   11  H   UNL     1      39.578 -12.926   2.985  1.00  0.00     0.279 HD
HETATM   12  C   UNL     1      41.899 -13.387   3.959  1.00  0.00     0.046 C 
HETATM   13  C   UNL     1      40.040 -13.770   5.546  1.00  0.00     0.046 C 
HETATM   14  C   UNL     1      40.909 -15.751   4.293  1.00  0.00     0.073 C 
ENDBRANCH   1   3
BRANCH   1  15
HETATM   15  C   UNL     1      43.496 -16.535   3.256  1.00  0.00     0.312 C 
BRANCH  15  16
HETATM   16  C   UNL     1      43.792 -17.995   3.188  1.00  0.00     0.014 A 
HETATM   17  C   UNL     1      44.032 -18.970   4.217  1.00  0.00     0.071 A 
HETATM   18  N   UNL     1      44.254 -20.177   3.673  1.00  0.00    -0.178 NA
HETATM   19  N   UNL     1      44.148 -19.998   2.355  1.00  0.00    -0.288 N 
HETATM   20  H   UNL     1      44.267 -20.806   1.750  1.00  0.00     0.188 HD
HETATM   21  C   UNL     1      43.887 -18.715   2.009  1.00  0.00     0.120 A 
BRANCH  17  22
HETATM   22  C   UNL     1      44.027 -18.874   5.747  1.00  0.00    -0.004 C 
HETATM   23  C   UNL     1      44.023 -20.295   6.342  1.00  0.00     0.021 C 
HETATM   24  C   UNL     1      45.296 -18.144   6.261  1.00  0.00     0.021 C 
HETATM   25  C   UNL     1      42.824 -18.091   6.305  1.00  0.00     0.021 C 
ENDBRANCH  17  22
ENDBRANCH  15  16
ENDBRANCH   1  15
TORSDOF 4
ENDMDL
MODEL 4
REMARK VINA RESULT:      -6.5      2.045      3.266
REMARK  4 active torsions:
REMARK  status: ('A' for Active; 'I' for Inactive)
REMARK    1  A    between atoms: C_11  and  N_12 
REMARK    2  A    between atoms: N_12  and  C_13 
REMARK    3  A    between atoms: C_13  and  C_14 
REMARK    4  A    between atoms: C_15  and  C_16 
ROOT
HETATM    1  N   UNL     1      41.479 -14.550   2.533  1.00  0.00     0.092 N 
HETATM    2  H   UNL     1      41.245 -14.378   3.508  1.00  0.00     0.316 HD
ENDROOT
BRANCH   1   3
HETATM    3  C   UNL     1      40.606 -15.525   1.890  1.00  0.00     0.225 C 
HETATM    4  C   UNL     1      41.087 -15.857   0.470  1.00  0.00     0.073 C 
HETATM    5  C   UNL     1      40.817 -14.794  -0.603  1.00  0.00     0.121 C 
HETATM    6  N   UNL     1      39.374 -14.332  -0.513  1.00  0.00    -0.059 N 
HETATM    7  C   UNL     1      41.769 -13.595  -0.558  1.00  0.00     0.046 C 
HETATM    8  C   UNL     1      40.960 -15.434  -2.001  1.00  0.00     0.046 C 
HETATM    9  C   UNL     1      38.752 -14.020   0.829  1.00  0.00     0.121 C 
HETATM   10  H   UNL     1      38.799 -15.068  -0.949  1.00  0.00     0.279 HD
HETATM   11  H   UNL     1      39.253 -13.518  -1.133  1.00  0.00     0.279 HD
HETATM   12  C   UNL     1      39.095 -12.585   1.244  1.00  0.00     0.046 C 
HETATM   13  C   UNL     1      37.224 -14.075   0.615  1.00  0.00     0.046 C 
HETATM   14  C   UNL     1      39.137 -15.094   1.861  1.00  0.00     0.073 C 
ENDBRANCH   1   3
BRANCH   1  15
HETATM   15  C   UNL     1      42.892 -14.967   2.535  1.00  0.00     0.312 C 
BRANCH  15  16
HETATM   16  C   UNL     1      43.062 -15.928   3.663  1.00  0.00     0.014 A 
HETATM   17  C   UNL     1      43.325 -17.342   3.681  1.00  0.00     0.071 A 
HETATM   18  N   UNL     1      43.402 -17.784   4.946  1.00  0.00    -0.178 NA
HETATM   19  N   UNL     1      43.213 -16.709   5.712  1.00  0.00    -0.288 N 
HETATM   20  H   UNL     1      43.250 -16.826   6.721  1.00  0.00     0.188 HD
HETATM   21  C   UNL     1      42.993 -15.578   5.000  1.00  0.00     0.120 A 
BRANCH  17  22
HETATM   22  C   UNL     1      43.568 -18.358   2.559  1.00  0.00    -0.004 C 
HETATM   23  C   UNL     1      44.347 -19.561   3.127  1.00  0.00     0.021 C 
HETATM   24  C   UNL     1      42.225 -18.884   1.987  1.00  0.00     0.021 C 
HETATM   25  C   UNL     1      44.346 -17.774   1.365  1.00  0.00     0.021 C 
ENDBRANCH  17  22
ENDBRANCH  15  16
ENDBRANCH   1  15
TORSDOF 4
ENDMDL
MODEL 5
REMARK VINA RESULT:      -6.5      1.877      5.376
REMARK  4 active torsions:
REMARK  status: ('A' for Active; 'I' for Inactive)
REMARK    1  A    between atoms: C_11  and  N_12 
REMARK    2  A    between atoms: N_12  and  C_13 
REMARK    3  A    between atoms: C_13  and  C_14 
REMARK    4  A    between atoms: C_15  and  C_16 
ROOT
HETATM    1  N   UNL     1      41.342 -15.357   5.734  1.00  0.00     0.092 N 
HETATM    2  H   UNL     1      42.235 -15.083   5.331  1.00  0.00     0.316 HD
ENDROOT
BRANCH   1   3
HETATM    3  C   UNL     1      41.214 -16.796   5.934  1.00  0.00     0.225 C 
HETATM    4  C   UNL     1      42.113 -17.285   7.079  1.00  0.00     0.073 C 
HETATM    5  C   UNL     1      43.612 -17.384   6.768  1.00  0.00     0.121 C 
HETATM    6  N   UNL     1      43.814 -18.108   5.449  1.00  0.00    -0.059 N 
HETATM    7  C   UNL     1      44.346 -16.040   6.762  1.00  0.00     0.046 C 
HETATM    8  C   UNL     1      44.295 -18.269   7.834  1.00  0.00     0.046 C 
HETATM    9  C   UNL     1      42.961 -17.765   4.249  1.00  0.00     0.121 C 
HETATM   10  H   UNL     1      43.681 -19.112   5.638  1.00  0.00     0.279 HD
HETATM   11  H   UNL     1      44.807 -18.032   5.184  1.00  0.00     0.279 HD
HETATM   12  C   UNL     1      43.549 -16.551   3.519  1.00  0.00     0.046 C 
HETATM   13  C   UNL     1      43.072 -18.968   3.287  1.00  0.00     0.046 C 
HETATM   14  C   UNL     1      41.488 -17.609   4.665  1.00  0.00     0.073 C 
ENDBRANCH   1   3
BRANCH   1  15
HETATM   15  C   UNL     1      40.317 -14.816   4.826  1.00  0.00     0.312 C 
BRANCH  15  16
HETATM   16  C   UNL     1      41.030 -14.023   3.784  1.00  0.00     0.014 A 
HETATM   17  C   UNL     1      40.997 -14.086   2.347  1.00  0.00     0.071 A 
HETATM   18  N   UNL     1      41.815 -13.160   1.823  1.00  0.00    -0.178 NA
HETATM   19  N   UNL     1      42.343 -12.517   2.866  1.00  0.00    -0.288 N 
HETATM   20  H   UNL     1      42.987 -11.753   2.684  1.00  0.00     0.188 HD
HETATM   21  C   UNL     1      41.920 -13.000   4.059  1.00  0.00     0.120 A 
BRANCH  17  22
HETATM   22  C   UNL     1      40.191 -14.951   1.372  1.00  0.00    -0.004 C 
HETATM   23  C   UNL     1      38.688 -14.753   1.646  1.00  0.00     0.021 C 
HETATM   24  C   UNL     1      40.469 -14.538  -0.097  1.00  0.00     0.021 C 
HETATM   25  C   UNL     1      40.527 -16.451   1.469  1.00  0.00     0.021 C 
ENDBRANCH  17  22
ENDBRANCH  15  16
ENDBRANCH   1  15
TORSDOF 4
ENDMDL
MODEL 6
REMARK VINA RESULT:      -6.4      1.650      2.902
REMARK  4 active torsions:
REMARK  status: ('A' for Active; 'I' for Inactive)
REMARK    1  A    between atoms: C_11  and  N_12 
REMARK    2  A    between atoms: N_12  and  C_13 
REMARK    3  A    between atoms: C_13  and  C_14 
REMARK    4  A    between atoms: C_15  and  C_16 
ROOT
HETATM    1  N   UNL     1      42.227 -15.006   1.831  1.00  0.00     0.092 N 
HETATM    2  H   UNL     1      41.868 -14.302   2.472  1.00  0.00     0.316 HD
ENDROOT
BRANCH   1   3
HETATM    3  C   UNL     1      41.196 -15.905   1.324  1.00  0.00     0.225 C 
HETATM    4  C   UNL     1      41.341 -16.125  -0.189  1.00  0.00     0.073 C 
HETATM    5  C   UNL     1      40.883 -14.969  -1.089  1.00  0.00     0.121 C 
HETATM    6  N   UNL     1      39.515 -14.487  -0.646  1.00  0.00    -0.059 N 
HETATM    7  C   UNL     1      41.868 -13.798  -1.162  1.00  0.00     0.046 C 
HETATM    8  C   UNL     1      40.691 -15.492  -2.530  1.00  0.00     0.046 C 
HETATM    9  C   UNL     1      39.214 -14.277   0.821  1.00  0.00     0.121 C 
HETATM   10  H   UNL     1      38.830 -15.171  -0.999  1.00  0.00     0.279 HD
HETATM   11  H   UNL     1      39.292 -13.621  -1.158  1.00  0.00     0.279 HD
HETATM   12  C   UNL     1      39.696 -12.890   1.260  1.00  0.00     0.046 C 
HETATM   13  C   UNL     1      37.675 -14.282   0.948  1.00  0.00     0.046 C 
HETATM   14  C   UNL     1      39.774 -15.443   1.655  1.00  0.00     0.073 C 
ENDBRANCH   1   3
BRANCH   1  15
HETATM   15  C   UNL     1      43.282 -15.715   2.574  1.00  0.00     0.312 C 
BRANCH  15  16
HETATM   16  C   UNL     1      43.282 -15.170   3.962  1.00  0.00     0.014 A 
HETATM   17  C   UNL     1      43.022 -15.792   5.233  1.00  0.00     0.071 A 
HETATM   18  N   UNL     1      43.142 -14.895   6.223  1.00  0.00    -0.178 NA
HETATM   19  N   UNL     1      43.478 -13.749   5.628  1.00  0.00    -0.288 N 
HETATM   20  H   UNL     1      43.636 -12.933   6.213  1.00  0.00     0.188 HD
HETATM   21  C   UNL     1      43.561 -13.852   4.281  1.00  0.00     0.120 A 
BRANCH  17  22
HETATM   22  C   UNL     1      42.700 -17.239   5.623  1.00  0.00    -0.004 C 
HETATM   23  C   UNL     1      41.395 -17.672   4.926  1.00  0.00     0.021 C 
HETATM   24  C   UNL     1      43.828 -18.202   5.168  1.00  0.00     0.021 C 
HETATM   25  C   UNL     1      42.548 -17.441   7.143  1.00  0.00     0.021 C 
ENDBRANCH  17  22
ENDBRANCH  15  16
ENDBRANCH   1  15
TORSDOF 4
ENDMDL
MODEL 7
REMARK VINA RESULT:      -6.3      2.319      6.641
REMARK  4 active torsions:
REMARK  status: ('A' for Active; 'I' for Inactive)
REMARK    1  A    between atoms: C_11  and  N_12 
REMARK    2  A    between atoms: N_12  and  C_13 
REMARK    3  A    between atoms: C_13  and  C_14 
REMARK    4  A    between atoms: C_15  and  C_16 
ROOT
HETATM    1  N   UNL     1      41.628 -15.472   1.198  1.00  0.00     0.092 N 
HETATM    2  H   UNL     1      41.712 -15.498   0.185  1.00  0.00     0.316 HD
ENDROOT
BRANCH   1   3
HETATM    3  C   UNL     1      40.963 -16.645   1.754  1.00  0.00     0.225 C 
HETATM    4  C   UNL     1      40.844 -16.550   3.282  1.00  0.00     0.073 C 
HETATM    5  C   UNL     1      42.130 -16.807   4.079  1.00  0.00     0.121 C 
HETATM    6  N   UNL     1      42.802 -18.069   3.572  1.00  0.00    -0.059 N 
HETATM    7  C   UNL     1      43.117 -15.635   4.080  1.00  0.00     0.046 C 
HETATM    8  C   UNL     1      41.767 -17.095   5.553  1.00  0.00     0.046 C 
HETATM    9  C   UNL     1      42.941 -18.320   2.088  1.00  0.00     0.121 C 
HETATM   10  H   UNL     1      42.277 -18.864   3.965  1.00  0.00     0.279 HD
HETATM   11  H   UNL     1      43.732 -18.143   4.010  1.00  0.00     0.279 HD
HETATM   12  C   UNL     1      44.185 -17.603   1.550  1.00  0.00     0.046 C 
HETATM   13  C   UNL     1      43.190 -19.836   1.931  1.00  0.00     0.046 C 
HETATM   14  C   UNL     1      41.634 -17.964   1.359  1.00  0.00     0.073 C 
ENDBRANCH   1   3
BRANCH   1  15
HETATM   15  C   UNL     1      40.917 -14.219   1.502  1.00  0.00     0.312 C 
BRANCH  15  16
HETATM   16  C   UNL     1      39.724 -14.165   0.608  1.00  0.00     0.014 A 
HETATM   17  C   UNL     1      39.607 -14.093  -0.824  1.00  0.00     0.071 A 
HETATM   18  N   UNL     1      38.314 -14.068  -1.184  1.00  0.00    -0.178 NA
HETATM   19  N   UNL     1      37.625 -14.134  -0.044  1.00  0.00    -0.288 N 
HETATM   20  H   UNL     1      36.610 -14.145  -0.096  1.00  0.00     0.188 HD
HETATM   21  C   UNL     1      38.415 -14.180   1.056  1.00  0.00     0.120 A 
BRANCH  17  22
HETATM   22  C   UNL     1      40.653 -14.092  -1.944  1.00  0.00    -0.004 C 
HETATM   23  C   UNL     1      41.046 -15.546  -2.270  1.00  0.00     0.021 C 
HETATM   24  C   UNL     1      40.083 -13.449  -3.236  1.00  0.00     0.021 C 
HETATM   25  C   UNL     1      41.923 -13.295  -1.590  1.00  0.00     0.021 C 
ENDBRANCH  17  22
ENDBRANCH  15  16
ENDBRANCH   1  15
TORSDOF 4
ENDMDL
MODEL 8
REMARK VINA RESULT:      -6.3      2.425      7.257
REMARK  4 active torsions:
REMARK  status: ('A' for Active; 'I' for Inactive)
REMARK    1  A    between atoms: C_11  and  N_12 
REMARK    2  A    between atoms: N_12  and  C_13 
REMARK    3  A    between atoms: C_13  and  C_14 
REMARK    4  A    between atoms: C_15  and  C_16 
ROOT
HETATM    1  N   UNL     1      41.610 -15.130   0.946  1.00  0.00     0.092 N 
HETATM    2  H   UNL     1      42.320 -15.465   0.300  1.00  0.00     0.316 HD
ENDROOT
BRANCH   1   3
HETATM    3  C   UNL     1      40.927 -16.202   1.663  1.00  0.00     0.225 C 
HETATM    4  C   UNL     1      40.903 -15.938   3.175  1.00  0.00     0.073 C 
HETATM    5  C   UNL     1      42.221 -16.173   3.925  1.00  0.00     0.121 C 
HETATM    6  N   UNL     1      42.805 -17.514   3.525  1.00  0.00    -0.059 N 
HETATM    7  C   UNL     1      43.257 -15.059   3.745  1.00  0.00     0.046 C 
HETATM    8  C   UNL     1      41.932 -16.283   5.439  1.00  0.00     0.046 C 
HETATM    9  C   UNL     1      42.845 -17.929   2.072  1.00  0.00     0.121 C 
HETATM   10  H   UNL     1      42.268 -18.235   4.030  1.00  0.00     0.279 HD
HETATM   11  H   UNL     1      43.755 -17.587   3.918  1.00  0.00     0.279 HD
HETATM   12  C   UNL     1      44.087 -17.338   1.393  1.00  0.00     0.046 C 
HETATM   13  C   UNL     1      43.017 -19.464   2.069  1.00  0.00     0.046 C 
HETATM   14  C   UNL     1      41.514 -17.588   1.379  1.00  0.00     0.073 C 
ENDBRANCH   1   3
BRANCH   1  15
HETATM   15  C   UNL     1      40.691 -14.316   0.134  1.00  0.00     0.312 C 
BRANCH  15  16
HETATM   16  C   UNL     1      41.046 -14.550  -1.295  1.00  0.00     0.014 A 
HETATM   17  C   UNL     1      41.468 -13.649  -2.335  1.00  0.00     0.071 A 
HETATM   18  N   UNL     1      41.680 -14.323  -3.476  1.00  0.00    -0.178 NA
HETATM   19  N   UNL     1      41.425 -15.600  -3.189  1.00  0.00    -0.288 N 
HETATM   20  H   UNL     1      41.544 -16.290  -3.925  1.00  0.00     0.188 HD
HETATM   21  C   UNL     1      41.030 -15.791  -1.908  1.00  0.00     0.120 A 
BRANCH  17  22
HETATM   22  C   UNL     1      41.746 -12.142  -2.340  1.00  0.00    -0.004 C 
HETATM   23  C   UNL     1      42.878 -11.833  -1.341  1.00  0.00     0.021 C 
HETATM   24  C   UNL     1      42.204 -11.667  -3.745  1.00  0.00     0.021 C 
HETATM   25  C   UNL     1      40.512 -11.293  -1.980  1.00  0.00     0.021 C 
ENDBRANCH  17  22
ENDBRANCH  15  16
ENDBRANCH   1  15
TORSDOF 4
ENDMDL
MODEL 9
REMARK VINA RESULT:      -6.3      2.021      5.368
REMARK  4 active torsions:
REMARK  status: ('A' for Active; 'I' for Inactive)
REMARK    1  A    between atoms: C_11  and  N_12 
REMARK    2  A    between atoms: N_12  and  C_13 
REMARK    3  A    between atoms: C_13  and  C_14 
REMARK    4  A    between atoms: C_15  and  C_16 
ROOT
HETATM    1  N   UNL     1      40.323 -15.378   4.455  1.00  0.00     0.092 N 
HETATM    2  H   UNL     1      40.845 -14.769   3.829  1.00  0.00     0.316 HD
ENDROOT
BRANCH   1   3
HETATM    3  C   UNL     1      40.622 -15.152   5.865  1.00  0.00     0.225 C 
HETATM    4  C   UNL     1      40.153 -13.763   6.321  1.00  0.00     0.073 C 
HETATM    5  C   UNL     1      41.013 -12.576   5.870  1.00  0.00     0.121 C 
HETATM    6  N   UNL     1      42.476 -12.872   6.141  1.00  0.00    -0.059 N 
HETATM    7  C   UNL     1      40.810 -12.167   4.407  1.00  0.00     0.046 C 
HETATM    8  C   UNL     1      40.673 -11.342   6.736  1.00  0.00     0.046 C 
HETATM    9  C   UNL     1      43.062 -14.221   5.791  1.00  0.00     0.121 C 
HETATM   10  H   UNL     1      42.626 -12.731   7.151  1.00  0.00     0.279 HD
HETATM   11  H   UNL     1      43.046 -12.137   5.698  1.00  0.00     0.279 HD
HETATM   12  C   UNL     1      43.471 -14.246   4.313  1.00  0.00     0.046 C 
HETATM   13  C   UNL     1      44.358 -14.353   6.620  1.00  0.00     0.046 C 
HETATM   14  C   UNL     1      42.101 -15.348   6.208  1.00  0.00     0.073 C 
ENDBRANCH   1   3
BRANCH   1  15
HETATM   15  C   UNL     1      40.638 -16.750   4.021  1.00  0.00     0.312 C 
BRANCH  15  16
HETATM   16  C   UNL     1      40.920 -16.692   2.558  1.00  0.00     0.014 A 
HETATM   17  C   UNL     1      42.020 -17.192   1.777  1.00  0.00     0.071 A 
HETATM   18  N   UNL     1      41.838 -16.902   0.479  1.00  0.00    -0.178 NA
HETATM   19  N   UNL     1      40.671 -16.260   0.417  1.00  0.00    -0.288 N 
HETATM   20  H   UNL     1      40.334 -15.963  -0.494  1.00  0.00     0.188 HD
HETATM   21  C   UNL     1      40.087 -16.095   1.628  1.00  0.00     0.120 A 
BRANCH  17  22
HETATM   22  C   UNL     1      43.268 -17.997   2.154  1.00  0.00    -0.004 C 
HETATM   23  C   UNL     1      44.449 -17.540   1.277  1.00  0.00     0.021 C 
HETATM   24  C   UNL     1      43.655 -17.759   3.639  1.00  0.00     0.021 C 
HETATM   25  C   UNL     1      43.083 -19.518   1.996  1.00  0.00     0.021 C 
ENDBRANCH  17  22
ENDBRANCH  15  16
ENDBRANCH   1  15
TORSDOF 4
ENDMDL
MODEL 10
REMARK VINA RESULT:      -6.3      1.791      5.421
REMARK  4 active torsions:
REMARK  status: ('A' for Active; 'I' for Inactive)
REMARK    1  A    between atoms: C_11  and  N_12 
REMARK    2  A    between atoms: N_12  and  C_13 
REMARK    3  A    between atoms: C_13  and  C_14 
REMARK    4  A    between atoms: C_15  and  C_16 
ROOT
HETATM    1  N   UNL     1      40.855 -15.758   4.022  1.00  0.00     0.092 N 
HETATM    2  H   UNL     1      41.765 -15.305   4.052  1.00  0.00     0.316 HD
ENDROOT
BRANCH   1   3
HETATM    3  C   UNL     1      40.934 -17.206   3.864  1.00  0.00     0.225 C 
HETATM    4  C   UNL     1      41.556 -17.872   5.100  1.00  0.00     0.073 C 
HETATM    5  C   UNL     1      43.076 -17.729   5.253  1.00  0.00     0.121 C 
HETATM    6  N   UNL     1      43.757 -18.068   3.940  1.00  0.00    -0.059 N 
HETATM    7  C   UNL     1      43.534 -16.358   5.759  1.00  0.00     0.046 C 
HETATM    8  C   UNL     1      43.585 -18.779   6.266  1.00  0.00     0.046 C 
HETATM    9  C   UNL     1      43.219 -17.523   2.636  1.00  0.00     0.121 C 
HETATM   10  H   UNL     1      43.756 -19.095   3.861  1.00  0.00     0.279 HD
HETATM   11  H   UNL     1      44.754 -17.823   4.017  1.00  0.00     0.279 HD
HETATM   12  C   UNL     1      43.761 -16.109   2.397  1.00  0.00     0.046 C 
HETATM   13  C   UNL     1      43.800 -18.423   1.524  1.00  0.00     0.046 C 
HETATM   14  C   UNL     1      41.685 -17.635   2.600  1.00  0.00     0.073 C 
ENDBRANCH   1   3
BRANCH   1  15
HETATM   15  C   UNL     1      40.126 -15.105   2.922  1.00  0.00     0.312 C 
BRANCH  15  16
HETATM   16  C   UNL     1      40.990 -13.999   2.420  1.00  0.00     0.014 A 
HETATM   17  C   UNL     1      41.383 -13.624   1.088  1.00  0.00     0.071 A 
HETATM   18  N   UNL     1      42.178 -12.543   1.125  1.00  0.00    -0.178 NA
HETATM   19  N   UNL     1      42.285 -12.222   2.416  1.00  0.00    -0.288 N 
HETATM   20  H   UNL     1      42.840 -11.408   2.664  1.00  0.00     0.188 HD
HETATM   21  C   UNL     1      41.608 -13.064   3.233  1.00  0.00     0.120 A 
BRANCH  17  22
HETATM   22  C   UNL     1      41.024 -14.191  -0.289  1.00  0.00    -0.004 C 
HETATM   23  C   UNL     1      39.524 -13.961  -0.556  1.00  0.00     0.021 C 
HETATM   24  C   UNL     1      41.825 -13.476  -1.410  1.00  0.00     0.021 C 
HETATM   25  C   UNL     1      41.335 -15.693  -0.429  1.00  0.00     0.021 C 
ENDBRANCH  17  22
ENDBRANCH  15  16
ENDBRANCH   1  15
TORSDOF 4
ENDMDL
