MODEL 1
REMARK VINA RESULT:      -8.1      0.000      0.000
REMARK  4 active torsions:
REMARK  status: ('A' for Active; 'I' for Inactive)
REMARK    1  A    between atoms: C_6  and  N_7 
REMARK       I    between atoms: N_7  and  C_8 
REMARK    2  A    between atoms: C_8  and  C_9 
REMARK    3  A    between atoms: C_10  and  C_11 
REMARK    4  A    between atoms: C_14  and  O_15 
ROOT
HETATM    1  C   UNL     1      42.409 -15.365   1.669  1.00  0.00     0.131 C 
HETATM    2  C   UNL     1      42.009 -14.207   2.623  1.00  0.00     0.177 C 
HETATM    3  N   UNL     1      40.565 -13.956   2.607  1.00  0.00    -0.088 N 
HETATM    4  C   UNL     1      39.712 -14.442   1.647  1.00  0.00     0.721 A 
HETATM    5  N   UNL     1      40.137 -15.312   0.706  1.00  0.00    -0.218 N 
HETATM    6  C   UNL     1      41.566 -15.308   0.380  1.00  0.00     0.111 C 
HETATM    7  C   UNL     1      41.880 -16.435  -0.602  1.00  0.00     0.034 C 
HETATM    8  N   UNL     1      39.944 -13.040   3.374  1.00  0.00    -0.149 NA
HETATM    9  C   UNL     1      38.698 -13.104   2.895  1.00  0.00     0.275 A 
HETATM   10  N   UNL     1      38.515 -13.955   1.839  1.00  0.00    -0.055 NA
HETATM   11  H   UNL     1      39.510 -15.403  -0.094  1.00  0.00     0.178 HD
ENDROOT
BRANCH   1  12
HETATM   12  C   UNL     1      42.399 -16.736   2.350  1.00  0.00     0.230 C 
HETATM   13  N   UNL     1      43.637 -17.300   2.566  1.00  0.00    -0.326 N 
HETATM   14  H   UNL     1      44.431 -16.793   2.187  1.00  0.00     0.169 HD
HETATM   15  O   UNL     1      41.312 -17.257   2.593  1.00  0.00    -0.273 OA
BRANCH  13  16
HETATM   16  C   UNL     1      43.951 -18.580   3.075  1.00  0.00     0.040 A 
HETATM   17  C   UNL     1      44.221 -18.910   4.413  1.00  0.00    -0.035 A 
HETATM   18  C   UNL     1      44.427 -20.266   4.749  1.00  0.00     0.015 A 
HETATM   19  C   UNL     1      44.370 -17.917   5.530  1.00  0.00     0.050 C 
HETATM   20  C   UNL     1      44.448 -21.275   3.779  1.00  0.00    -0.061 A 
HETATM   21  C   UNL     1      44.633 -22.710   4.174  1.00  0.00     0.048 C 
HETATM   22  C   UNL     1      44.245 -20.926   2.447  1.00  0.00     0.009 A 
HETATM   23  C   UNL     1      44.016 -19.592   2.101  1.00  0.00     0.030 A 
ENDBRANCH  13  16
ENDBRANCH   1  12
BRANCH   2  24
HETATM   24  C   UNL     1      42.622 -14.306   4.014  1.00  0.00    -0.032 A 
HETATM   25  C   UNL     1      43.933 -13.842   4.212  1.00  0.00     0.012 A 
HETATM   26  C   UNL     1      44.535 -13.910   5.471  1.00  0.00     0.037 A 
HETATM   27  C   UNL     1      43.839 -14.427   6.560  1.00  0.00     0.068 A 
HETATM   28  C   UNL     1      42.555 -14.933   6.372  1.00  0.00     0.037 A 
HETATM   29  C   UNL     1      41.954 -14.880   5.109  1.00  0.00     0.012 A 
BRANCH  27  30
HETATM   30  O   UNL     1      44.518 -14.418   7.747  1.00  0.00    -0.356 OA
HETATM   31  C   UNL     1      44.972 -13.139   8.175  1.00  0.00     0.210 C 
ENDBRANCH  27  30
ENDBRANCH   2  24
TORSDOF 4
ENDMDL
MODEL 2
REMARK VINA RESULT:      -7.9      1.655      2.853
REMARK  4 active torsions:
REMARK  status: ('A' for Active; 'I' for Inactive)
REMARK    1  A    between atoms: C_6  and  N_7 
REMARK       I    between atoms: N_7  and  C_8 
REMARK    2  A    between atoms: C_8  and  C_9 
REMARK    3  A    between atoms: C_10  and  C_11 
REMARK    4  A    between atoms: C_14  and  O_15 
ROOT
HETATM    1  C   UNL     1      42.613 -13.761   3.228  1.00  0.00     0.131 C 
HETATM    2  C   UNL     1      42.285 -13.353   4.689  1.00  0.00     0.177 C 
HETATM    3  N   UNL     1      40.889 -12.930   4.841  1.00  0.00    -0.088 N 
HETATM    4  C   UNL     1      40.063 -12.617   3.791  1.00  0.00     0.721 A 
HETATM    5  N   UNL     1      40.451 -12.809   2.512  1.00  0.00    -0.218 N 
HETATM    6  C   UNL     1      41.891 -12.824   2.238  1.00  0.00     0.111 C 
HETATM    7  C   UNL     1      42.140 -13.177   0.774  1.00  0.00     0.034 C 
HETATM    8  N   UNL     1      40.328 -12.570   6.012  1.00  0.00    -0.149 NA
HETATM    9  C   UNL     1      39.126 -12.150   5.602  1.00  0.00     0.275 A 
HETATM   10  N   UNL     1      38.925 -12.168   4.248  1.00  0.00    -0.055 NA
HETATM   11  H   UNL     1      39.884 -12.312   1.823  1.00  0.00     0.178 HD
ENDROOT
BRANCH   1  12
HETATM   12  C   UNL     1      42.376 -15.248   2.950  1.00  0.00     0.230 C 
HETATM   13  N   UNL     1      43.472 -16.064   3.119  1.00  0.00    -0.326 N 
HETATM   14  H   UNL     1      44.348 -15.597   3.334  1.00  0.00     0.169 HD
HETATM   15  O   UNL     1      41.269 -15.594   2.543  1.00  0.00    -0.273 OA
BRANCH  13  16
HETATM   16  C   UNL     1      43.598 -17.446   2.849  1.00  0.00     0.040 A 
HETATM   17  C   UNL     1      43.492 -18.072   1.597  1.00  0.00    -0.035 A 
HETATM   18  C   UNL     1      43.739 -19.459   1.508  1.00  0.00     0.015 A 
HETATM   19  C   UNL     1      43.070 -17.387   0.327  1.00  0.00     0.050 C 
HETATM   20  C   UNL     1      44.010 -20.237   2.639  1.00  0.00    -0.061 A 
HETATM   21  C   UNL     1      44.305 -21.701   2.505  1.00  0.00     0.048 C 
HETATM   22  C   UNL     1      44.048 -19.616   3.884  1.00  0.00     0.009 A 
HETATM   23  C   UNL     1      43.828 -18.240   3.986  1.00  0.00     0.030 A 
ENDBRANCH  13  16
ENDBRANCH   1  12
BRANCH   2  24
HETATM   24  C   UNL     1      42.765 -14.350   5.737  1.00  0.00    -0.032 A 
HETATM   25  C   UNL     1      41.972 -15.475   6.017  1.00  0.00     0.012 A 
HETATM   26  C   UNL     1      42.372 -16.416   6.968  1.00  0.00     0.037 A 
HETATM   27  C   UNL     1      43.579 -16.263   7.648  1.00  0.00     0.068 A 
HETATM   28  C   UNL     1      44.356 -15.131   7.415  1.00  0.00     0.037 A 
HETATM   29  C   UNL     1      43.949 -14.179   6.473  1.00  0.00     0.012 A 
BRANCH  27  30
HETATM   30  O   UNL     1      43.881 -17.260   8.534  1.00  0.00    -0.356 OA
HETATM   31  C   UNL     1      44.020 -18.557   7.964  1.00  0.00     0.210 C 
ENDBRANCH  27  30
ENDBRANCH   2  24
TORSDOF 4
ENDMDL
MODEL 3
REMARK VINA RESULT:      -7.6      2.532      6.076
REMARK  4 active torsions:
REMARK  status: ('A' for Active; 'I' for Inactive)
REMARK    1  A    between atoms: C_6  and  N_7 
REMARK       I    between atoms: N_7  and  C_8 
REMARK    2  A    between atoms: C_8  and  C_9 
REMARK    3  A    between atoms: C_10  and  C_11 
REMARK    4  A    between atoms: C_14  and  O_15 
ROOT
HETATM    1  C   UNL     1      42.031 -17.347   3.635  1.00  0.00     0.131 C 
HETATM    2  C   UNL     1      42.181 -16.907   5.116  1.00  0.00     0.177 C 
HETATM    3  N   UNL     1      43.494 -17.260   5.665  1.00  0.00    -0.088 N 
HETATM    4  C   UNL     1      44.360 -18.146   5.074  1.00  0.00     0.721 A 
HETATM    5  N   UNL     1      44.108 -18.663   3.852  1.00  0.00    -0.218 N 
HETATM    6  C   UNL     1      42.710 -18.714   3.415  1.00  0.00     0.111 C 
HETATM    7  C   UNL     1      42.632 -19.206   1.972  1.00  0.00     0.034 C 
HETATM    8  N   UNL     1      43.905 -16.953   6.910  1.00  0.00    -0.149 NA
HETATM    9  C   UNL     1      45.074 -17.599   6.962  1.00  0.00     0.275 A 
HETATM   10  N   UNL     1      45.389 -18.338   5.854  1.00  0.00    -0.055 NA
HETATM   11  H   UNL     1      44.664 -19.489   3.624  1.00  0.00     0.178 HD
ENDROOT
BRANCH   1  12
HETATM   12  C   UNL     1      42.477 -16.273   2.640  1.00  0.00     0.230 C 
HETATM   13  N   UNL     1      41.475 -15.728   1.868  1.00  0.00    -0.326 N 
HETATM   14  H   UNL     1      40.553 -16.142   1.975  1.00  0.00     0.169 HD
HETATM   15  O   UNL     1      43.677 -16.021   2.554  1.00  0.00    -0.273 OA
BRANCH  13  16
HETATM   16  C   UNL     1      41.578 -14.801   0.807  1.00  0.00     0.040 A 
HETATM   17  C   UNL     1      41.908 -13.440   0.907  1.00  0.00    -0.035 A 
HETATM   18  C   UNL     1      42.052 -12.687  -0.279  1.00  0.00     0.015 A 
HETATM   19  C   UNL     1      42.067 -12.687   2.198  1.00  0.00     0.050 C 
HETATM   20  C   UNL     1      41.800 -13.237  -1.541  1.00  0.00    -0.061 A 
HETATM   21  C   UNL     1      41.999 -12.420  -2.783  1.00  0.00     0.048 C 
HETATM   22  C   UNL     1      41.409 -14.570  -1.623  1.00  0.00     0.009 A 
HETATM   23  C   UNL     1      41.284 -15.336  -0.461  1.00  0.00     0.030 A 
ENDBRANCH  13  16
ENDBRANCH   1  12
BRANCH   2  24
HETATM   24  C   UNL     1      41.743 -15.472   5.387  1.00  0.00    -0.032 A 
HETATM   25  C   UNL     1      40.370 -15.178   5.421  1.00  0.00     0.012 A 
HETATM   26  C   UNL     1      39.922 -13.878   5.668  1.00  0.00     0.037 A 
HETATM   27  C   UNL     1      40.831 -12.849   5.901  1.00  0.00     0.068 A 
HETATM   28  C   UNL     1      42.197 -13.115   5.826  1.00  0.00     0.037 A 
HETATM   29  C   UNL     1      42.649 -14.413   5.565  1.00  0.00     0.012 A 
BRANCH  27  30
HETATM   30  O   UNL     1      40.278 -11.625   6.159  1.00  0.00    -0.356 OA
HETATM   31  C   UNL     1      39.663 -11.496   7.437  1.00  0.00     0.210 C 
ENDBRANCH  27  30
ENDBRANCH   2  24
TORSDOF 4
ENDMDL
MODEL 4
REMARK VINA RESULT:      -7.6      2.087      5.639
REMARK  4 active torsions:
REMARK  status: ('A' for Active; 'I' for Inactive)
REMARK    1  A    between atoms: C_6  and  N_7 
REMARK       I    between atoms: N_7  and  C_8 
REMARK    2  A    between atoms: C_8  and  C_9 
REMARK    3  A    between atoms: C_10  and  C_11 
REMARK    4  A    between atoms: C_14  and  O_15 
ROOT
HETATM    1  C   UNL     1      40.299 -14.948   2.286  1.00  0.00     0.131 C 
HETATM    2  C   UNL     1      40.680 -15.868   1.096  1.00  0.00     0.177 C 
HETATM    3  N   UNL     1      40.885 -15.109  -0.142  1.00  0.00    -0.088 N 
HETATM    4  C   UNL     1      40.481 -13.810  -0.322  1.00  0.00     0.721 A 
HETATM    5  N   UNL     1      39.973 -13.086   0.699  1.00  0.00    -0.218 N 
HETATM    6  C   UNL     1      39.360 -13.821   1.809  1.00  0.00     0.111 C 
HETATM    7  C   UNL     1      38.960 -12.851   2.918  1.00  0.00     0.034 C 
HETATM    8  N   UNL     1      41.269 -15.654  -1.313  1.00  0.00    -0.149 NA
HETATM    9  C   UNL     1      41.174 -14.600  -2.130  1.00  0.00     0.275 A 
HETATM   10  N   UNL     1      40.699 -13.451  -1.558  1.00  0.00    -0.055 NA
HETATM   11  H   UNL     1      39.473 -12.245   0.407  1.00  0.00     0.178 HD
ENDROOT
BRANCH   1  12
HETATM   12  C   UNL     1      41.513 -14.444   3.071  1.00  0.00     0.230 C 
HETATM   13  N   UNL     1      41.638 -14.938   4.350  1.00  0.00    -0.326 N 
HETATM   14  H   UNL     1      40.876 -15.524   4.679  1.00  0.00     0.169 HD
HETATM   15  O   UNL     1      42.240 -13.606   2.543  1.00  0.00    -0.273 OA
BRANCH  13  16
HETATM   16  C   UNL     1      42.581 -14.594   5.345  1.00  0.00     0.040 A 
HETATM   17  C   UNL     1      43.579 -15.423   5.880  1.00  0.00    -0.035 A 
HETATM   18  C   UNL     1      44.492 -14.875   6.807  1.00  0.00     0.015 A 
HETATM   19  C   UNL     1      43.726 -16.890   5.589  1.00  0.00     0.050 C 
HETATM   20  C   UNL     1      44.383 -13.557   7.264  1.00  0.00    -0.061 A 
HETATM   21  C   UNL     1      45.391 -12.994   8.220  1.00  0.00     0.048 C 
HETATM   22  C   UNL     1      43.348 -12.764   6.775  1.00  0.00     0.009 A 
HETATM   23  C   UNL     1      42.450 -13.284   5.840  1.00  0.00     0.030 A 
ENDBRANCH  13  16
ENDBRANCH   1  12
BRANCH   2  24
HETATM   24  C   UNL     1      41.778 -16.875   1.414  1.00  0.00    -0.032 A 
HETATM   25  C   UNL     1      41.457 -18.008   2.180  1.00  0.00     0.012 A 
HETATM   26  C   UNL     1      42.431 -18.960   2.495  1.00  0.00     0.037 A 
HETATM   27  C   UNL     1      43.739 -18.809   2.040  1.00  0.00     0.068 A 
HETATM   28  C   UNL     1      44.084 -17.670   1.317  1.00  0.00     0.037 A 
HETATM   29  C   UNL     1      43.114 -16.707   1.013  1.00  0.00     0.012 A 
BRANCH  27  30
HETATM   30  O   UNL     1      44.598 -19.816   2.384  1.00  0.00    -0.356 OA
HETATM   31  C   UNL     1      44.142 -21.131   2.086  1.00  0.00     0.210 C 
ENDBRANCH  27  30
ENDBRANCH   2  24
TORSDOF 4
ENDMDL
MODEL 5
REMARK VINA RESULT:      -7.5      2.392      4.899
REMARK  4 active torsions:
REMARK  status: ('A' for Active; 'I' for Inactive)
REMARK    1  A    between atoms: C_6  and  N_7 
REMARK       I    between atoms: N_7  and  C_8 
REMARK    2  A    between atoms: C_8  and  C_9 
REMARK    3  A    between atoms: C_10  and  C_11 
REMARK    4  A    between atoms: C_14  and  O_15 
ROOT
HETATM    1  C   UNL     1      40.407 -15.181   4.216  1.00  0.00     0.131 C 
HETATM    2  C   UNL     1      40.268 -13.841   3.445  1.00  0.00     0.177 C 
HETATM    3  N   UNL     1      40.882 -12.724   4.169  1.00  0.00    -0.088 N 
HETATM    4  C   UNL     1      41.244 -12.772   5.492  1.00  0.00     0.721 A 
HETATM    5  N   UNL     1      41.177 -13.923   6.196  1.00  0.00    -0.218 N 
HETATM    6  C   UNL     1      40.234 -14.945   5.730  1.00  0.00     0.111 C 
HETATM    7  C   UNL     1      40.386 -16.214   6.565  1.00  0.00     0.034 C 
HETATM    8  N   UNL     1      40.946 -11.461   3.705  1.00  0.00    -0.149 NA
HETATM    9  C   UNL     1      41.455 -10.823   4.764  1.00  0.00     0.275 A 
HETATM   10  N   UNL     1      41.656 -11.595   5.876  1.00  0.00    -0.055 NA
HETATM   11  H   UNL     1      41.214 -13.797   7.209  1.00  0.00     0.178 HD
ENDROOT
BRANCH   1  12
HETATM   12  C   UNL     1      41.679 -15.953   3.857  1.00  0.00     0.230 C 
HETATM   13  N   UNL     1      41.506 -17.296   3.603  1.00  0.00    -0.326 N 
HETATM   14  H   UNL     1      40.570 -17.662   3.754  1.00  0.00     0.169 HD
HETATM   15  O   UNL     1      42.751 -15.352   3.881  1.00  0.00    -0.273 OA
BRANCH  13  16
HETATM   16  C   UNL     1      42.484 -18.283   3.346  1.00  0.00     0.040 A 
HETATM   17  C   UNL     1      43.392 -18.828   4.268  1.00  0.00    -0.035 A 
HETATM   18  C   UNL     1      44.239 -19.876   3.847  1.00  0.00     0.015 A 
HETATM   19  C   UNL     1      43.583 -18.341   5.676  1.00  0.00     0.050 C 
HETATM   20  C   UNL     1      44.254 -20.332   2.524  1.00  0.00    -0.061 A 
HETATM   21  C   UNL     1      45.139 -21.472   2.119  1.00  0.00     0.048 C 
HETATM   22  C   UNL     1      43.395 -19.738   1.603  1.00  0.00     0.009 A 
HETATM   23  C   UNL     1      42.533 -18.715   2.009  1.00  0.00     0.030 A 
ENDBRANCH  13  16
ENDBRANCH   1  12
BRANCH   2  24
HETATM   24  C   UNL     1      40.644 -13.929   1.971  1.00  0.00    -0.032 A 
HETATM   25  C   UNL     1      39.875 -14.742   1.122  1.00  0.00     0.012 A 
HETATM   26  C   UNL     1      40.181 -14.851  -0.236  1.00  0.00     0.037 A 
HETATM   27  C   UNL     1      41.249 -14.142  -0.779  1.00  0.00     0.068 A 
HETATM   28  C   UNL     1      42.049 -13.366   0.057  1.00  0.00     0.037 A 
HETATM   29  C   UNL     1      41.754 -13.266   1.421  1.00  0.00     0.012 A 
BRANCH  27  30
HETATM   30  O   UNL     1      41.437 -14.303  -2.124  1.00  0.00    -0.356 OA
HETATM   31  C   UNL     1      40.972 -15.539  -2.656  1.00  0.00     0.210 C 
ENDBRANCH  27  30
ENDBRANCH   2  24
TORSDOF 4
ENDMDL
MODEL 6
REMARK VINA RESULT:      -7.3      2.621      6.288
REMARK  4 active torsions:
REMARK  status: ('A' for Active; 'I' for Inactive)
REMARK    1  A    between atoms: C_6  and  N_7 
REMARK       I    between atoms: N_7  and  C_8 
REMARK    2  A    between atoms: C_8  and  C_9 
REMARK    3  A    between atoms: C_10  and  C_11 
REMARK    4  A    between atoms: C_14  and  O_15 
ROOT
HETATM    1  C   UNL     1      41.990 -17.133   3.582  1.00  0.00     0.131 C 
HETATM    2  C   UNL     1      42.102 -16.760   5.085  1.00  0.00     0.177 C 
HETATM    3  N   UNL     1      43.383 -17.179   5.661  1.00  0.00    -0.088 N 
HETATM    4  C   UNL     1      44.240 -18.069   5.063  1.00  0.00     0.721 A 
HETATM    5  N   UNL     1      44.014 -18.526   3.812  1.00  0.00    -0.218 N 
HETATM    6  C   UNL     1      42.631 -18.511   3.326  1.00  0.00     0.111 C 
HETATM    7  C   UNL     1      42.588 -18.940   1.862  1.00  0.00     0.034 C 
HETATM    8  N   UNL     1      43.760 -16.938   6.932  1.00  0.00    -0.149 NA
HETATM    9  C   UNL     1      44.904 -17.626   6.995  1.00  0.00     0.275 A 
HETATM   10  N   UNL     1      45.234 -18.327   5.868  1.00  0.00    -0.055 NA
HETATM   11  H   UNL     1      44.551 -19.360   3.568  1.00  0.00     0.178 HD
ENDROOT
BRANCH   1  12
HETATM   12  C   UNL     1      42.504 -16.033   2.649  1.00  0.00     0.230 C 
HETATM   13  N   UNL     1      41.533 -15.317   1.986  1.00  0.00    -0.326 N 
HETATM   14  H   UNL     1      40.576 -15.633   2.117  1.00  0.00     0.169 HD
HETATM   15  O   UNL     1      43.719 -15.911   2.509  1.00  0.00    -0.273 OA
BRANCH  13  16
HETATM   16  C   UNL     1      41.687 -14.320   0.997  1.00  0.00     0.040 A 
HETATM   17  C   UNL     1      41.520 -14.476  -0.389  1.00  0.00    -0.035 A 
HETATM   18  C   UNL     1      41.628 -13.338  -1.218  1.00  0.00     0.015 A 
HETATM   19  C   UNL     1      41.289 -15.788  -1.084  1.00  0.00     0.050 C 
HETATM   20  C   UNL     1      41.973 -12.081  -0.710  1.00  0.00    -0.061 A 
HETATM   21  C   UNL     1      42.042 -10.886  -1.613  1.00  0.00     0.048 C 
HETATM   22  C   UNL     1      42.201 -11.952   0.657  1.00  0.00     0.009 A 
HETATM   23  C   UNL     1      42.075 -13.063   1.495  1.00  0.00     0.030 A 
ENDBRANCH  13  16
ENDBRANCH   1  12
BRANCH   2  24
HETATM   24  C   UNL     1      41.701 -15.324   5.402  1.00  0.00    -0.032 A 
HETATM   25  C   UNL     1      40.339 -15.018   5.552  1.00  0.00     0.012 A 
HETATM   26  C   UNL     1      39.924 -13.716   5.845  1.00  0.00     0.037 A 
HETATM   27  C   UNL     1      40.860 -12.697   6.009  1.00  0.00     0.068 A 
HETATM   28  C   UNL     1      42.212 -12.974   5.819  1.00  0.00     0.037 A 
HETATM   29  C   UNL     1      42.628 -14.274   5.511  1.00  0.00     0.012 A 
BRANCH  27  30
HETATM   30  O   UNL     1      40.341 -11.471   6.322  1.00  0.00    -0.356 OA
HETATM   31  C   UNL     1      39.677 -11.397   7.579  1.00  0.00     0.210 C 
ENDBRANCH  27  30
ENDBRANCH   2  24
TORSDOF 4
ENDMDL
MODEL 7
REMARK VINA RESULT:      -7.3      2.724      5.940
REMARK  4 active torsions:
REMARK  status: ('A' for Active; 'I' for Inactive)
REMARK    1  A    between atoms: C_6  and  N_7 
REMARK       I    between atoms: N_7  and  C_8 
REMARK    2  A    between atoms: C_8  and  C_9 
REMARK    3  A    between atoms: C_10  and  C_11 
REMARK    4  A    between atoms: C_14  and  O_15 
ROOT
HETATM    1  C   UNL     1      39.499 -13.380   3.489  1.00  0.00     0.131 C 
HETATM    2  C   UNL     1      39.198 -12.339   2.377  1.00  0.00     0.177 C 
HETATM    3  N   UNL     1      39.907 -11.075   2.600  1.00  0.00    -0.088 N 
HETATM    4  C   UNL     1      40.497 -10.725   3.789  1.00  0.00     0.721 A 
HETATM    5  N   UNL     1      40.578 -11.600   4.815  1.00  0.00    -0.218 N 
HETATM    6  C   UNL     1      39.591 -12.682   4.861  1.00  0.00     0.111 C 
HETATM    7  C   UNL     1      39.914 -13.635   6.008  1.00  0.00     0.034 C 
HETATM    8  N   UNL     1      39.861 -10.020   1.764  1.00  0.00    -0.149 NA
HETATM    9  C   UNL     1      40.535  -9.105   2.467  1.00  0.00     0.275 A 
HETATM   10  N   UNL     1      40.945  -9.501   3.712  1.00  0.00    -0.055 NA
HETATM   11  H   UNL     1      40.791 -11.168   5.716  1.00  0.00     0.178 HD
ENDROOT
BRANCH   1  12
HETATM   12  C   UNL     1      40.704 -14.269   3.171  1.00  0.00     0.230 C 
HETATM   13  N   UNL     1      40.427 -15.609   3.017  1.00  0.00    -0.326 N 
HETATM   14  H   UNL     1      39.470 -15.892   3.205  1.00  0.00     0.169 HD
HETATM   15  O   UNL     1      41.818 -13.749   3.138  1.00  0.00    -0.273 OA
BRANCH  13  16
HETATM   16  C   UNL     1      41.325 -16.683   2.820  1.00  0.00     0.040 A 
HETATM   17  C   UNL     1      41.849 -17.128   1.596  1.00  0.00    -0.035 A 
HETATM   18  C   UNL     1      42.808 -18.164   1.605  1.00  0.00     0.015 A 
HETATM   19  C   UNL     1      41.422 -16.625   0.246  1.00  0.00     0.050 C 
HETATM   20  C   UNL     1      43.191 -18.809   2.786  1.00  0.00    -0.061 A 
HETATM   21  C   UNL     1      44.241 -19.880   2.765  1.00  0.00     0.048 C 
HETATM   22  C   UNL     1      42.616 -18.403   3.987  1.00  0.00     0.009 A 
HETATM   23  C   UNL     1      41.682 -17.363   3.998  1.00  0.00     0.030 A 
ENDBRANCH  13  16
ENDBRANCH   1  12
BRANCH   2  24
HETATM   24  C   UNL     1      39.310 -12.890   0.961  1.00  0.00    -0.032 A 
HETATM   25  C   UNL     1      38.224 -13.599   0.421  1.00  0.00     0.012 A 
HETATM   26  C   UNL     1      38.281 -14.121  -0.874  1.00  0.00     0.037 A 
HETATM   27  C   UNL     1      39.414 -13.934  -1.661  1.00  0.00     0.068 A 
HETATM   28  C   UNL     1      40.517 -13.273  -1.126  1.00  0.00     0.037 A 
HETATM   29  C   UNL     1      40.469 -12.762   0.176  1.00  0.00     0.012 A 
BRANCH  27  30
HETATM   30  O   UNL     1      39.346 -14.464  -2.921  1.00  0.00    -0.356 OA
HETATM   31  C   UNL     1      40.202 -15.577  -3.156  1.00  0.00     0.210 C 
ENDBRANCH  27  30
ENDBRANCH   2  24
TORSDOF 4
ENDMDL
MODEL 8
REMARK VINA RESULT:      -7.3      1.927      5.701
REMARK  4 active torsions:
REMARK  status: ('A' for Active; 'I' for Inactive)
REMARK    1  A    between atoms: C_6  and  N_7 
REMARK       I    between atoms: N_7  and  C_8 
REMARK    2  A    between atoms: C_8  and  C_9 
REMARK    3  A    between atoms: C_10  and  C_11 
REMARK    4  A    between atoms: C_14  and  O_15 
ROOT
HETATM    1  C   UNL     1      40.377 -14.734   3.287  1.00  0.00     0.131 C 
HETATM    2  C   UNL     1      40.716 -16.014   2.477  1.00  0.00     0.177 C 
HETATM    3  N   UNL     1      40.990 -15.717   1.068  1.00  0.00    -0.088 N 
HETATM    4  C   UNL     1      40.674 -14.528   0.459  1.00  0.00     0.721 A 
HETATM    5  N   UNL     1      40.199 -13.481   1.168  1.00  0.00    -0.218 N 
HETATM    6  C   UNL     1      39.522 -13.775   2.434  1.00  0.00     0.111 C 
HETATM    7  C   UNL     1      39.168 -12.474   3.151  1.00  0.00     0.034 C 
HETATM    8  N   UNL     1      41.356 -16.636   0.154  1.00  0.00    -0.149 NA
HETATM    9  C   UNL     1      41.343 -15.906  -0.965  1.00  0.00     0.275 A 
HETATM   10  N   UNL     1      40.935 -14.608  -0.818  1.00  0.00    -0.055 NA
HETATM   11  H   UNL     1      39.759 -12.756   0.599  1.00  0.00     0.178 HD
ENDROOT
BRANCH   1  12
HETATM   12  C   UNL     1      41.609 -14.070   3.908  1.00  0.00     0.230 C 
HETATM   13  N   UNL     1      41.745 -14.230   5.269  1.00  0.00    -0.326 N 
HETATM   14  H   UNL     1      40.981 -14.703   5.742  1.00  0.00     0.169 HD
HETATM   15  O   UNL     1      42.339 -13.402   3.179  1.00  0.00    -0.273 OA
BRANCH  13  16
HETATM   16  C   UNL     1      42.707 -13.664   6.136  1.00  0.00     0.040 A 
HETATM   17  C   UNL     1      42.593 -12.458   6.846  1.00  0.00    -0.035 A 
HETATM   18  C   UNL     1      43.625 -12.096   7.739  1.00  0.00     0.015 A 
HETATM   19  C   UNL     1      41.471 -11.470   6.688  1.00  0.00     0.050 C 
HETATM   20  C   UNL     1      44.787 -12.862   7.878  1.00  0.00    -0.061 A 
HETATM   21  C   UNL     1      45.847 -12.470   8.864  1.00  0.00     0.048 C 
HETATM   22  C   UNL     1      44.918 -14.022   7.120  1.00  0.00     0.009 A 
HETATM   23  C   UNL     1      43.895 -14.407   6.248  1.00  0.00     0.030 A 
ENDBRANCH  13  16
ENDBRANCH   1  12
BRANCH   2  24
HETATM   24  C   UNL     1      41.741 -16.921   3.147  1.00  0.00    -0.032 A 
HETATM   25  C   UNL     1      41.367 -17.632   4.299  1.00  0.00     0.012 A 
HETATM   26  C   UNL     1      42.272 -18.476   4.946  1.00  0.00     0.037 A 
HETATM   27  C   UNL     1      43.563 -18.643   4.449  1.00  0.00     0.068 A 
HETATM   28  C   UNL     1      43.964 -17.911   3.333  1.00  0.00     0.037 A 
HETATM   29  C   UNL     1      43.064 -17.053   2.692  1.00  0.00     0.012 A 
BRANCH  27  30
HETATM   30  O   UNL     1      44.352 -19.515   5.146  1.00  0.00    -0.356 OA
HETATM   31  C   UNL     1      44.850 -20.616   4.393  1.00  0.00     0.210 C 
ENDBRANCH  27  30
ENDBRANCH   2  24
TORSDOF 4
ENDMDL
MODEL 9
REMARK VINA RESULT:      -7.1      2.724      7.706
REMARK  4 active torsions:
REMARK  status: ('A' for Active; 'I' for Inactive)
REMARK    1  A    between atoms: C_6  and  N_7 
REMARK       I    between atoms: N_7  and  C_8 
REMARK    2  A    between atoms: C_8  and  C_9 
REMARK    3  A    between atoms: C_10  and  C_11 
REMARK    4  A    between atoms: C_14  and  O_15 
ROOT
HETATM    1  C   UNL     1      43.771 -14.834   5.528  1.00  0.00     0.131 C 
HETATM    2  C   UNL     1      43.815 -16.281   4.968  1.00  0.00     0.177 C 
HETATM    3  N   UNL     1      43.543 -17.281   6.005  1.00  0.00    -0.088 N 
HETATM    4  C   UNL     1      43.570 -17.017   7.352  1.00  0.00     0.721 A 
HETATM    5  N   UNL     1      43.723 -15.758   7.817  1.00  0.00    -0.218 N 
HETATM    6  C   UNL     1      44.389 -14.791   6.940  1.00  0.00     0.111 C 
HETATM    7  C   UNL     1      44.358 -13.403   7.576  1.00  0.00     0.034 C 
HETATM    8  N   UNL     1      43.474 -18.608   5.783  1.00  0.00    -0.149 NA
HETATM    9  C   UNL     1      43.352 -19.072   7.030  1.00  0.00     0.275 A 
HETATM   10  N   UNL     1      43.402 -18.127   8.019  1.00  0.00    -0.055 NA
HETATM   11  H   UNL     1      43.988 -15.705   8.802  1.00  0.00     0.178 HD
ENDROOT
BRANCH   1  12
HETATM   12  C   UNL     1      42.380 -14.200   5.448  1.00  0.00     0.230 C 
HETATM   13  N   UNL     1      42.269 -13.120   4.601  1.00  0.00    -0.326 N 
HETATM   14  H   UNL     1      43.132 -12.799   4.171  1.00  0.00     0.169 HD
HETATM   15  O   UNL     1      41.494 -14.645   6.175  1.00  0.00    -0.273 OA
BRANCH  13  16
HETATM   16  C   UNL     1      41.160 -12.271   4.386  1.00  0.00     0.040 A 
HETATM   17  C   UNL     1      40.031 -12.544   3.597  1.00  0.00    -0.035 A 
HETATM   18  C   UNL     1      38.976 -11.606   3.575  1.00  0.00     0.015 A 
HETATM   19  C   UNL     1      39.874 -13.746   2.710  1.00  0.00     0.050 C 
HETATM   20  C   UNL     1      39.056 -10.384   4.251  1.00  0.00    -0.061 A 
HETATM   21  C   UNL     1      37.902  -9.427   4.237  1.00  0.00     0.048 C 
HETATM   22  C   UNL     1      40.209 -10.096   4.977  1.00  0.00     0.009 A 
HETATM   23  C   UNL     1      41.252 -11.023   5.029  1.00  0.00     0.030 A 
ENDBRANCH  13  16
ENDBRANCH   1  12
BRANCH   2  24
HETATM   24  C   UNL     1      43.028 -16.474   3.678  1.00  0.00    -0.032 A 
HETATM   25  C   UNL     1      43.603 -16.058   2.465  1.00  0.00     0.012 A 
HETATM   26  C   UNL     1      42.919 -16.216   1.257  1.00  0.00     0.037 A 
HETATM   27  C   UNL     1      41.658 -16.806   1.230  1.00  0.00     0.068 A 
HETATM   28  C   UNL     1      41.054 -17.182   2.428  1.00  0.00     0.037 A 
HETATM   29  C   UNL     1      41.731 -17.011   3.642  1.00  0.00     0.012 A 
BRANCH  27  30
HETATM   30  O   UNL     1      41.097 -16.934  -0.010  1.00  0.00    -0.356 OA
HETATM   31  C   UNL     1      41.151 -15.767  -0.824  1.00  0.00     0.210 C 
ENDBRANCH  27  30
ENDBRANCH   2  24
TORSDOF 4
ENDMDL
MODEL 10
REMARK VINA RESULT:      -7.1      2.033      2.654
REMARK  4 active torsions:
REMARK  status: ('A' for Active; 'I' for Inactive)
REMARK    1  A    between atoms: C_6  and  N_7 
REMARK       I    between atoms: N_7  and  C_8 
REMARK    2  A    between atoms: C_8  and  C_9 
REMARK    3  A    between atoms: C_10  and  C_11 
REMARK    4  A    between atoms: C_14  and  O_15 
ROOT
HETATM    1  C   UNL     1      41.162 -14.030   0.369  1.00  0.00     0.131 C 
HETATM    2  C   UNL     1      40.317 -12.964   1.115  1.00  0.00     0.177 C 
HETATM    3  N   UNL     1      38.890 -13.070   0.796  1.00  0.00    -0.088 N 
HETATM    4  C   UNL     1      38.391 -13.789  -0.261  1.00  0.00     0.721 A 
HETATM    5  N   UNL     1      39.192 -14.571  -1.017  1.00  0.00    -0.218 N 
HETATM    6  C   UNL     1      40.618 -14.236  -1.060  1.00  0.00     0.111 C 
HETATM    7  C   UNL     1      41.380 -15.295  -1.854  1.00  0.00     0.034 C 
HETATM    8  N   UNL     1      37.929 -12.299   1.341  1.00  0.00    -0.149 NA
HETATM    9  C   UNL     1      36.860 -12.683   0.637  1.00  0.00     0.275 A 
HETATM   10  N   UNL     1      37.103 -13.599  -0.351  1.00  0.00    -0.055 NA
HETATM   11  H   UNL     1      38.784 -14.846  -1.912  1.00  0.00     0.178 HD
ENDROOT
BRANCH   1  12
HETATM   12  C   UNL     1      41.321 -15.332   1.158  1.00  0.00     0.230 C 
HETATM   13  N   UNL     1      42.597 -15.606   1.598  1.00  0.00    -0.326 N 
HETATM   14  H   UNL     1      43.322 -14.964   1.293  1.00  0.00     0.169 HD
HETATM   15  O   UNL     1      40.338 -16.058   1.288  1.00  0.00    -0.273 OA
BRANCH  13  16
HETATM   16  C   UNL     1      43.079 -16.759   2.257  1.00  0.00     0.040 A 
HETATM   17  C   UNL     1      43.066 -17.006   3.639  1.00  0.00    -0.035 A 
HETATM   18  C   UNL     1      43.512 -18.261   4.108  1.00  0.00     0.015 A 
HETATM   19  C   UNL     1      42.665 -16.006   4.686  1.00  0.00     0.050 C 
HETATM   20  C   UNL     1      44.036 -19.231   3.247  1.00  0.00    -0.061 A 
HETATM   21  C   UNL     1      44.466 -20.568   3.774  1.00  0.00     0.048 C 
HETATM   22  C   UNL     1      44.105 -18.949   1.886  1.00  0.00     0.009 A 
HETATM   23  C   UNL     1      43.646 -17.721   1.402  1.00  0.00     0.030 A 
ENDBRANCH  13  16
ENDBRANCH   1  12
BRANCH   2  24
HETATM   24  C   UNL     1      40.629 -12.850   2.602  1.00  0.00    -0.032 A 
HETATM   25  C   UNL     1      41.854 -12.285   2.996  1.00  0.00     0.012 A 
HETATM   26  C   UNL     1      42.183 -12.159   4.348  1.00  0.00     0.037 A 
HETATM   27  C   UNL     1      41.293 -12.578   5.334  1.00  0.00     0.068 A 
HETATM   28  C   UNL     1      40.094 -13.182   4.961  1.00  0.00     0.037 A 
HETATM   29  C   UNL     1      39.768 -13.323   3.606  1.00  0.00     0.012 A 
BRANCH  27  30
HETATM   30  O   UNL     1      41.709 -12.379   6.622  1.00  0.00    -0.356 OA
HETATM   31  C   UNL     1      41.320 -11.137   7.198  1.00  0.00     0.210 C 
ENDBRANCH  27  30
ENDBRANCH   2  24
TORSDOF 4
ENDMDL
