MODEL 1
REMARK VINA RESULT:      -9.3      0.000      0.000
REMARK  6 active torsions:
REMARK  status: ('A' for Active; 'I' for Inactive)
REMARK    1  A    between atoms: C_3  and  N_4 
REMARK       I    between atoms: N_4  and  C_5 
REMARK    2  A    between atoms: C_5  and  C_6 
REMARK    3  A    between atoms: C_14  and  N_15 
REMARK       I    between atoms: N_15  and  C_16 
REMARK       I    between atoms: C_16  and  N_17 
REMARK    4  A    between atoms: N_17  and  C_18 
REMARK    5  A    between atoms: C_18  and  C_19 
REMARK    6  A    between atoms: C_19  and  N_20 
ROOT
HETATM    1  N   UNL     1      39.525 -13.991   6.006  1.00  0.00    -0.309 N 
HETATM    2  C   UNL     1      39.897 -12.709   6.262  1.00  0.00     0.321 C 
HETATM    3  N   UNL     1      41.236 -12.437   6.297  1.00  0.00    -0.337 N 
HETATM    4  O   UNL     1      39.054 -11.845   6.482  1.00  0.00    -0.247 OA
HETATM    5  H   UNL     1      38.551 -14.154   6.243  1.00  0.00     0.170 HD
HETATM    6  H   UNL     1      41.751 -13.252   6.618  1.00  0.00     0.164 HD
ENDROOT
BRANCH   1   7
HETATM    7  C   UNL     1      40.234 -15.099   5.507  1.00  0.00     0.036 A 
HETATM    8  C   UNL     1      40.682 -16.157   6.291  1.00  0.00     0.032 A 
HETATM    9  C   UNL     1      41.371 -17.229   5.712  1.00  0.00     0.032 A 
HETATM   10  C   UNL     1      41.633 -17.269   4.340  1.00  0.00     0.041 A 
HETATM   11  C   UNL     1      41.222 -16.182   3.543  1.00  0.00    -0.033 A 
HETATM   12  C   UNL     1      41.482 -16.128   2.060  1.00  0.00     0.050 C 
HETATM   13  C   UNL     1      40.538 -15.104   4.141  1.00  0.00     0.038 A 
BRANCH  10  14
HETATM   14  N   UNL     1      42.272 -18.365   3.724  1.00  0.00    -0.321 N 
HETATM   15  C   UNL     1      43.569 -18.821   3.894  1.00  0.00     0.279 C 
HETATM   16  O   UNL     1      44.431 -18.271   4.572  1.00  0.00    -0.265 OA
HETATM   17  H   UNL     1      41.728 -18.922   3.073  1.00  0.00     0.169 HD
BRANCH  15  18
HETATM   18  C   UNL     1      43.825 -20.050   3.166  1.00  0.00     0.142 A 
HETATM   19  O   UNL     1      44.485 -21.078   3.794  1.00  0.00    -0.317 OA
HETATM   20  C   UNL     1      44.618 -22.081   2.887  1.00  0.00     0.143 A 
HETATM   21  C   UNL     1      44.045 -21.728   1.689  1.00  0.00     0.027 A 
HETATM   22  C   UNL     1      43.533 -20.419   1.867  1.00  0.00     0.045 A 
ENDBRANCH  15  18
ENDBRANCH  10  14
ENDBRANCH   1   7
BRANCH   3  23
HETATM   23  C   UNL     1      41.719 -11.164   6.831  1.00  0.00     0.108 C 
HETATM   24  C   UNL     1      41.254 -10.018   5.932  1.00  0.00     0.034 C 
BRANCH  23  25
HETATM   25  C   UNL     1      41.458 -10.904   8.345  1.00  0.00     0.259 C 
BRANCH  25  26
HETATM   26  N   UNL     1      42.650 -10.708   9.269  1.00  0.00    -0.069 N 
HETATM   27  H   UNL     1      42.953  -9.754   9.030  1.00  0.00     0.280 HD
HETATM   28  C   UNL     1      42.353 -10.680  10.742  1.00  0.00     0.239 C 
HETATM   29  C   UNL     1      43.551 -10.076  11.479  1.00  0.00     0.007 C 
HETATM   30  C   UNL     1      44.829 -10.870  11.176  1.00  0.00     0.007 C 
HETATM   31  C   UNL     1      43.286 -10.033  12.983  1.00  0.00     0.011 C 
HETATM   32  C   UNL     1      45.066 -10.998   9.673  1.00  0.00     0.028 C 
HETATM   33  C   UNL     1      43.850 -11.568   8.949  1.00  0.00     0.235 C 
ENDBRANCH  25  26
ENDBRANCH  23  25
ENDBRANCH   3  23
TORSDOF 6
ENDMDL
MODEL 2
REMARK VINA RESULT:      -8.8      3.347     11.085
REMARK  6 active torsions:
REMARK  status: ('A' for Active; 'I' for Inactive)
REMARK    1  A    between atoms: C_3  and  N_4 
REMARK       I    between atoms: N_4  and  C_5 
REMARK    2  A    between atoms: C_5  and  C_6 
REMARK    3  A    between atoms: C_14  and  N_15 
REMARK       I    between atoms: N_15  and  C_16 
REMARK       I    between atoms: C_16  and  N_17 
REMARK    4  A    between atoms: N_17  and  C_18 
REMARK    5  A    between atoms: C_18  and  C_19 
REMARK    6  A    between atoms: C_19  and  N_20 
ROOT
HETATM    1  N   UNL     1      45.137 -12.716   8.259  1.00  0.00    -0.309 N 
HETATM    2  C   UNL     1      44.899 -13.767   7.431  1.00  0.00     0.321 C 
HETATM    3  N   UNL     1      43.893 -14.625   7.776  1.00  0.00    -0.337 N 
HETATM    4  O   UNL     1      45.588 -13.943   6.431  1.00  0.00    -0.247 OA
HETATM    5  H   UNL     1      46.038 -12.285   8.071  1.00  0.00     0.170 HD
HETATM    6  H   UNL     1      43.800 -14.667   8.787  1.00  0.00     0.164 HD
ENDROOT
BRANCH   1   7
HETATM    7  C   UNL     1      44.389 -12.152   9.309  1.00  0.00     0.036 A 
HETATM    8  C   UNL     1      44.539 -12.500  10.648  1.00  0.00     0.032 A 
HETATM    9  C   UNL     1      43.763 -11.880  11.634  1.00  0.00     0.032 A 
HETATM   10  C   UNL     1      42.816 -10.905  11.308  1.00  0.00     0.041 A 
HETATM   11  C   UNL     1      42.625 -10.577   9.951  1.00  0.00    -0.033 A 
HETATM   12  C   UNL     1      41.612  -9.555   9.506  1.00  0.00     0.050 C 
HETATM   13  C   UNL     1      43.408 -11.216   8.968  1.00  0.00     0.038 A 
BRANCH  10  14
HETATM   14  N   UNL     1      42.064 -10.225  12.288  1.00  0.00    -0.321 N 
HETATM   15  C   UNL     1      42.515  -9.487  13.371  1.00  0.00     0.279 C 
HETATM   16  O   UNL     1      43.688  -9.372  13.712  1.00  0.00    -0.265 OA
HETATM   17  H   UNL     1      41.053 -10.250  12.208  1.00  0.00     0.169 HD
BRANCH  15  18
HETATM   18  C   UNL     1      41.433  -8.843  14.093  1.00  0.00     0.142 A 
HETATM   19  O   UNL     1      40.356  -8.355  13.395  1.00  0.00    -0.317 OA
HETATM   20  C   UNL     1      39.519  -7.783  14.299  1.00  0.00     0.143 A 
HETATM   21  C   UNL     1      40.026  -7.904  15.570  1.00  0.00     0.027 A 
HETATM   22  C   UNL     1      41.259  -8.587  15.440  1.00  0.00     0.045 A 
ENDBRANCH  15  18
ENDBRANCH  10  14
ENDBRANCH   1   7
BRANCH   3  23
HETATM   23  C   UNL     1      43.755 -15.914   7.098  1.00  0.00     0.108 C 
HETATM   24  C   UNL     1      43.465 -17.008   8.125  1.00  0.00     0.034 C 
BRANCH  23  25
HETATM   25  C   UNL     1      42.797 -15.952   5.870  1.00  0.00     0.259 C 
BRANCH  25  26
HETATM   26  N   UNL     1      43.308 -16.538   4.563  1.00  0.00    -0.069 N 
HETATM   27  H   UNL     1      44.322 -16.376   4.635  1.00  0.00     0.280 HD
HETATM   28  C   UNL     1      43.148 -18.023   4.392  1.00  0.00     0.239 C 
HETATM   29  C   UNL     1      44.058 -18.493   3.254  1.00  0.00     0.007 C 
HETATM   30  C   UNL     1      43.736 -17.738   1.957  1.00  0.00     0.007 C 
HETATM   31  C   UNL     1      43.920 -20.001   3.049  1.00  0.00     0.011 C 
HETATM   32  C   UNL     1      43.784 -16.225   2.162  1.00  0.00     0.028 C 
HETATM   33  C   UNL     1      42.900 -15.778   3.323  1.00  0.00     0.235 C 
ENDBRANCH  25  26
ENDBRANCH  23  25
ENDBRANCH   3  23
TORSDOF 6
ENDMDL
MODEL 3
REMARK VINA RESULT:      -8.7      1.993      2.954
REMARK  6 active torsions:
REMARK  status: ('A' for Active; 'I' for Inactive)
REMARK    1  A    between atoms: C_3  and  N_4 
REMARK       I    between atoms: N_4  and  C_5 
REMARK    2  A    between atoms: C_5  and  C_6 
REMARK    3  A    between atoms: C_14  and  N_15 
REMARK       I    between atoms: N_15  and  C_16 
REMARK       I    between atoms: C_16  and  N_17 
REMARK    4  A    between atoms: N_17  and  C_18 
REMARK    5  A    between atoms: C_18  and  C_19 
REMARK    6  A    between atoms: C_19  and  N_20 
ROOT
HETATM    1  N   UNL     1      41.528 -11.837   5.470  1.00  0.00    -0.309 N 
HETATM    2  C   UNL     1      41.281 -10.938   6.459  1.00  0.00     0.321 C 
HETATM    3  N   UNL     1      41.007 -11.431   7.704  1.00  0.00    -0.337 N 
HETATM    4  O   UNL     1      41.277  -9.734   6.223  1.00  0.00    -0.247 OA
HETATM    5  H   UNL     1      41.472 -11.410   4.550  1.00  0.00     0.170 HD
HETATM    6  H   UNL     1      40.548 -12.334   7.630  1.00  0.00     0.164 HD
ENDROOT
BRANCH   1   7
HETATM    7  C   UNL     1      41.818 -13.214   5.496  1.00  0.00     0.036 A 
HETATM    8  C   UNL     1      40.984 -14.197   4.974  1.00  0.00     0.032 A 
HETATM    9  C   UNL     1      41.354 -15.546   5.028  1.00  0.00     0.032 A 
HETATM   10  C   UNL     1      42.561 -15.946   5.609  1.00  0.00     0.041 A 
HETATM   11  C   UNL     1      43.393 -14.963   6.180  1.00  0.00    -0.033 A 
HETATM   12  C   UNL     1      44.700 -15.304   6.847  1.00  0.00     0.050 C 
HETATM   13  C   UNL     1      43.003 -13.609   6.126  1.00  0.00     0.038 A 
BRANCH  10  14
HETATM   14  N   UNL     1      42.983 -17.291   5.623  1.00  0.00    -0.321 N 
HETATM   15  C   UNL     1      43.672 -17.995   4.648  1.00  0.00     0.279 C 
HETATM   16  O   UNL     1      43.963 -17.567   3.536  1.00  0.00    -0.265 OA
HETATM   17  H   UNL     1      42.781 -17.840   6.453  1.00  0.00     0.169 HD
BRANCH  15  18
HETATM   18  C   UNL     1      44.025 -19.336   5.077  1.00  0.00     0.142 A 
HETATM   19  O   UNL     1      44.714 -20.157   4.218  1.00  0.00    -0.317 OA
HETATM   20  C   UNL     1      44.884 -21.346   4.852  1.00  0.00     0.143 A 
HETATM   21  C   UNL     1      44.330 -21.308   6.109  1.00  0.00     0.027 A 
HETATM   22  C   UNL     1      43.777 -20.012   6.256  1.00  0.00     0.045 A 
ENDBRANCH  15  18
ENDBRANCH  10  14
ENDBRANCH   1   7
BRANCH   3  23
HETATM   23  C   UNL     1      40.466 -10.556   8.744  1.00  0.00     0.108 C 
HETATM   24  C   UNL     1      39.094 -11.066   9.184  1.00  0.00     0.034 C 
BRANCH  23  25
HETATM   25  C   UNL     1      41.415 -10.229   9.937  1.00  0.00     0.259 C 
BRANCH  25  26
HETATM   26  N   UNL     1      42.578 -11.166  10.223  1.00  0.00    -0.069 N 
HETATM   27  H   UNL     1      42.173 -12.087  10.003  1.00  0.00     0.280 HD
HETATM   28  C   UNL     1      43.778 -11.029   9.328  1.00  0.00     0.239 C 
HETATM   29  C   UNL     1      44.652 -12.278   9.474  1.00  0.00     0.007 C 
HETATM   30  C   UNL     1      45.060 -12.485  10.939  1.00  0.00     0.007 C 
HETATM   31  C   UNL     1      45.885 -12.174   8.579  1.00  0.00     0.011 C 
HETATM   32  C   UNL     1      43.843 -12.507  11.863  1.00  0.00     0.028 C 
HETATM   33  C   UNL     1      42.965 -11.272  11.679  1.00  0.00     0.235 C 
ENDBRANCH  25  26
ENDBRANCH  23  25
ENDBRANCH   3  23
TORSDOF 6
ENDMDL
MODEL 4
REMARK VINA RESULT:      -8.6      3.877      9.850
REMARK  6 active torsions:
REMARK  status: ('A' for Active; 'I' for Inactive)
REMARK    1  A    between atoms: C_3  and  N_4 
REMARK       I    between atoms: N_4  and  C_5 
REMARK    2  A    between atoms: C_5  and  C_6 
REMARK    3  A    between atoms: C_14  and  N_15 
REMARK       I    between atoms: N_15  and  C_16 
REMARK       I    between atoms: C_16  and  N_17 
REMARK    4  A    between atoms: N_17  and  C_18 
REMARK    5  A    between atoms: C_18  and  C_19 
REMARK    6  A    between atoms: C_19  and  N_20 
ROOT
HETATM    1  N   UNL     1      43.134 -17.540   3.426  1.00  0.00    -0.309 N 
HETATM    2  C   UNL     1      42.428 -17.282   2.293  1.00  0.00     0.321 C 
HETATM    3  N   UNL     1      41.606 -16.190   2.298  1.00  0.00    -0.337 N 
HETATM    4  O   UNL     1      42.512 -18.026   1.321  1.00  0.00    -0.247 OA
HETATM    5  H   UNL     1      43.512 -18.482   3.427  1.00  0.00     0.170 HD
HETATM    6  H   UNL     1      41.255 -16.020   3.236  1.00  0.00     0.164 HD
ENDROOT
BRANCH   1   7
HETATM    7  C   UNL     1      43.405 -16.763   4.567  1.00  0.00     0.036 A 
HETATM    8  C   UNL     1      44.125 -17.218   5.667  1.00  0.00     0.032 A 
HETATM    9  C   UNL     1      44.362 -16.375   6.760  1.00  0.00     0.032 A 
HETATM   10  C   UNL     1      43.883 -15.062   6.782  1.00  0.00     0.041 A 
HETATM   11  C   UNL     1      43.115 -14.605   5.692  1.00  0.00    -0.033 A 
HETATM   12  C   UNL     1      42.540 -13.214   5.641  1.00  0.00     0.050 C 
HETATM   13  C   UNL     1      42.877 -15.468   4.603  1.00  0.00     0.038 A 
BRANCH  10  14
HETATM   14  N   UNL     1      44.159 -14.175   7.843  1.00  0.00    -0.321 N 
HETATM   15  C   UNL     1      45.189 -13.255   7.960  1.00  0.00     0.279 C 
HETATM   16  O   UNL     1      46.112 -13.119   7.164  1.00  0.00    -0.265 OA
HETATM   17  H   UNL     1      43.526 -14.179   8.637  1.00  0.00     0.169 HD
BRANCH  15  18
HETATM   18  C   UNL     1      45.074 -12.443   9.158  1.00  0.00     0.142 A 
HETATM   19  O   UNL     1      44.418 -12.950  10.253  1.00  0.00    -0.317 OA
HETATM   20  C   UNL     1      44.430 -11.984  11.208  1.00  0.00     0.143 A 
HETATM   21  C   UNL     1      45.091 -10.867  10.757  1.00  0.00     0.027 A 
HETATM   22  C   UNL     1      45.507 -11.161   9.436  1.00  0.00     0.045 A 
ENDBRANCH  15  18
ENDBRANCH  10  14
ENDBRANCH   1   7
BRANCH   3  23
HETATM   23  C   UNL     1      40.618 -16.003   1.236  1.00  0.00     0.108 C 
HETATM   24  C   UNL     1      39.318 -15.462   1.830  1.00  0.00     0.034 C 
BRANCH  23  25
HETATM   25  C   UNL     1      41.095 -15.215  -0.022  1.00  0.00     0.259 C 
BRANCH  25  26
HETATM   26  N   UNL     1      40.202 -15.197  -1.253  1.00  0.00    -0.069 N 
HETATM   27  H   UNL     1      39.493 -15.904  -1.017  1.00  0.00     0.280 HD
HETATM   28  C   UNL     1      39.439 -13.926  -1.503  1.00  0.00     0.239 C 
HETATM   29  C   UNL     1      38.313 -14.211  -2.501  1.00  0.00     0.007 C 
HETATM   30  C   UNL     1      38.879 -14.794  -3.803  1.00  0.00     0.007 C 
HETATM   31  C   UNL     1      37.514 -12.940  -2.781  1.00  0.00     0.011 C 
HETATM   32  C   UNL     1      39.753 -16.019  -3.536  1.00  0.00     0.028 C 
HETATM   33  C   UNL     1      40.847 -15.727  -2.513  1.00  0.00     0.235 C 
ENDBRANCH  25  26
ENDBRANCH  23  25
ENDBRANCH   3  23
TORSDOF 6
ENDMDL
MODEL 5
REMARK VINA RESULT:      -8.5      4.392      8.445
REMARK  6 active torsions:
REMARK  status: ('A' for Active; 'I' for Inactive)
REMARK    1  A    between atoms: C_3  and  N_4 
REMARK       I    between atoms: N_4  and  C_5 
REMARK    2  A    between atoms: C_5  and  C_6 
REMARK    3  A    between atoms: C_14  and  N_15 
REMARK       I    between atoms: N_15  and  C_16 
REMARK       I    between atoms: C_16  and  N_17 
REMARK    4  A    between atoms: N_17  and  C_18 
REMARK    5  A    between atoms: C_18  and  C_19 
REMARK    6  A    between atoms: C_19  and  N_20 
ROOT
HETATM    1  N   UNL     1      42.807 -14.043   4.734  1.00  0.00    -0.309 N 
HETATM    2  C   UNL     1      43.470 -14.867   5.588  1.00  0.00     0.321 C 
HETATM    3  N   UNL     1      43.393 -16.211   5.354  1.00  0.00    -0.337 N 
HETATM    4  O   UNL     1      44.084 -14.410   6.547  1.00  0.00    -0.247 OA
HETATM    5  H   UNL     1      42.708 -13.107   5.115  1.00  0.00     0.170 HD
HETATM    6  H   UNL     1      42.503 -16.441   4.920  1.00  0.00     0.164 HD
ENDROOT
BRANCH   1   7
HETATM    7  C   UNL     1      42.236 -14.259   3.466  1.00  0.00     0.036 A 
HETATM    8  C   UNL     1      42.897 -14.874   2.408  1.00  0.00     0.032 A 
HETATM    9  C   UNL     1      42.251 -15.062   1.180  1.00  0.00     0.032 A 
HETATM   10  C   UNL     1      40.935 -14.637   0.978  1.00  0.00     0.041 A 
HETATM   11  C   UNL     1      40.272 -13.974   2.029  1.00  0.00    -0.033 A 
HETATM   12  C   UNL     1      38.861 -13.462   1.894  1.00  0.00     0.050 C 
HETATM   13  C   UNL     1      40.938 -13.783   3.257  1.00  0.00     0.038 A 
BRANCH  10  14
HETATM   14  N   UNL     1      40.243 -14.869  -0.229  1.00  0.00    -0.321 N 
HETATM   15  C   UNL     1      40.396 -14.235  -1.452  1.00  0.00     0.279 C 
HETATM   16  O   UNL     1      41.129 -13.275  -1.667  1.00  0.00    -0.265 OA
HETATM   17  H   UNL     1      39.542 -15.602  -0.237  1.00  0.00     0.169 HD
BRANCH  15  18
HETATM   18  C   UNL     1      39.575 -14.830  -2.491  1.00  0.00     0.142 A 
HETATM   19  O   UNL     1      38.239 -14.519  -2.553  1.00  0.00    -0.317 OA
HETATM   20  C   UNL     1      37.711 -15.228  -3.584  1.00  0.00     0.143 A 
HETATM   21  C   UNL     1      38.681 -15.982  -4.199  1.00  0.00     0.027 A 
HETATM   22  C   UNL     1      39.883 -15.726  -3.497  1.00  0.00     0.045 A 
ENDBRANCH  15  18
ENDBRANCH  10  14
ENDBRANCH   1   7
BRANCH   3  23
HETATM   23  C   UNL     1      43.839 -17.166   6.369  1.00  0.00     0.108 C 
HETATM   24  C   UNL     1      42.731 -17.376   7.401  1.00  0.00     0.034 C 
BRANCH  23  25
HETATM   25  C   UNL     1      44.453 -18.498   5.843  1.00  0.00     0.259 C 
BRANCH  25  26
HETATM   26  N   UNL     1      44.148 -18.930   4.417  1.00  0.00    -0.069 N 
HETATM   27  H   UNL     1      44.817 -18.369   3.873  1.00  0.00     0.280 HD
HETATM   28  C   UNL     1      44.452 -20.362   4.077  1.00  0.00     0.239 C 
HETATM   29  C   UNL     1      44.483 -20.515   2.553  1.00  0.00     0.007 C 
HETATM   30  C   UNL     1      43.154 -20.058   1.936  1.00  0.00     0.007 C 
HETATM   31  C   UNL     1      44.788 -21.962   2.168  1.00  0.00     0.011 C 
HETATM   32  C   UNL     1      42.788 -18.642   2.379  1.00  0.00     0.028 C 
HETATM   33  C   UNL     1      42.796 -18.499   3.898  1.00  0.00     0.235 C 
ENDBRANCH  25  26
ENDBRANCH  23  25
ENDBRANCH   3  23
TORSDOF 6
ENDMDL
MODEL 6
REMARK VINA RESULT:      -8.5      4.945      8.277
REMARK  6 active torsions:
REMARK  status: ('A' for Active; 'I' for Inactive)
REMARK    1  A    between atoms: C_3  and  N_4 
REMARK       I    between atoms: N_4  and  C_5 
REMARK    2  A    between atoms: C_5  and  C_6 
REMARK    3  A    between atoms: C_14  and  N_15 
REMARK       I    between atoms: N_15  and  C_16 
REMARK       I    between atoms: C_16  and  N_17 
REMARK    4  A    between atoms: N_17  and  C_18 
REMARK    5  A    between atoms: C_18  and  C_19 
REMARK    6  A    between atoms: C_19  and  N_20 
ROOT
HETATM    1  N   UNL     1      39.912 -13.272   2.418  1.00  0.00    -0.309 N 
HETATM    2  C   UNL     1      39.903 -12.339   1.429  1.00  0.00     0.321 C 
HETATM    3  N   UNL     1      40.751 -12.531   0.375  1.00  0.00    -0.337 N 
HETATM    4  O   UNL     1      39.178 -11.352   1.507  1.00  0.00    -0.247 OA
HETATM    5  H   UNL     1      39.453 -12.933   3.258  1.00  0.00     0.170 HD
HETATM    6  H   UNL     1      41.584 -13.026   0.681  1.00  0.00     0.164 HD
ENDROOT
BRANCH   1   7
HETATM    7  C   UNL     1      40.445 -14.572   2.486  1.00  0.00     0.036 A 
HETATM    8  C   UNL     1      39.955 -15.655   1.764  1.00  0.00     0.032 A 
HETATM    9  C   UNL     1      40.553 -16.916   1.878  1.00  0.00     0.032 A 
HETATM   10  C   UNL     1      41.649 -17.126   2.719  1.00  0.00     0.041 A 
HETATM   11  C   UNL     1      42.127 -16.046   3.488  1.00  0.00    -0.033 A 
HETATM   12  C   UNL     1      43.289 -16.186   4.437  1.00  0.00     0.050 C 
HETATM   13  C   UNL     1      41.509 -14.785   3.369  1.00  0.00     0.038 A 
BRANCH  10  14
HETATM   14  N   UNL     1      42.306 -18.371   2.807  1.00  0.00    -0.321 N 
HETATM   15  C   UNL     1      43.325 -18.873   2.013  1.00  0.00     0.279 C 
HETATM   16  O   UNL     1      43.781 -18.326   1.014  1.00  0.00    -0.265 OA
HETATM   17  H   UNL     1      42.024 -19.001   3.551  1.00  0.00     0.169 HD
BRANCH  15  18
HETATM   18  C   UNL     1      43.818 -20.153   2.487  1.00  0.00     0.142 A 
HETATM   19  O   UNL     1      44.376 -20.237   3.740  1.00  0.00    -0.317 OA
HETATM   20  C   UNL     1      44.776 -21.523   3.913  1.00  0.00     0.143 A 
HETATM   21  C   UNL     1      44.477 -22.277   2.804  1.00  0.00     0.027 A 
HETATM   22  C   UNL     1      43.858 -21.395   1.884  1.00  0.00     0.045 A 
ENDBRANCH  15  18
ENDBRANCH  10  14
ENDBRANCH   1   7
BRANCH   3  23
HETATM   23  C   UNL     1      41.000 -11.452  -0.581  1.00  0.00     0.108 C 
HETATM   24  C   UNL     1      42.421 -10.919  -0.398  1.00  0.00     0.034 C 
BRANCH  23  25
HETATM   25  C   UNL     1      40.639 -11.747  -2.068  1.00  0.00     0.259 C 
BRANCH  25  26
HETATM   26  N   UNL     1      40.233 -13.160  -2.455  1.00  0.00    -0.069 N 
HETATM   27  H   UNL     1      40.063 -13.595  -1.537  1.00  0.00     0.280 HD
HETATM   28  C   UNL     1      38.941 -13.298  -3.211  1.00  0.00     0.239 C 
HETATM   29  C   UNL     1      38.486 -14.758  -3.155  1.00  0.00     0.007 C 
HETATM   30  C   UNL     1      39.571 -15.686  -3.718  1.00  0.00     0.007 C 
HETATM   31  C   UNL     1      37.174 -14.938  -3.917  1.00  0.00     0.011 C 
HETATM   32  C   UNL     1      40.915 -15.461  -3.026  1.00  0.00     0.028 C 
HETATM   33  C   UNL     1      41.336 -13.995  -3.061  1.00  0.00     0.235 C 
ENDBRANCH  25  26
ENDBRANCH  23  25
ENDBRANCH   3  23
TORSDOF 6
ENDMDL
MODEL 7
REMARK VINA RESULT:      -8.3      3.163      5.605
REMARK  6 active torsions:
REMARK  status: ('A' for Active; 'I' for Inactive)
REMARK    1  A    between atoms: C_3  and  N_4 
REMARK       I    between atoms: N_4  and  C_5 
REMARK    2  A    between atoms: C_5  and  C_6 
REMARK    3  A    between atoms: C_14  and  N_15 
REMARK       I    between atoms: N_15  and  C_16 
REMARK       I    between atoms: C_16  and  N_17 
REMARK    4  A    between atoms: N_17  and  C_18 
REMARK    5  A    between atoms: C_18  and  C_19 
REMARK    6  A    between atoms: C_19  and  N_20 
ROOT
HETATM    1  N   UNL     1      39.822 -14.142   6.268  1.00  0.00    -0.309 N 
HETATM    2  C   UNL     1      39.594 -12.877   5.828  1.00  0.00     0.321 C 
HETATM    3  N   UNL     1      40.344 -12.430   4.777  1.00  0.00    -0.337 N 
HETATM    4  O   UNL     1      38.763 -12.163   6.381  1.00  0.00    -0.247 OA
HETATM    5  H   UNL     1      39.415 -14.301   7.184  1.00  0.00     0.170 HD
HETATM    6  H   UNL     1      41.260 -12.869   4.789  1.00  0.00     0.164 HD
ENDROOT
BRANCH   1   7
HETATM    7  C   UNL     1      40.518 -15.227   5.703  1.00  0.00     0.036 A 
HETATM    8  C   UNL     1      41.289 -16.125   6.435  1.00  0.00     0.032 A 
HETATM    9  C   UNL     1      41.940 -17.187   5.797  1.00  0.00     0.032 A 
HETATM   10  C   UNL     1      41.842 -17.375   4.415  1.00  0.00     0.041 A 
HETATM   11  C   UNL     1      41.101 -16.446   3.659  1.00  0.00    -0.033 A 
HETATM   12  C   UNL     1      40.959 -16.557   2.163  1.00  0.00     0.050 C 
HETATM   13  C   UNL     1      40.458 -15.376   4.314  1.00  0.00     0.038 A 
BRANCH  10  14
HETATM   14  N   UNL     1      42.439 -18.471   3.758  1.00  0.00    -0.321 N 
HETATM   15  C   UNL     1      43.709 -18.999   3.929  1.00  0.00     0.279 C 
HETATM   16  O   UNL     1      44.582 -18.527   4.650  1.00  0.00    -0.265 OA
HETATM   17  H   UNL     1      41.883 -18.968   3.070  1.00  0.00     0.169 HD
BRANCH  15  18
HETATM   18  C   UNL     1      43.920 -20.202   3.145  1.00  0.00     0.142 A 
HETATM   19  O   UNL     1      44.566 -21.272   3.716  1.00  0.00    -0.317 OA
HETATM   20  C   UNL     1      44.655 -22.238   2.766  1.00  0.00     0.143 A 
HETATM   21  C   UNL     1      44.068 -21.821   1.595  1.00  0.00     0.027 A 
HETATM   22  C   UNL     1      43.593 -20.509   1.838  1.00  0.00     0.045 A 
ENDBRANCH  15  18
ENDBRANCH  10  14
ENDBRANCH   1   7
BRANCH   3  23
HETATM   23  C   UNL     1      40.356 -11.010   4.426  1.00  0.00     0.108 C 
HETATM   24  C   UNL     1      41.464 -10.296   5.200  1.00  0.00     0.034 C 
BRANCH  23  25
HETATM   25  C   UNL     1      40.351 -10.672   2.905  1.00  0.00     0.259 C 
BRANCH  25  26
HETATM   26  N   UNL     1      40.164 -11.804   1.906  1.00  0.00    -0.069 N 
HETATM   27  H   UNL     1      40.679 -12.574   2.353  1.00  0.00     0.280 HD
HETATM   28  C   UNL     1      38.759 -12.307   1.728  1.00  0.00     0.239 C 
HETATM   29  C   UNL     1      38.805 -13.671   1.033  1.00  0.00     0.007 C 
HETATM   30  C   UNL     1      39.543 -13.571  -0.309  1.00  0.00     0.007 C 
HETATM   31  C   UNL     1      37.392 -14.216   0.833  1.00  0.00     0.011 C 
HETATM   32  C   UNL     1      40.928 -12.948  -0.141  1.00  0.00     0.028 C 
HETATM   33  C   UNL     1      40.867 -11.607   0.584  1.00  0.00     0.235 C 
ENDBRANCH  25  26
ENDBRANCH  23  25
ENDBRANCH   3  23
TORSDOF 6
ENDMDL
MODEL 8
REMARK VINA RESULT:      -8.3      2.721     10.572
REMARK  6 active torsions:
REMARK  status: ('A' for Active; 'I' for Inactive)
REMARK    1  A    between atoms: C_3  and  N_4 
REMARK       I    between atoms: N_4  and  C_5 
REMARK    2  A    between atoms: C_5  and  C_6 
REMARK    3  A    between atoms: C_14  and  N_15 
REMARK       I    between atoms: N_15  and  C_16 
REMARK       I    between atoms: C_16  and  N_17 
REMARK    4  A    between atoms: N_17  and  C_18 
REMARK    5  A    between atoms: C_18  and  C_19 
REMARK    6  A    between atoms: C_19  and  N_20 
ROOT
HETATM    1  N   UNL     1      41.738 -11.813   6.030  1.00  0.00    -0.309 N 
HETATM    2  C   UNL     1      42.057 -13.036   5.529  1.00  0.00     0.321 C 
HETATM    3  N   UNL     1      42.608 -13.945   6.388  1.00  0.00    -0.337 N 
HETATM    4  O   UNL     1      41.880 -13.290   4.342  1.00  0.00    -0.247 OA
HETATM    5  H   UNL     1      41.575 -11.135   5.292  1.00  0.00     0.170 HD
HETATM    6  H   UNL     1      43.147 -13.467   7.105  1.00  0.00     0.164 HD
ENDROOT
BRANCH   1   7
HETATM    7  C   UNL     1      41.617 -11.335   7.348  1.00  0.00     0.036 A 
HETATM    8  C   UNL     1      40.409 -10.988   7.944  1.00  0.00     0.032 A 
HETATM    9  C   UNL     1      40.374 -10.532   9.267  1.00  0.00     0.032 A 
HETATM   10  C   UNL     1      41.543 -10.407  10.023  1.00  0.00     0.041 A 
HETATM   11  C   UNL     1      42.776 -10.714   9.416  1.00  0.00    -0.033 A 
HETATM   12  C   UNL     1      44.087 -10.588  10.147  1.00  0.00     0.050 C 
HETATM   13  C   UNL     1      42.796 -11.164   8.080  1.00  0.00     0.038 A 
BRANCH  10  14
HETATM   14  N   UNL     1      41.528 -10.007  11.376  1.00  0.00    -0.321 N 
HETATM   15  C   UNL     1      41.078 -10.708  12.484  1.00  0.00     0.279 C 
HETATM   16  O   UNL     1      40.521 -11.800  12.453  1.00  0.00    -0.265 OA
HETATM   17  H   UNL     1      41.904  -9.092  11.601  1.00  0.00     0.169 HD
BRANCH  15  18
HETATM   18  C   UNL     1      41.332 -10.003  13.727  1.00  0.00     0.142 A 
HETATM   19  O   UNL     1      40.545  -8.928  14.062  1.00  0.00    -0.317 OA
HETATM   20  C   UNL     1      41.014  -8.442  15.241  1.00  0.00     0.143 A 
HETATM   21  C   UNL     1      42.079  -9.190  15.683  1.00  0.00     0.027 A 
HETATM   22  C   UNL     1      42.284 -10.197  14.708  1.00  0.00     0.045 A 
ENDBRANCH  15  18
ENDBRANCH  10  14
ENDBRANCH   1   7
BRANCH   3  23
HETATM   23  C   UNL     1      43.227 -15.167   5.875  1.00  0.00     0.108 C 
HETATM   24  C   UNL     1      44.297 -15.652   6.852  1.00  0.00     0.034 C 
BRANCH  23  25
HETATM   25  C   UNL     1      42.254 -16.295   5.417  1.00  0.00     0.259 C 
BRANCH  25  26
HETATM   26  N   UNL     1      42.613 -17.112   4.185  1.00  0.00    -0.069 N 
HETATM   27  H   UNL     1      43.326 -16.523   3.735  1.00  0.00     0.280 HD
HETATM   28  C   UNL     1      43.281 -18.435   4.436  1.00  0.00     0.239 C 
HETATM   29  C   UNL     1      43.930 -18.918   3.136  1.00  0.00     0.007 C 
HETATM   30  C   UNL     1      42.887 -19.016   2.014  1.00  0.00     0.007 C 
HETATM   31  C   UNL     1      44.619 -20.265   3.352  1.00  0.00     0.011 C 
HETATM   32  C   UNL     1      42.126 -17.703   1.840  1.00  0.00     0.028 C 
HETATM   33  C   UNL     1      41.516 -17.218   3.152  1.00  0.00     0.235 C 
ENDBRANCH  25  26
ENDBRANCH  23  25
ENDBRANCH   3  23
TORSDOF 6
ENDMDL
MODEL 9
REMARK VINA RESULT:      -7.9      3.572     10.913
REMARK  6 active torsions:
REMARK  status: ('A' for Active; 'I' for Inactive)
REMARK    1  A    between atoms: C_3  and  N_4 
REMARK       I    between atoms: N_4  and  C_5 
REMARK    2  A    between atoms: C_5  and  C_6 
REMARK    3  A    between atoms: C_14  and  N_15 
REMARK       I    between atoms: N_15  and  C_16 
REMARK       I    between atoms: C_16  and  N_17 
REMARK    4  A    between atoms: N_17  and  C_18 
REMARK    5  A    between atoms: C_18  and  C_19 
REMARK    6  A    between atoms: C_19  and  N_20 
ROOT
HETATM    1  N   UNL     1      45.217 -12.621   8.575  1.00  0.00    -0.309 N 
HETATM    2  C   UNL     1      45.003 -13.465   7.531  1.00  0.00     0.321 C 
HETATM    3  N   UNL     1      43.782 -14.074   7.454  1.00  0.00    -0.337 N 
HETATM    4  O   UNL     1      45.891 -13.686   6.714  1.00  0.00    -0.247 OA
HETATM    5  H   UNL     1      46.204 -12.415   8.696  1.00  0.00     0.170 HD
HETATM    6  H   UNL     1      43.401 -14.216   8.385  1.00  0.00     0.164 HD
ENDROOT
BRANCH   1   7
HETATM    7  C   UNL     1      44.342 -12.020   9.499  1.00  0.00     0.036 A 
HETATM    8  C   UNL     1      44.354 -12.276  10.866  1.00  0.00     0.032 A 
HETATM    9  C   UNL     1      43.455 -11.624  11.719  1.00  0.00     0.032 A 
HETATM   10  C   UNL     1      42.522 -10.707  11.228  1.00  0.00     0.041 A 
HETATM   11  C   UNL     1      42.471 -10.473   9.840  1.00  0.00    -0.033 A 
HETATM   12  C   UNL     1      41.484  -9.519   9.220  1.00  0.00     0.050 C 
HETATM   13  C   UNL     1      43.376 -11.144   8.992  1.00  0.00     0.038 A 
BRANCH  10  14
HETATM   14  N   UNL     1      41.647  -9.994  12.074  1.00  0.00    -0.321 N 
HETATM   15  C   UNL     1      41.782  -8.711  12.579  1.00  0.00     0.279 C 
HETATM   16  O   UNL     1      42.765  -7.991  12.433  1.00  0.00    -0.265 OA
HETATM   17  H   UNL     1      40.787 -10.452  12.357  1.00  0.00     0.169 HD
BRANCH  15  18
HETATM   18  C   UNL     1      40.614  -8.283  13.328  1.00  0.00     0.142 A 
HETATM   19  O   UNL     1      39.420  -8.111  12.670  1.00  0.00    -0.317 OA
HETATM   20  C   UNL     1      38.516  -7.683  13.589  1.00  0.00     0.143 A 
HETATM   21  C   UNL     1      39.097  -7.588  14.831  1.00  0.00     0.027 A 
HETATM   22  C   UNL     1      40.449  -7.975  14.664  1.00  0.00     0.045 A 
ENDBRANCH  15  18
ENDBRANCH  10  14
ENDBRANCH   1   7
BRANCH   3  23
HETATM   23  C   UNL     1      43.569 -15.191   6.533  1.00  0.00     0.108 C 
HETATM   24  C   UNL     1      44.129 -16.476   7.143  1.00  0.00     0.034 C 
BRANCH  23  25
HETATM   25  C   UNL     1      42.127 -15.355   5.966  1.00  0.00     0.259 C 
BRANCH  25  26
HETATM   26  N   UNL     1      41.952 -15.595   4.474  1.00  0.00    -0.069 N 
HETATM   27  H   UNL     1      41.869 -16.620   4.429  1.00  0.00     0.280 HD
HETATM   28  C   UNL     1      40.689 -15.061   3.858  1.00  0.00     0.239 C 
HETATM   29  C   UNL     1      40.480 -15.729   2.496  1.00  0.00     0.007 C 
HETATM   30  C   UNL     1      41.695 -15.497   1.587  1.00  0.00     0.007 C 
HETATM   31  C   UNL     1      39.204 -15.208   1.837  1.00  0.00     0.011 C 
HETATM   32  C   UNL     1      42.993 -15.933   2.263  1.00  0.00     0.028 C 
HETATM   33  C   UNL     1      43.168 -15.285   3.634  1.00  0.00     0.235 C 
ENDBRANCH  25  26
ENDBRANCH  23  25
ENDBRANCH   3  23
TORSDOF 6
ENDMDL
MODEL 10
REMARK VINA RESULT:      -7.7      3.112     10.329
REMARK  6 active torsions:
REMARK  status: ('A' for Active; 'I' for Inactive)
REMARK    1  A    between atoms: C_3  and  N_4 
REMARK       I    between atoms: N_4  and  C_5 
REMARK    2  A    between atoms: C_5  and  C_6 
REMARK    3  A    between atoms: C_14  and  N_15 
REMARK       I    between atoms: N_15  and  C_16 
REMARK       I    between atoms: C_16  and  N_17 
REMARK    4  A    between atoms: N_17  and  C_18 
REMARK    5  A    between atoms: C_18  and  C_19 
REMARK    6  A    between atoms: C_19  and  N_20 
ROOT
HETATM    1  N   UNL     1      40.976 -12.794   5.064  1.00  0.00    -0.309 N 
HETATM    2  C   UNL     1      41.759 -13.892   4.893  1.00  0.00     0.321 C 
HETATM    3  N   UNL     1      42.447 -14.351   5.981  1.00  0.00    -0.337 N 
HETATM    4  O   UNL     1      41.859 -14.423   3.791  1.00  0.00    -0.247 OA
HETATM    5  H   UNL     1      40.709 -12.381   4.176  1.00  0.00     0.170 HD
HETATM    6  H   UNL     1      42.680 -13.579   6.599  1.00  0.00     0.164 HD
ENDROOT
BRANCH   1   7
HETATM    7  C   UNL     1      40.505 -12.141   6.218  1.00  0.00     0.036 A 
HETATM    8  C   UNL     1      39.499 -12.638   7.039  1.00  0.00     0.032 A 
HETATM    9  C   UNL     1      39.096 -11.931   8.179  1.00  0.00     0.032 A 
HETATM   10  C   UNL     1      39.685 -10.710   8.521  1.00  0.00     0.041 A 
HETATM   11  C   UNL     1      40.674 -10.176   7.672  1.00  0.00    -0.033 A 
HETATM   12  C   UNL     1      41.346  -8.856   7.951  1.00  0.00     0.050 C 
HETATM   13  C   UNL     1      41.062 -10.895   6.524  1.00  0.00     0.038 A 
BRANCH  10  14
HETATM   14  N   UNL     1      39.339 -10.008   9.694  1.00  0.00    -0.321 N 
HETATM   15  C   UNL     1      39.780 -10.215  10.992  1.00  0.00     0.279 C 
HETATM   16  O   UNL     1      40.508 -11.133  11.356  1.00  0.00    -0.265 OA
HETATM   17  H   UNL     1      38.691  -9.232   9.606  1.00  0.00     0.169 HD
BRANCH  15  18
HETATM   18  C   UNL     1      39.279  -9.212  11.915  1.00  0.00     0.142 A 
HETATM   19  O   UNL     1      39.984  -8.945  13.063  1.00  0.00    -0.317 OA
HETATM   20  C   UNL     1      39.286  -8.004  13.750  1.00  0.00     0.143 A 
HETATM   21  C   UNL     1      38.151  -7.647  13.063  1.00  0.00     0.027 A 
HETATM   22  C   UNL     1      38.146  -8.424  11.879  1.00  0.00     0.045 A 
ENDBRANCH  15  18
ENDBRANCH  10  14
ENDBRANCH   1   7
BRANCH   3  23
HETATM   23  C   UNL     1      43.510 -15.343   5.820  1.00  0.00     0.108 C 
HETATM   24  C   UNL     1      44.689 -14.989   6.726  1.00  0.00     0.034 C 
BRANCH  23  25
HETATM   25  C   UNL     1      43.082 -16.839   5.922  1.00  0.00     0.259 C 
BRANCH  25  26
HETATM   26  N   UNL     1      43.651 -17.831   4.920  1.00  0.00    -0.069 N 
HETATM   27  H   UNL     1      44.615 -17.491   4.802  1.00  0.00     0.280 HD
HETATM   28  C   UNL     1      43.779 -19.253   5.391  1.00  0.00     0.239 C 
HETATM   29  C   UNL     1      44.722 -20.005   4.448  1.00  0.00     0.007 C 
HETATM   30  C   UNL     1      44.213 -19.933   3.002  1.00  0.00     0.007 C 
HETATM   31  C   UNL     1      44.876 -21.458   4.895  1.00  0.00     0.011 C 
HETATM   32  C   UNL     1      43.971 -18.490   2.564  1.00  0.00     0.028 C 
HETATM   33  C   UNL     1      43.058 -17.745   3.533  1.00  0.00     0.235 C 
ENDBRANCH  25  26
ENDBRANCH  23  25
ENDBRANCH   3  23
TORSDOF 6
ENDMDL
