MODEL 1
REMARK VINA RESULT:      -8.1      0.000      0.000
REMARK  6 active torsions:
REMARK  status: ('A' for Active; 'I' for Inactive)
REMARK    1  A    between atoms: C_4  and  C_5 
REMARK    2  A    between atoms: C_5  and  N_6 
REMARK    3  A    between atoms: C_5  and  C_19 
REMARK       I    between atoms: N_6  and  C_7 
REMARK    4  A    between atoms: C_7  and  C_8 
REMARK       I    between atoms: C_19  and  N_20 
REMARK    5  A    between atoms: N_20  and  C_21 
REMARK    6  A    between atoms: C_21  and  C_22 
ROOT
HETATM    1  C   UNL     1      42.709 -18.227   2.764  1.00  0.00     0.210 C 
ENDROOT
BRANCH   1   2
HETATM    2  C   UNL     1      43.402 -19.582   2.816  1.00  0.00    -0.026 A 
HETATM    3  C   UNL     1      43.172 -20.531   1.805  1.00  0.00     0.010 A 
HETATM    4  C   UNL     1      43.812 -21.773   1.834  1.00  0.00     0.001 A 
HETATM    5  C   UNL     1      44.681 -22.089   2.876  1.00  0.00     0.000 A 
HETATM    6  C   UNL     1      44.906 -21.167   3.894  1.00  0.00     0.001 A 
HETATM    7  C   UNL     1      44.270 -19.925   3.866  1.00  0.00     0.010 A 
ENDBRANCH   1   2
BRANCH   1   8
HETATM    8  N   UNL     1      43.119 -17.351   3.864  1.00  0.00    -0.340 N 
HETATM    9  C   UNL     1      42.268 -16.582   4.616  1.00  0.00     0.253 C 
HETATM   10  O   UNL     1      41.053 -16.746   4.632  1.00  0.00    -0.268 OA
HETATM   11  H   UNL     1      44.114 -17.228   3.986  1.00  0.00     0.164 HD
BRANCH   9  12
HETATM   12  C   UNL     1      42.889 -15.590   5.519  1.00  0.00     0.047 A 
HETATM   13  C   UNL     1      42.367 -14.296   5.724  1.00  0.00     0.027 A 
HETATM   14  C   UNL     1      43.087 -13.472   6.587  1.00  0.00     0.138 A 
HETATM   15  C   UNL     1      41.231 -13.538   5.311  1.00  0.00     0.033 A 
HETATM   16  N   UNL     1      42.451 -12.263   6.658  1.00  0.00    -0.350 N 
HETATM   17  N   UNL     1      44.212 -13.768   7.261  1.00  0.00    -0.242 NA
HETATM   18  H   UNL     1      42.780 -11.492   7.222  1.00  0.00     0.166 HD
HETATM   19  C   UNL     1      41.319 -12.288   5.888  1.00  0.00     0.090 A 
HETATM   20  C   UNL     1      44.641 -15.031   7.057  1.00  0.00     0.120 A 
HETATM   21  C   UNL     1      44.039 -15.961   6.225  1.00  0.00     0.037 A 
ENDBRANCH   9  12
ENDBRANCH   1   8
BRANCH   1  22
HETATM   22  C   UNL     1      42.647 -17.636   1.326  1.00  0.00     0.245 C 
HETATM   23  N   UNL     1      41.461 -17.051   0.940  1.00  0.00    -0.354 N 
HETATM   24  H   UNL     1      40.811 -16.823   1.693  1.00  0.00     0.162 HD
HETATM   25  O   UNL     1      43.652 -17.594   0.609  1.00  0.00    -0.271 OA
BRANCH  23  26
HETATM   26  C   UNL     1      41.450 -16.180  -0.211  1.00  0.00     0.168 C 
BRANCH  26  27
HETATM   27  C   UNL     1      41.677 -14.756   0.183  1.00  0.00     0.000 A 
HETATM   28  S   UNL     1      41.744 -13.505  -0.991  1.00  0.00    -0.105 SA
HETATM   29  C   UNL     1      41.945 -12.301   0.204  1.00  0.00     0.050 A 
HETATM   30  C   UNL     1      41.939 -12.827   1.476  1.00  0.00     0.008 A 
HETATM   31  C   UNL     1      41.788 -14.244   1.462  1.00  0.00     0.017 A 
ENDBRANCH  26  27
ENDBRANCH  23  26
ENDBRANCH   1  22
TORSDOF 6
ENDMDL
MODEL 2
REMARK VINA RESULT:      -8.0      2.403      6.158
REMARK  6 active torsions:
REMARK  status: ('A' for Active; 'I' for Inactive)
REMARK    1  A    between atoms: C_4  and  C_5 
REMARK    2  A    between atoms: C_5  and  N_6 
REMARK    3  A    between atoms: C_5  and  C_19 
REMARK       I    between atoms: N_6  and  C_7 
REMARK    4  A    between atoms: C_7  and  C_8 
REMARK       I    between atoms: C_19  and  N_20 
REMARK    5  A    between atoms: N_20  and  C_21 
REMARK    6  A    between atoms: C_21  and  C_22 
ROOT
HETATM    1  C   UNL     1      41.890 -15.523   2.826  1.00  0.00     0.210 C 
ENDROOT
BRANCH   1   2
HETATM    2  C   UNL     1      41.076 -14.705   3.820  1.00  0.00    -0.026 A 
HETATM    3  C   UNL     1      40.952 -15.134   5.153  1.00  0.00     0.010 A 
HETATM    4  C   UNL     1      40.220 -14.385   6.078  1.00  0.00     0.001 A 
HETATM    5  C   UNL     1      39.594 -13.205   5.684  1.00  0.00     0.000 A 
HETATM    6  C   UNL     1      39.693 -12.774   4.364  1.00  0.00     0.001 A 
HETATM    7  C   UNL     1      40.426 -13.520   3.439  1.00  0.00     0.010 A 
ENDBRANCH   1   2
BRANCH   1   8
HETATM    8  N   UNL     1      42.597 -16.633   3.469  1.00  0.00    -0.340 N 
HETATM    9  C   UNL     1      43.570 -17.395   2.875  1.00  0.00     0.253 C 
HETATM   10  O   UNL     1      44.146 -17.063   1.844  1.00  0.00    -0.268 OA
HETATM   11  H   UNL     1      42.247 -16.918   4.372  1.00  0.00     0.164 HD
BRANCH   9  12
HETATM   12  C   UNL     1      43.996 -18.613   3.596  1.00  0.00     0.047 A 
HETATM   13  C   UNL     1      44.055 -19.887   2.996  1.00  0.00     0.027 A 
HETATM   14  C   UNL     1      44.451 -20.939   3.820  1.00  0.00     0.138 A 
HETATM   15  C   UNL     1      43.848 -20.457   1.703  1.00  0.00     0.033 A 
HETATM   16  N   UNL     1      44.439 -22.092   3.085  1.00  0.00    -0.350 N 
HETATM   17  N   UNL     1      44.799 -20.881   5.117  1.00  0.00    -0.242 NA
HETATM   18  H   UNL     1      44.689 -22.995   3.460  1.00  0.00     0.166 HD
HETATM   19  C   UNL     1      44.075 -21.814   1.793  1.00  0.00     0.090 A 
HETATM   20  C   UNL     1      44.764 -19.631   5.626  1.00  0.00     0.120 A 
HETATM   21  C   UNL     1      44.383 -18.492   4.935  1.00  0.00     0.037 A 
ENDBRANCH   9  12
ENDBRANCH   1   8
BRANCH   1  22
HETATM   22  C   UNL     1      41.124 -15.797   1.500  1.00  0.00     0.245 C 
HETATM   23  N   UNL     1      41.752 -15.435   0.328  1.00  0.00    -0.354 N 
HETATM   24  H   UNL     1      42.754 -15.255   0.397  1.00  0.00     0.162 HD
HETATM   25  O   UNL     1      40.054 -16.413   1.495  1.00  0.00    -0.271 OA
BRANCH  23  26
HETATM   26  C   UNL     1      41.276 -15.980  -0.921  1.00  0.00     0.168 C 
BRANCH  26  27
HETATM   27  C   UNL     1      40.822 -14.899  -1.848  1.00  0.00     0.000 A 
HETATM   28  S   UNL     1      39.578 -13.803  -1.401  1.00  0.00    -0.105 SA
HETATM   29  C   UNL     1      39.719 -12.938  -2.868  1.00  0.00     0.050 A 
HETATM   30  C   UNL     1      40.705 -13.452  -3.678  1.00  0.00     0.008 A 
HETATM   31  C   UNL     1      41.339 -14.585  -3.091  1.00  0.00     0.017 A 
ENDBRANCH  26  27
ENDBRANCH  23  26
ENDBRANCH   1  22
TORSDOF 6
ENDMDL
MODEL 3
REMARK VINA RESULT:      -8.0      3.524      7.794
REMARK  6 active torsions:
REMARK  status: ('A' for Active; 'I' for Inactive)
REMARK    1  A    between atoms: C_4  and  C_5 
REMARK    2  A    between atoms: C_5  and  N_6 
REMARK    3  A    between atoms: C_5  and  C_19 
REMARK       I    between atoms: N_6  and  C_7 
REMARK    4  A    between atoms: C_7  and  C_8 
REMARK       I    between atoms: C_19  and  N_20 
REMARK    5  A    between atoms: N_20  and  C_21 
REMARK    6  A    between atoms: C_21  and  C_22 
ROOT
HETATM    1  C   UNL     1      43.181 -14.689   6.267  1.00  0.00     0.210 C 
ENDROOT
BRANCH   1   2
HETATM    2  C   UNL     1      42.286 -13.889   5.330  1.00  0.00    -0.026 A 
HETATM    3  C   UNL     1      42.793 -13.404   4.112  1.00  0.00     0.010 A 
HETATM    4  C   UNL     1      41.979 -12.681   3.237  1.00  0.00     0.001 A 
HETATM    5  C   UNL     1      40.651 -12.422   3.569  1.00  0.00     0.000 A 
HETATM    6  C   UNL     1      40.137 -12.880   4.779  1.00  0.00     0.001 A 
HETATM    7  C   UNL     1      40.948 -13.605   5.653  1.00  0.00     0.010 A 
ENDBRANCH   1   2
BRANCH   1   8
HETATM    8  N   UNL     1      43.549 -15.990   5.705  1.00  0.00    -0.340 N 
HETATM    9  C   UNL     1      42.775 -17.121   5.766  1.00  0.00     0.253 C 
HETATM   10  O   UNL     1      41.583 -17.103   6.052  1.00  0.00    -0.268 OA
HETATM   11  H   UNL     1      44.493 -16.071   5.357  1.00  0.00     0.164 HD
BRANCH   9  12
HETATM   12  C   UNL     1      43.414 -18.389   5.355  1.00  0.00     0.047 A 
HETATM   13  C   UNL     1      43.675 -18.724   4.011  1.00  0.00     0.027 A 
HETATM   14  C   UNL     1      44.258 -19.970   3.789  1.00  0.00     0.138 A 
HETATM   15  C   UNL     1      43.542 -18.117   2.726  1.00  0.00     0.033 A 
HETATM   16  N   UNL     1      44.427 -20.134   2.442  1.00  0.00    -0.350 N 
HETATM   17  N   UNL     1      44.617 -20.886   4.706  1.00  0.00    -0.242 NA
HETATM   18  H   UNL     1      44.832 -20.961   2.027  1.00  0.00     0.166 HD
HETATM   19  C   UNL     1      43.996 -19.014   1.781  1.00  0.00     0.090 A 
HETATM   20  C   UNL     1      44.381 -20.493   5.976  1.00  0.00     0.120 A 
HETATM   21  C   UNL     1      43.801 -19.292   6.351  1.00  0.00     0.037 A 
ENDBRANCH   9  12
ENDBRANCH   1   8
BRANCH   1  22
HETATM   22  C   UNL     1      44.291 -13.822   6.927  1.00  0.00     0.245 C 
HETATM   23  N   UNL     1      43.898 -12.949   7.918  1.00  0.00    -0.354 N 
HETATM   24  H   UNL     1      42.972 -13.115   8.316  1.00  0.00     0.162 HD
HETATM   25  O   UNL     1      45.483 -13.992   6.653  1.00  0.00    -0.271 OA
BRANCH  23  26
HETATM   26  C   UNL     1      44.895 -12.398   8.804  1.00  0.00     0.168 C 
BRANCH  26  27
HETATM   27  C   UNL     1      44.289 -11.431   9.771  1.00  0.00     0.000 A 
HETATM   28  S   UNL     1      42.799 -10.650   9.435  1.00  0.00    -0.105 SA
HETATM   29  C   UNL     1      42.800  -9.849  10.945  1.00  0.00     0.050 A 
HETATM   30  C   UNL     1      43.898 -10.181  11.705  1.00  0.00     0.008 A 
HETATM   31  C   UNL     1      44.758 -11.092  11.026  1.00  0.00     0.017 A 
ENDBRANCH  26  27
ENDBRANCH  23  26
ENDBRANCH   1  22
TORSDOF 6
ENDMDL
MODEL 4
REMARK VINA RESULT:      -8.0      2.123      5.050
REMARK  6 active torsions:
REMARK  status: ('A' for Active; 'I' for Inactive)
REMARK    1  A    between atoms: C_4  and  C_5 
REMARK    2  A    between atoms: C_5  and  N_6 
REMARK    3  A    between atoms: C_5  and  C_19 
REMARK       I    between atoms: N_6  and  C_7 
REMARK    4  A    between atoms: C_7  and  C_8 
REMARK       I    between atoms: C_19  and  N_20 
REMARK    5  A    between atoms: N_20  and  C_21 
REMARK    6  A    between atoms: C_21  and  C_22 
ROOT
HETATM    1  C   UNL     1      43.670 -17.949   3.345  1.00  0.00     0.210 C 
ENDROOT
BRANCH   1   2
HETATM    2  C   UNL     1      43.905 -19.431   3.081  1.00  0.00    -0.026 A 
HETATM    3  C   UNL     1      44.624 -20.207   4.006  1.00  0.00     0.010 A 
HETATM    4  C   UNL     1      44.835 -21.570   3.783  1.00  0.00     0.001 A 
HETATM    5  C   UNL     1      44.341 -22.175   2.630  1.00  0.00     0.000 A 
HETATM    6  C   UNL     1      43.640 -21.417   1.695  1.00  0.00     0.001 A 
HETATM    7  C   UNL     1      43.427 -20.056   1.917  1.00  0.00     0.010 A 
ENDBRANCH   1   2
BRANCH   1   8
HETATM    8  N   UNL     1      43.101 -17.262   2.183  1.00  0.00    -0.340 N 
HETATM    9  C   UNL     1      42.967 -15.903   2.061  1.00  0.00     0.253 C 
HETATM   10  O   UNL     1      43.551 -15.104   2.785  1.00  0.00    -0.268 OA
HETATM   11  H   UNL     1      42.676 -17.852   1.483  1.00  0.00     0.164 HD
BRANCH   9  12
HETATM   12  C   UNL     1      42.159 -15.412   0.926  1.00  0.00     0.047 A 
HETATM   13  C   UNL     1      41.765 -14.066   0.779  1.00  0.00     0.027 A 
HETATM   14  C   UNL     1      40.981 -13.771  -0.334  1.00  0.00     0.138 A 
HETATM   15  C   UNL     1      41.968 -12.827   1.458  1.00  0.00     0.033 A 
HETATM   16  N   UNL     1      40.683 -12.437  -0.310  1.00  0.00    -0.350 N 
HETATM   17  N   UNL     1      40.568 -14.614  -1.297  1.00  0.00    -0.242 NA
HETATM   18  H   UNL     1      40.123 -11.978  -1.015  1.00  0.00     0.166 HD
HETATM   19  C   UNL     1      41.278 -11.848   0.775  1.00  0.00     0.090 A 
HETATM   20  C   UNL     1      41.009 -15.878  -1.126  1.00  0.00     0.120 A 
HETATM   21  C   UNL     1      41.785 -16.324  -0.068  1.00  0.00     0.037 A 
ENDBRANCH   9  12
ENDBRANCH   1   8
BRANCH   1  22
HETATM   22  C   UNL     1      43.053 -17.677   4.747  1.00  0.00     0.245 C 
HETATM   23  N   UNL     1      43.553 -16.605   5.454  1.00  0.00    -0.354 N 
HETATM   24  H   UNL     1      44.098 -15.931   4.914  1.00  0.00     0.162 HD
HETATM   25  O   UNL     1      42.082 -18.322   5.154  1.00  0.00    -0.271 OA
BRANCH  23  26
HETATM   26  C   UNL     1      42.797 -16.085   6.567  1.00  0.00     0.168 C 
BRANCH  26  27
HETATM   27  C   UNL     1      41.833 -15.032   6.126  1.00  0.00     0.000 A 
HETATM   28  S   UNL     1      42.358 -13.442   5.748  1.00  0.00    -0.105 SA
HETATM   29  C   UNL     1      40.781 -12.951   5.309  1.00  0.00     0.050 A 
HETATM   30  C   UNL     1      39.870 -13.976   5.423  1.00  0.00     0.008 A 
HETATM   31  C   UNL     1      40.477 -15.175   5.897  1.00  0.00     0.017 A 
ENDBRANCH  26  27
ENDBRANCH  23  26
ENDBRANCH   1  22
TORSDOF 6
ENDMDL
MODEL 5
REMARK VINA RESULT:      -7.7      0.896      2.165
REMARK  6 active torsions:
REMARK  status: ('A' for Active; 'I' for Inactive)
REMARK    1  A    between atoms: C_4  and  C_5 
REMARK    2  A    between atoms: C_5  and  N_6 
REMARK    3  A    between atoms: C_5  and  C_19 
REMARK       I    between atoms: N_6  and  C_7 
REMARK    4  A    between atoms: C_7  and  C_8 
REMARK       I    between atoms: C_19  and  N_20 
REMARK    5  A    between atoms: N_20  and  C_21 
REMARK    6  A    between atoms: C_21  and  C_22 
ROOT
HETATM    1  C   UNL     1      42.176 -17.599   2.504  1.00  0.00     0.210 C 
ENDROOT
BRANCH   1   2
HETATM    2  C   UNL     1      43.072 -18.779   2.855  1.00  0.00    -0.026 A 
HETATM    3  C   UNL     1      43.815 -18.769   4.048  1.00  0.00     0.010 A 
HETATM    4  C   UNL     1      44.631 -19.851   4.389  1.00  0.00     0.001 A 
HETATM    5  C   UNL     1      44.725 -20.951   3.541  1.00  0.00     0.000 A 
HETATM    6  C   UNL     1      44.009 -20.970   2.347  1.00  0.00     0.001 A 
HETATM    7  C   UNL     1      43.191 -19.891   2.006  1.00  0.00     0.010 A 
ENDBRANCH   1   2
BRANCH   1   8
HETATM    8  N   UNL     1      42.234 -16.538   3.512  1.00  0.00    -0.340 N 
HETATM    9  C   UNL     1      41.271 -15.580   3.702  1.00  0.00     0.253 C 
HETATM   10  O   UNL     1      40.138 -15.666   3.239  1.00  0.00    -0.268 OA
HETATM   11  H   UNL     1      43.105 -16.451   4.014  1.00  0.00     0.164 HD
BRANCH   9  12
HETATM   12  C   UNL     1      41.614 -14.459   4.602  1.00  0.00     0.047 A 
HETATM   13  C   UNL     1      42.644 -14.525   5.563  1.00  0.00     0.027 A 
HETATM   14  C   UNL     1      42.823 -13.391   6.352  1.00  0.00     0.138 A 
HETATM   15  C   UNL     1      43.645 -15.454   5.975  1.00  0.00     0.033 A 
HETATM   16  N   UNL     1      43.844 -13.633   7.229  1.00  0.00    -0.350 N 
HETATM   17  N   UNL     1      42.141 -12.234   6.297  1.00  0.00    -0.242 NA
HETATM   18  H   UNL     1      44.166 -12.959   7.910  1.00  0.00     0.166 HD
HETATM   19  C   UNL     1      44.356 -14.885   7.011  1.00  0.00     0.090 A 
HETATM   20  C   UNL     1      41.197 -12.214   5.333  1.00  0.00     0.120 A 
HETATM   21  C   UNL     1      40.897 -13.264   4.480  1.00  0.00     0.037 A 
ENDBRANCH   9  12
ENDBRANCH   1   8
BRANCH   1  22
HETATM   22  C   UNL     1      42.260 -17.203   1.002  1.00  0.00     0.245 C 
HETATM   23  N   UNL     1      41.139 -16.633   0.440  1.00  0.00    -0.354 N 
HETATM   24  H   UNL     1      40.440 -16.284   1.098  1.00  0.00     0.162 HD
HETATM   25  O   UNL     1      43.321 -17.293   0.376  1.00  0.00    -0.271 OA
BRANCH  23  26
HETATM   26  C   UNL     1      41.263 -15.923  -0.811  1.00  0.00     0.168 C 
BRANCH  26  27
HETATM   27  C   UNL     1      41.536 -14.471  -0.587  1.00  0.00     0.000 A 
HETATM   28  S   UNL     1      41.605 -13.364  -1.897  1.00  0.00    -0.105 SA
HETATM   29  C   UNL     1      41.867 -12.038  -0.851  1.00  0.00     0.050 A 
HETATM   30  C   UNL     1      41.880 -12.417   0.472  1.00  0.00     0.008 A 
HETATM   31  C   UNL     1      41.693 -13.821   0.623  1.00  0.00     0.017 A 
ENDBRANCH  26  27
ENDBRANCH  23  26
ENDBRANCH   1  22
TORSDOF 6
ENDMDL
MODEL 6
REMARK VINA RESULT:      -7.7      3.486      7.377
REMARK  6 active torsions:
REMARK  status: ('A' for Active; 'I' for Inactive)
REMARK    1  A    between atoms: C_4  and  C_5 
REMARK    2  A    between atoms: C_5  and  N_6 
REMARK    3  A    between atoms: C_5  and  C_19 
REMARK       I    between atoms: N_6  and  C_7 
REMARK    4  A    between atoms: C_7  and  C_8 
REMARK       I    between atoms: C_19  and  N_20 
REMARK    5  A    between atoms: N_20  and  C_21 
REMARK    6  A    between atoms: C_21  and  C_22 
ROOT
HETATM    1  C   UNL     1      42.297 -15.047   1.038  1.00  0.00     0.210 C 
ENDROOT
BRANCH   1   2
HETATM    2  C   UNL     1      42.575 -16.511   1.352  1.00  0.00    -0.026 A 
HETATM    3  C   UNL     1      43.879 -16.930   1.664  1.00  0.00     0.010 A 
HETATM    4  C   UNL     1      44.146 -18.268   1.968  1.00  0.00     0.001 A 
HETATM    5  C   UNL     1      43.117 -19.207   1.954  1.00  0.00     0.000 A 
HETATM    6  C   UNL     1      41.822 -18.811   1.631  1.00  0.00     0.001 A 
HETATM    7  C   UNL     1      41.554 -17.475   1.330  1.00  0.00     0.010 A 
ENDBRANCH   1   2
BRANCH   1   8
HETATM    8  N   UNL     1      41.222 -14.885   0.056  1.00  0.00    -0.340 N 
HETATM    9  C   UNL     1      41.200 -13.939  -0.937  1.00  0.00     0.253 C 
HETATM   10  O   UNL     1      42.193 -13.307  -1.284  1.00  0.00    -0.268 OA
HETATM   11  H   UNL     1      40.393 -15.440   0.210  1.00  0.00     0.164 HD
BRANCH   9  12
HETATM   12  C   UNL     1      39.931 -13.778  -1.677  1.00  0.00     0.047 A 
HETATM   13  C   UNL     1      39.519 -14.647  -2.707  1.00  0.00     0.027 A 
HETATM   14  C   UNL     1      38.307 -14.342  -3.324  1.00  0.00     0.138 A 
HETATM   15  C   UNL     1      39.986 -15.845  -3.329  1.00  0.00     0.033 A 
HETATM   16  N   UNL     1      38.073 -15.272  -4.299  1.00  0.00    -0.350 N 
HETATM   17  N   UNL     1      37.474 -13.325  -3.043  1.00  0.00    -0.242 NA
HETATM   18  H   UNL     1      37.253 -15.266  -4.889  1.00  0.00     0.166 HD
HETATM   19  C   UNL     1      39.086 -16.194  -4.313  1.00  0.00     0.090 A 
HETATM   20  C   UNL     1      37.900 -12.551  -2.021  1.00  0.00     0.120 A 
HETATM   21  C   UNL     1      39.082 -12.724  -1.321  1.00  0.00     0.037 A 
ENDBRANCH   9  12
ENDBRANCH   1   8
BRANCH   1  22
HETATM   22  C   UNL     1      42.287 -14.149   2.308  1.00  0.00     0.245 C 
HETATM   23  N   UNL     1      41.593 -14.618   3.402  1.00  0.00    -0.354 N 
HETATM   24  H   UNL     1      41.358 -15.612   3.387  1.00  0.00     0.162 HD
HETATM   25  O   UNL     1      42.965 -13.119   2.367  1.00  0.00    -0.271 OA
BRANCH  23  26
HETATM   26  C   UNL     1      41.841 -14.030   4.696  1.00  0.00     0.168 C 
BRANCH  26  27
HETATM   27  C   UNL     1      42.276 -15.061   5.687  1.00  0.00     0.000 A 
HETATM   28  S   UNL     1      41.266 -16.386   6.098  1.00  0.00    -0.105 SA
HETATM   29  C   UNL     1      42.445 -17.049   7.142  1.00  0.00     0.050 A 
HETATM   30  C   UNL     1      43.596 -16.296   7.167  1.00  0.00     0.008 A 
HETATM   31  C   UNL     1      43.497 -15.147   6.330  1.00  0.00     0.017 A 
ENDBRANCH  26  27
ENDBRANCH  23  26
ENDBRANCH   1  22
TORSDOF 6
ENDMDL
MODEL 7
REMARK VINA RESULT:      -7.7      3.252      7.982
REMARK  6 active torsions:
REMARK  status: ('A' for Active; 'I' for Inactive)
REMARK    1  A    between atoms: C_4  and  C_5 
REMARK    2  A    between atoms: C_5  and  N_6 
REMARK    3  A    between atoms: C_5  and  C_19 
REMARK       I    between atoms: N_6  and  C_7 
REMARK    4  A    between atoms: C_7  and  C_8 
REMARK       I    between atoms: C_19  and  N_20 
REMARK    5  A    between atoms: N_20  and  C_21 
REMARK    6  A    between atoms: C_21  and  C_22 
ROOT
HETATM    1  C   UNL     1      42.368 -14.405   5.537  1.00  0.00     0.210 C 
ENDROOT
BRANCH   1   2
HETATM    2  C   UNL     1      41.369 -13.359   5.061  1.00  0.00    -0.026 A 
HETATM    3  C   UNL     1      40.069 -13.331   5.596  1.00  0.00     0.010 A 
HETATM    4  C   UNL     1      39.147 -12.368   5.178  1.00  0.00     0.001 A 
HETATM    5  C   UNL     1      39.504 -11.428   4.215  1.00  0.00     0.000 A 
HETATM    6  C   UNL     1      40.781 -11.453   3.663  1.00  0.00     0.001 A 
HETATM    7  C   UNL     1      41.705 -12.412   4.080  1.00  0.00     0.010 A 
ENDBRANCH   1   2
BRANCH   1   8
HETATM    8  N   UNL     1      42.499 -15.518   4.594  1.00  0.00    -0.340 N 
HETATM    9  C   UNL     1      42.365 -16.844   4.918  1.00  0.00     0.253 C 
HETATM   10  O   UNL     1      41.856 -17.230   5.965  1.00  0.00    -0.268 OA
HETATM   11  H   UNL     1      42.826 -15.279   3.669  1.00  0.00     0.164 HD
BRANCH   9  12
HETATM   12  C   UNL     1      42.763 -17.826   3.888  1.00  0.00     0.047 A 
HETATM   13  C   UNL     1      43.662 -18.883   4.132  1.00  0.00     0.027 A 
HETATM   14  C   UNL     1      43.956 -19.706   3.046  1.00  0.00     0.138 A 
HETATM   15  C   UNL     1      44.386 -19.419   5.239  1.00  0.00     0.033 A 
HETATM   16  N   UNL     1      44.845 -20.660   3.456  1.00  0.00    -0.350 N 
HETATM   17  N   UNL     1      43.471 -19.622   1.795  1.00  0.00    -0.242 NA
HETATM   18  H   UNL     1      45.213 -21.378   2.848  1.00  0.00     0.166 HD
HETATM   19  C   UNL     1      45.117 -20.499   4.790  1.00  0.00     0.090 A 
HETATM   20  C   UNL     1      42.584 -18.617   1.632  1.00  0.00     0.120 A 
HETATM   21  C   UNL     1      42.201 -17.715   2.610  1.00  0.00     0.037 A 
ENDBRANCH   9  12
ENDBRANCH   1   8
BRANCH   1  22
HETATM   22  C   UNL     1      43.662 -13.777   6.130  1.00  0.00     0.245 C 
HETATM   23  N   UNL     1      43.583 -13.267   7.408  1.00  0.00    -0.354 N 
HETATM   24  H   UNL     1      42.772 -13.562   7.955  1.00  0.00     0.162 HD
HETATM   25  O   UNL     1      44.737 -13.837   5.525  1.00  0.00    -0.271 OA
BRANCH  23  26
HETATM   26  C   UNL     1      44.800 -13.012   8.139  1.00  0.00     0.168 C 
BRANCH  26  27
HETATM   27  C   UNL     1      44.583 -12.004   9.222  1.00  0.00     0.000 A 
HETATM   28  S   UNL     1      43.220 -10.961   9.210  1.00  0.00    -0.105 SA
HETATM   29  C   UNL     1      43.667 -10.249  10.698  1.00  0.00     0.050 A 
HETATM   30  C   UNL     1      44.816 -10.804  11.213  1.00  0.00     0.008 A 
HETATM   31  C   UNL     1      45.346 -11.814  10.359  1.00  0.00     0.017 A 
ENDBRANCH  26  27
ENDBRANCH  23  26
ENDBRANCH   1  22
TORSDOF 6
ENDMDL
MODEL 8
REMARK VINA RESULT:      -7.6      2.335      5.886
REMARK  6 active torsions:
REMARK  status: ('A' for Active; 'I' for Inactive)
REMARK    1  A    between atoms: C_4  and  C_5 
REMARK    2  A    between atoms: C_5  and  N_6 
REMARK    3  A    between atoms: C_5  and  C_19 
REMARK       I    between atoms: N_6  and  C_7 
REMARK    4  A    between atoms: C_7  and  C_8 
REMARK       I    between atoms: C_19  and  N_20 
REMARK    5  A    between atoms: N_20  and  C_21 
REMARK    6  A    between atoms: C_21  and  C_22 
ROOT
HETATM    1  C   UNL     1      42.403 -15.461   2.500  1.00  0.00     0.210 C 
ENDROOT
BRANCH   1   2
HETATM    2  C   UNL     1      41.925 -14.574   3.641  1.00  0.00    -0.026 A 
HETATM    3  C   UNL     1      42.263 -13.210   3.663  1.00  0.00     0.010 A 
HETATM    4  C   UNL     1      41.819 -12.381   4.697  1.00  0.00     0.001 A 
HETATM    5  C   UNL     1      41.042 -12.903   5.728  1.00  0.00     0.000 A 
HETATM    6  C   UNL     1      40.712 -14.256   5.730  1.00  0.00     0.001 A 
HETATM    7  C   UNL     1      41.152 -15.085   4.697  1.00  0.00     0.010 A 
ENDBRANCH   1   2
BRANCH   1   8
HETATM    8  N   UNL     1      42.943 -16.737   2.978  1.00  0.00    -0.340 N 
HETATM    9  C   UNL     1      43.757 -17.568   2.252  1.00  0.00     0.253 C 
HETATM   10  O   UNL     1      44.341 -17.212   1.234  1.00  0.00    -0.268 OA
HETATM   11  H   UNL     1      42.584 -17.067   3.862  1.00  0.00     0.164 HD
BRANCH   9  12
HETATM   12  C   UNL     1      44.004 -18.914   2.810  1.00  0.00     0.047 A 
HETATM   13  C   UNL     1      44.138 -19.167   4.190  1.00  0.00     0.027 A 
HETATM   14  C   UNL     1      44.397 -20.487   4.553  1.00  0.00     0.138 A 
HETATM   15  C   UNL     1      44.052 -18.433   5.412  1.00  0.00     0.033 A 
HETATM   16  N   UNL     1      44.509 -20.547   5.914  1.00  0.00    -0.350 N 
HETATM   17  N   UNL     1      44.517 -21.554   3.744  1.00  0.00    -0.242 NA
HETATM   18  H   UNL     1      44.697 -21.400   6.422  1.00  0.00     0.166 HD
HETATM   19  C   UNL     1      44.301 -19.304   6.452  1.00  0.00     0.090 A 
HETATM   20  C   UNL     1      44.338 -21.259   2.438  1.00  0.00     0.120 A 
HETATM   21  C   UNL     1      44.085 -19.996   1.927  1.00  0.00     0.037 A 
ENDBRANCH   9  12
ENDBRANCH   1   8
BRANCH   1  22
HETATM   22  C   UNL     1      41.422 -15.474   1.293  1.00  0.00     0.245 C 
HETATM   23  N   UNL     1      41.972 -15.343   0.037  1.00  0.00    -0.354 N 
HETATM   24  H   UNL     1      42.979 -15.502  -0.027  1.00  0.00     0.162 HD
HETATM   25  O   UNL     1      40.219 -15.705   1.450  1.00  0.00    -0.271 OA
BRANCH  23  26
HETATM   26  C   UNL     1      41.184 -15.706  -1.116  1.00  0.00     0.168 C 
BRANCH  26  27
HETATM   27  C   UNL     1      40.912 -14.520  -1.985  1.00  0.00     0.000 A 
HETATM   28  S   UNL     1      39.814 -13.293  -1.501  1.00  0.00    -0.105 SA
HETATM   29  C   UNL     1      40.120 -12.370  -2.906  1.00  0.00     0.050 A 
HETATM   30  C   UNL     1      41.054 -12.966  -3.723  1.00  0.00     0.008 A 
HETATM   31  C   UNL     1      41.508 -14.208  -3.192  1.00  0.00     0.017 A 
ENDBRANCH  26  27
ENDBRANCH  23  26
ENDBRANCH   1  22
TORSDOF 6
ENDMDL
MODEL 9
REMARK VINA RESULT:      -7.6      2.536      5.406
REMARK  6 active torsions:
REMARK  status: ('A' for Active; 'I' for Inactive)
REMARK    1  A    between atoms: C_4  and  C_5 
REMARK    2  A    between atoms: C_5  and  N_6 
REMARK    3  A    between atoms: C_5  and  C_19 
REMARK       I    between atoms: N_6  and  C_7 
REMARK    4  A    between atoms: C_7  and  C_8 
REMARK       I    between atoms: C_19  and  N_20 
REMARK    5  A    between atoms: N_20  and  C_21 
REMARK    6  A    between atoms: C_21  and  C_22 
ROOT
HETATM    1  C   UNL     1      43.187 -16.587   2.970  1.00  0.00     0.210 C 
ENDROOT
BRANCH   1   2
HETATM    2  C   UNL     1      43.542 -18.067   2.927  1.00  0.00    -0.026 A 
HETATM    3  C   UNL     1      43.159 -18.852   1.826  1.00  0.00     0.010 A 
HETATM    4  C   UNL     1      43.490 -20.208   1.767  1.00  0.00     0.001 A 
HETATM    5  C   UNL     1      44.198 -20.802   2.809  1.00  0.00     0.000 A 
HETATM    6  C   UNL     1      44.570 -20.042   3.915  1.00  0.00     0.001 A 
HETATM    7  C   UNL     1      44.242 -18.687   3.975  1.00  0.00     0.010 A 
ENDBRANCH   1   2
BRANCH   1   8
HETATM    8  N   UNL     1      42.485 -16.149   1.762  1.00  0.00    -0.340 N 
HETATM    9  C   UNL     1      42.116 -14.856   1.492  1.00  0.00     0.253 C 
HETATM   10  O   UNL     1      42.569 -13.889   2.095  1.00  0.00    -0.268 OA
HETATM   11  H   UNL     1      42.153 -16.881   1.152  1.00  0.00     0.164 HD
BRANCH   9  12
HETATM   12  C   UNL     1      41.212 -14.647   0.341  1.00  0.00     0.047 A 
HETATM   13  C   UNL     1      39.826 -14.428   0.475  1.00  0.00     0.027 A 
HETATM   14  C   UNL     1      39.109 -14.277  -0.711  1.00  0.00     0.138 A 
HETATM   15  C   UNL     1      38.878 -14.274   1.531  1.00  0.00     0.033 A 
HETATM   16  N   UNL     1      37.791 -14.088  -0.396  1.00  0.00    -0.350 N 
HETATM   17  N   UNL     1      39.583 -14.298  -1.968  1.00  0.00    -0.242 NA
HETATM   18  H   UNL     1      37.067 -13.954  -1.087  1.00  0.00     0.166 HD
HETATM   19  C   UNL     1      37.635 -14.083   0.965  1.00  0.00     0.090 A 
HETATM   20  C   UNL     1      40.921 -14.469  -2.032  1.00  0.00     0.120 A 
HETATM   21  C   UNL     1      41.763 -14.643  -0.946  1.00  0.00     0.037 A 
ENDBRANCH   9  12
ENDBRANCH   1   8
BRANCH   1  22
HETATM   22  C   UNL     1      42.636 -16.139   4.355  1.00  0.00     0.245 C 
HETATM   23  N   UNL     1      43.169 -14.990   4.899  1.00  0.00    -0.354 N 
HETATM   24  H   UNL     1      43.687 -14.391   4.255  1.00  0.00     0.162 HD
HETATM   25  O   UNL     1      41.686 -16.723   4.884  1.00  0.00    -0.271 OA
BRANCH  23  26
HETATM   26  C   UNL     1      42.466 -14.331   5.973  1.00  0.00     0.168 C 
BRANCH  26  27
HETATM   27  C   UNL     1      41.452 -13.366   5.449  1.00  0.00     0.000 A 
HETATM   28  S   UNL     1      39.771 -13.700   5.543  1.00  0.00    -0.105 SA
HETATM   29  C   UNL     1      39.364 -12.193   4.847  1.00  0.00     0.050 A 
HETATM   30  C   UNL     1      40.478 -11.435   4.567  1.00  0.00     0.008 A 
HETATM   31  C   UNL     1      41.682 -12.114   4.911  1.00  0.00     0.017 A 
ENDBRANCH  26  27
ENDBRANCH  23  26
ENDBRANCH   1  22
TORSDOF 6
ENDMDL
MODEL 10
REMARK VINA RESULT:      -7.5      2.426      6.454
REMARK  6 active torsions:
REMARK  status: ('A' for Active; 'I' for Inactive)
REMARK    1  A    between atoms: C_4  and  C_5 
REMARK    2  A    between atoms: C_5  and  N_6 
REMARK    3  A    between atoms: C_5  and  C_19 
REMARK       I    between atoms: N_6  and  C_7 
REMARK    4  A    between atoms: C_7  and  C_8 
REMARK       I    between atoms: C_19  and  N_20 
REMARK    5  A    between atoms: N_20  and  C_21 
REMARK    6  A    between atoms: C_21  and  C_22 
ROOT
HETATM    1  C   UNL     1      41.263 -15.239   2.019  1.00  0.00     0.210 C 
ENDROOT
BRANCH   1   2
HETATM    2  C   UNL     1      40.770 -14.935   0.610  1.00  0.00    -0.026 A 
HETATM    3  C   UNL     1      41.336 -15.597  -0.493  1.00  0.00     0.010 A 
HETATM    4  C   UNL     1      40.883 -15.337  -1.790  1.00  0.00     0.001 A 
HETATM    5  C   UNL     1      39.868 -14.408  -2.004  1.00  0.00     0.000 A 
HETATM    6  C   UNL     1      39.309 -13.732  -0.923  1.00  0.00     0.001 A 
HETATM    7  C   UNL     1      39.758 -13.991   0.373  1.00  0.00     0.010 A 
ENDBRANCH   1   2
BRANCH   1   8
HETATM    8  N   UNL     1      41.983 -16.512   2.092  1.00  0.00    -0.340 N 
HETATM    9  C   UNL     1      41.862 -17.427   3.106  1.00  0.00     0.253 C 
HETATM   10  O   UNL     1      40.944 -17.410   3.919  1.00  0.00    -0.268 OA
HETATM   11  H   UNL     1      42.702 -16.656   1.398  1.00  0.00     0.164 HD
BRANCH   9  12
HETATM   12  C   UNL     1      42.840 -18.535   3.125  1.00  0.00     0.047 A 
HETATM   13  C   UNL     1      43.391 -19.063   4.310  1.00  0.00     0.027 A 
HETATM   14  C   UNL     1      44.321 -20.089   4.155  1.00  0.00     0.138 A 
HETATM   15  C   UNL     1      43.249 -18.870   5.718  1.00  0.00     0.033 A 
HETATM   16  N   UNL     1      44.757 -20.467   5.394  1.00  0.00    -0.350 N 
HETATM   17  N   UNL     1      44.745 -20.648   3.008  1.00  0.00    -0.242 NA
HETATM   18  H   UNL     1      45.438 -21.197   5.547  1.00  0.00     0.166 HD
HETATM   19  C   UNL     1      44.113 -19.734   6.356  1.00  0.00     0.090 A 
HETATM   20  C   UNL     1      44.153 -20.132   1.910  1.00  0.00     0.120 A 
HETATM   21  C   UNL     1      43.221 -19.107   1.905  1.00  0.00     0.037 A 
ENDBRANCH   9  12
ENDBRANCH   1   8
BRANCH   1  22
HETATM   22  C   UNL     1      41.876 -13.996   2.725  1.00  0.00     0.245 C 
HETATM   23  N   UNL     1      41.461 -13.739   4.013  1.00  0.00    -0.354 N 
HETATM   24  H   UNL     1      40.989 -14.508   4.490  1.00  0.00     0.162 HD
HETATM   25  O   UNL     1      42.777 -13.339   2.194  1.00  0.00    -0.271 OA
BRANCH  23  26
HETATM   26  C   UNL     1      42.240 -12.845   4.836  1.00  0.00     0.168 C 
BRANCH  26  27
HETATM   27  C   UNL     1      43.070 -13.600   5.824  1.00  0.00     0.000 A 
HETATM   28  S   UNL     1      43.124 -15.316   5.818  1.00  0.00    -0.105 SA
HETATM   29  C   UNL     1      44.253 -15.353   7.100  1.00  0.00     0.050 A 
HETATM   30  C   UNL     1      44.605 -14.089   7.516  1.00  0.00     0.008 A 
HETATM   31  C   UNL     1      43.919 -13.078   6.782  1.00  0.00     0.017 A 
ENDBRANCH  26  27
ENDBRANCH  23  26
ENDBRANCH   1  22
TORSDOF 6
ENDMDL
