MODEL 1
REMARK VINA RESULT:      -9.2      0.000      0.000
REMARK  5 active torsions:
REMARK  status: ('A' for Active; 'I' for Inactive)
REMARK    1  A    between atoms: C_3  and  O_4 
REMARK    2  A    between atoms: C_6  and  C_7 
REMARK       I    between atoms: N_10  and  C_11 
REMARK    3  A    between atoms: C_11  and  C_12 
REMARK    4  A    between atoms: C_18  and  C_19 
REMARK    5  A    between atoms: C_19  and  O_20 
ROOT
HETATM    1  C   UNL     1      44.014 -18.134   2.550  1.00  0.00     0.022 C 
HETATM    2  C   UNL     1      43.130 -17.708   1.351  1.00  0.00     0.029 C 
HETATM    3  C   UNL     1      41.637 -17.603   1.673  1.00  0.00     0.127 C 
HETATM    4  N   UNL     1      41.430 -16.848   2.903  1.00  0.00    -0.348 N 
HETATM    5  C   UNL     1      40.618 -15.730   3.072  1.00  0.00     0.253 C 
HETATM    6  O   UNL     1      40.308 -15.288   4.177  1.00  0.00    -0.267 OA
HETATM    7  C   UNL     1      42.095 -17.416   4.068  1.00  0.00     0.127 C 
HETATM    8  C   UNL     1      43.602 -17.385   3.838  1.00  0.00     0.029 C 
ENDROOT
BRANCH   5   9
HETATM    9  C   UNL     1      40.120 -14.981   1.893  1.00  0.00     0.034 A 
HETATM   10  C   UNL     1      41.053 -14.589   0.923  1.00  0.00     0.051 A 
HETATM   11  C   UNL     1      40.578 -13.999  -0.255  1.00  0.00     0.086 A 
HETATM   12  C   UNL     1      39.210 -13.815  -0.427  1.00  0.00     0.062 A 
HETATM   13  N   UNL     1      41.271 -13.563  -1.358  1.00  0.00    -0.231 NA
HETATM   14  N   UNL     1      39.098 -13.251  -1.673  1.00  0.00    -0.341 N 
HETATM   15  C   UNL     1      38.258 -14.198   0.519  1.00  0.00     0.033 A 
HETATM   16  H   UNL     1      38.235 -13.018  -2.143  1.00  0.00     0.167 HD
HETATM   17  C   UNL     1      40.358 -13.125  -2.203  1.00  0.00     0.128 A 
HETATM   18  C   UNL     1      38.743 -14.810   1.681  1.00  0.00     0.019 A 
BRANCH  17  19
HETATM   19  C   UNL     1      40.604 -12.626  -3.579  1.00  0.00     0.242 C 
BRANCH  19  20
HETATM   20  O   UNL     1      41.923 -13.021  -3.932  1.00  0.00    -0.393 OA
HETATM   21  H   UNL     1      42.444 -12.953  -3.106  1.00  0.00     0.209 HD
ENDBRANCH  19  20
ENDBRANCH  17  19
ENDBRANCH   5   9
BRANCH   1  22
HETATM   22  C   UNL     1      44.177 -19.629   2.798  1.00  0.00    -0.051 A 
HETATM   23  C   UNL     1      44.611 -20.180   4.009  1.00  0.00     0.044 A 
HETATM   24  C   UNL     1      44.721 -21.562   4.159  1.00  0.00     0.066 A 
HETATM   25  C   UNL     1      44.402 -22.429   3.121  1.00  0.00     0.036 A 
HETATM   26  C   UNL     1      43.962 -21.901   1.911  1.00  0.00     0.003 A 
HETATM   27  C   UNL     1      43.848 -20.518   1.754  1.00  0.00     0.007 A 
BRANCH  24  28
HETATM   28  O   UNL     1      45.147 -22.035   5.366  1.00  0.00    -0.361 OA
HETATM   29  H   UNL     1      45.030 -21.335   6.030  1.00  0.00     0.217 HD
ENDBRANCH  24  28
ENDBRANCH   1  22
TORSDOF 5
ENDMDL
MODEL 2
REMARK VINA RESULT:      -9.0      2.006      2.358
REMARK  5 active torsions:
REMARK  status: ('A' for Active; 'I' for Inactive)
REMARK    1  A    between atoms: C_3  and  O_4 
REMARK    2  A    between atoms: C_6  and  C_7 
REMARK       I    between atoms: N_10  and  C_11 
REMARK    3  A    between atoms: C_11  and  C_12 
REMARK    4  A    between atoms: C_18  and  C_19 
REMARK    5  A    between atoms: C_19  and  O_20 
ROOT
HETATM    1  C   UNL     1      44.313 -18.309   3.905  1.00  0.00     0.022 C 
HETATM    2  C   UNL     1      43.686 -17.584   2.688  1.00  0.00     0.029 C 
HETATM    3  C   UNL     1      42.159 -17.476   2.735  1.00  0.00     0.127 C 
HETATM    4  N   UNL     1      41.719 -17.002   4.042  1.00  0.00    -0.348 N 
HETATM    5  C   UNL     1      40.897 -15.910   4.303  1.00  0.00     0.253 C 
HETATM    6  O   UNL     1      40.379 -15.708   5.401  1.00  0.00    -0.267 OA
HETATM    7  C   UNL     1      42.139 -17.848   5.153  1.00  0.00     0.127 C 
HETATM    8  C   UNL     1      43.662 -17.844   5.227  1.00  0.00     0.029 C 
ENDROOT
BRANCH   5   9
HETATM    9  C   UNL     1      40.647 -14.894   3.253  1.00  0.00     0.034 A 
HETATM   10  C   UNL     1      41.694 -14.025   2.917  1.00  0.00     0.051 A 
HETATM   11  C   UNL     1      41.512 -13.151   1.837  1.00  0.00     0.086 A 
HETATM   12  C   UNL     1      40.310 -13.165   1.139  1.00  0.00     0.062 A 
HETATM   13  N   UNL     1      42.381 -12.238   1.293  1.00  0.00    -0.231 NA
HETATM   14  N   UNL     1      40.479 -12.227   0.153  1.00  0.00    -0.341 N 
HETATM   15  C   UNL     1      39.251 -14.021   1.448  1.00  0.00     0.033 A 
HETATM   16  H   UNL     1      39.813 -12.001  -0.572  1.00  0.00     0.167 HD
HETATM   17  C   UNL     1      41.741 -11.700   0.274  1.00  0.00     0.128 A 
HETATM   18  C   UNL     1      39.455 -14.907   2.512  1.00  0.00     0.019 A 
BRANCH  17  19
HETATM   19  C   UNL     1      42.294 -10.712  -0.687  1.00  0.00     0.242 C 
BRANCH  19  20
HETATM   20  O   UNL     1      43.471 -10.176  -0.097  1.00  0.00    -0.393 OA
HETATM   21  H   UNL     1      43.660  -9.354  -0.593  1.00  0.00     0.209 HD
ENDBRANCH  19  20
ENDBRANCH  17  19
ENDBRANCH   5   9
BRANCH   1  22
HETATM   22  C   UNL     1      44.415 -19.828   3.833  1.00  0.00    -0.051 A 
HETATM   23  C   UNL     1      44.294 -20.567   2.650  1.00  0.00     0.044 A 
HETATM   24  C   UNL     1      44.413 -21.956   2.667  1.00  0.00     0.066 A 
HETATM   25  C   UNL     1      44.656 -22.645   3.850  1.00  0.00     0.036 A 
HETATM   26  C   UNL     1      44.786 -21.928   5.035  1.00  0.00     0.003 A 
HETATM   27  C   UNL     1      44.670 -20.537   5.024  1.00  0.00     0.007 A 
BRANCH  24  28
HETATM   28  O   UNL     1      44.288 -22.616   1.480  1.00  0.00    -0.361 OA
HETATM   29  H   UNL     1      44.884 -22.203   0.833  1.00  0.00     0.217 HD
ENDBRANCH  24  28
ENDBRANCH   1  22
TORSDOF 5
ENDMDL
MODEL 3
REMARK VINA RESULT:      -9.0      1.998      2.535
REMARK  5 active torsions:
REMARK  status: ('A' for Active; 'I' for Inactive)
REMARK    1  A    between atoms: C_3  and  O_4 
REMARK    2  A    between atoms: C_6  and  C_7 
REMARK       I    between atoms: N_10  and  C_11 
REMARK    3  A    between atoms: C_11  and  C_12 
REMARK    4  A    between atoms: C_18  and  C_19 
REMARK    5  A    between atoms: C_19  and  O_20 
ROOT
HETATM    1  C   UNL     1      43.900 -17.868   3.307  1.00  0.00     0.022 C 
HETATM    2  C   UNL     1      44.014 -17.186   1.921  1.00  0.00     0.029 C 
HETATM    3  C   UNL     1      42.720 -17.201   1.101  1.00  0.00     0.127 C 
HETATM    4  N   UNL     1      41.591 -16.773   1.918  1.00  0.00    -0.348 N 
HETATM    5  C   UNL     1      40.690 -15.752   1.632  1.00  0.00     0.253 C 
HETATM    6  O   UNL     1      39.633 -15.600   2.243  1.00  0.00    -0.267 OA
HETATM    7  C   UNL     1      41.373 -17.591   3.104  1.00  0.00     0.127 C 
HETATM    8  C   UNL     1      42.587 -17.467   4.018  1.00  0.00     0.029 C 
ENDROOT
BRANCH   5   9
HETATM    9  C   UNL     1      41.001 -14.751   0.584  1.00  0.00     0.034 A 
HETATM   10  C   UNL     1      41.625 -13.558   0.978  1.00  0.00     0.051 A 
HETATM   11  C   UNL     1      42.041 -12.666  -0.017  1.00  0.00     0.086 A 
HETATM   12  C   UNL     1      41.825 -12.980  -1.355  1.00  0.00     0.062 A 
HETATM   13  N   UNL     1      42.695 -11.464   0.102  1.00  0.00    -0.231 NA
HETATM   14  N   UNL     1      42.369 -11.925  -2.043  1.00  0.00    -0.341 N 
HETATM   15  C   UNL     1      41.211 -14.160  -1.778  1.00  0.00     0.033 A 
HETATM   16  H   UNL     1      42.427 -11.839  -3.048  1.00  0.00     0.167 HD
HETATM   17  C   UNL     1      42.891 -11.041  -1.132  1.00  0.00     0.128 A 
HETATM   18  C   UNL     1      40.822 -15.056  -0.775  1.00  0.00     0.019 A 
BRANCH  17  19
HETATM   19  C   UNL     1      43.634  -9.820  -1.533  1.00  0.00     0.242 C 
BRANCH  19  20
HETATM   20  O   UNL     1      43.195  -9.481  -2.842  1.00  0.00    -0.393 OA
HETATM   21  H   UNL     1      44.012  -9.377  -3.371  1.00  0.00     0.209 HD
ENDBRANCH  19  20
ENDBRANCH  17  19
ENDBRANCH   5   9
BRANCH   1  22
HETATM   22  C   UNL     1      44.130 -19.374   3.362  1.00  0.00    -0.051 A 
HETATM   23  C   UNL     1      43.979 -20.231   2.265  1.00  0.00     0.044 A 
HETATM   24  C   UNL     1      44.224 -21.598   2.397  1.00  0.00     0.066 A 
HETATM   25  C   UNL     1      44.623 -22.147   3.609  1.00  0.00     0.036 A 
HETATM   26  C   UNL     1      44.785 -21.311   4.709  1.00  0.00     0.003 A 
HETATM   27  C   UNL     1      44.544 -19.941   4.584  1.00  0.00     0.007 A 
BRANCH  24  28
HETATM   28  O   UNL     1      44.061 -22.377   1.289  1.00  0.00    -0.361 OA
HETATM   29  H   UNL     1      44.852 -22.932   1.183  1.00  0.00     0.217 HD
ENDBRANCH  24  28
ENDBRANCH   1  22
TORSDOF 5
ENDMDL
MODEL 4
REMARK VINA RESULT:      -8.6      1.828      2.258
REMARK  5 active torsions:
REMARK  status: ('A' for Active; 'I' for Inactive)
REMARK    1  A    between atoms: C_3  and  O_4 
REMARK    2  A    between atoms: C_6  and  C_7 
REMARK       I    between atoms: N_10  and  C_11 
REMARK    3  A    between atoms: C_11  and  C_12 
REMARK    4  A    between atoms: C_18  and  C_19 
REMARK    5  A    between atoms: C_19  and  O_20 
ROOT
HETATM    1  C   UNL     1      43.674 -18.410   1.501  1.00  0.00     0.022 C 
HETATM    2  C   UNL     1      42.174 -18.164   1.206  1.00  0.00     0.029 C 
HETATM    3  C   UNL     1      41.534 -17.065   2.060  1.00  0.00     0.127 C 
HETATM    4  N   UNL     1      42.374 -15.873   2.073  1.00  0.00    -0.348 N 
HETATM    5  C   UNL     1      41.991 -14.577   1.740  1.00  0.00     0.253 C 
HETATM    6  O   UNL     1      42.678 -13.589   1.996  1.00  0.00    -0.267 OA
HETATM    7  C   UNL     1      43.721 -16.101   2.580  1.00  0.00     0.127 C 
HETATM    8  C   UNL     1      44.438 -17.075   1.652  1.00  0.00     0.029 C 
ENDROOT
BRANCH   5   9
HETATM    9  C   UNL     1      40.729 -14.335   1.001  1.00  0.00     0.034 A 
HETATM   10  C   UNL     1      40.760 -14.424  -0.398  1.00  0.00     0.051 A 
HETATM   11  C   UNL     1      39.549 -14.328  -1.096  1.00  0.00     0.086 A 
HETATM   12  C   UNL     1      38.364 -14.145  -0.392  1.00  0.00     0.062 A 
HETATM   13  N   UNL     1      39.307 -14.415  -2.445  1.00  0.00    -0.231 NA
HETATM   14  N   UNL     1      37.394 -14.123  -1.362  1.00  0.00    -0.341 N 
HETATM   15  C   UNL     1      38.302 -14.056   1.000  1.00  0.00     0.033 A 
HETATM   16  H   UNL     1      36.399 -14.046  -1.204  1.00  0.00     0.167 HD
HETATM   17  C   UNL     1      38.001 -14.298  -2.581  1.00  0.00     0.128 A 
HETATM   18  C   UNL     1      39.515 -14.179   1.688  1.00  0.00     0.019 A 
BRANCH  17  19
HETATM   19  C   UNL     1      37.237 -14.411  -3.849  1.00  0.00     0.242 C 
BRANCH  19  20
HETATM   20  O   UNL     1      37.902 -15.381  -4.647  1.00  0.00    -0.393 OA
HETATM   21  H   UNL     1      38.162 -14.910  -5.465  1.00  0.00     0.209 HD
ENDBRANCH  19  20
ENDBRANCH  17  19
ENDBRANCH   5   9
BRANCH   1  22
HETATM   22  C   UNL     1      44.012 -19.380   2.627  1.00  0.00    -0.051 A 
HETATM   23  C   UNL     1      44.210 -20.754   2.445  1.00  0.00     0.044 A 
HETATM   24  C   UNL     1      44.531 -21.572   3.528  1.00  0.00     0.066 A 
HETATM   25  C   UNL     1      44.665 -21.054   4.810  1.00  0.00     0.036 A 
HETATM   26  C   UNL     1      44.479 -19.690   5.011  1.00  0.00     0.003 A 
HETATM   27  C   UNL     1      44.160 -18.864   3.931  1.00  0.00     0.007 A 
BRANCH  24  28
HETATM   28  O   UNL     1      44.714 -22.902   3.282  1.00  0.00    -0.361 OA
HETATM   29  H   UNL     1      45.639 -23.043   3.022  1.00  0.00     0.217 HD
ENDBRANCH  24  28
ENDBRANCH   1  22
TORSDOF 5
ENDMDL
MODEL 5
REMARK VINA RESULT:      -8.5      1.809      2.268
REMARK  5 active torsions:
REMARK  status: ('A' for Active; 'I' for Inactive)
REMARK    1  A    between atoms: C_3  and  O_4 
REMARK    2  A    between atoms: C_6  and  C_7 
REMARK       I    between atoms: N_10  and  C_11 
REMARK    3  A    between atoms: C_11  and  C_12 
REMARK    4  A    between atoms: C_18  and  C_19 
REMARK    5  A    between atoms: C_19  and  O_20 
ROOT
HETATM    1  C   UNL     1      44.039 -18.114   2.453  1.00  0.00     0.022 C 
HETATM    2  C   UNL     1      43.218 -17.694   1.209  1.00  0.00     0.029 C 
HETATM    3  C   UNL     1      41.710 -17.590   1.453  1.00  0.00     0.127 C 
HETATM    4  N   UNL     1      41.439 -16.831   2.669  1.00  0.00    -0.348 N 
HETATM    5  C   UNL     1      40.618 -15.714   2.792  1.00  0.00     0.253 C 
HETATM    6  O   UNL     1      40.252 -15.268   3.879  1.00  0.00    -0.267 OA
HETATM    7  C   UNL     1      42.045 -17.394   3.868  1.00  0.00     0.127 C 
HETATM    8  C   UNL     1      43.562 -17.362   3.716  1.00  0.00     0.029 C 
ENDROOT
BRANCH   5   9
HETATM    9  C   UNL     1      40.181 -14.969   1.587  1.00  0.00     0.034 A 
HETATM   10  C   UNL     1      38.880 -14.446   1.574  1.00  0.00     0.051 A 
HETATM   11  C   UNL     1      38.503 -13.631   0.499  1.00  0.00     0.086 A 
HETATM   12  C   UNL     1      39.415 -13.368  -0.517  1.00  0.00     0.062 A 
HETATM   13  N   UNL     1      37.316 -12.979   0.269  1.00  0.00    -0.231 NA
HETATM   14  N   UNL     1      38.741 -12.535  -1.372  1.00  0.00    -0.341 N 
HETATM   15  C   UNL     1      40.718 -13.871  -0.529  1.00  0.00     0.033 A 
HETATM   16  H   UNL     1      39.118 -12.109  -2.207  1.00  0.00     0.167 HD
HETATM   17  C   UNL     1      37.486 -12.317  -0.858  1.00  0.00     0.128 A 
HETATM   18  C   UNL     1      41.091 -14.664   0.563  1.00  0.00     0.019 A 
BRANCH  17  19
HETATM   19  C   UNL     1      36.511 -11.391  -1.488  1.00  0.00     0.242 C 
BRANCH  19  20
HETATM   20  O   UNL     1      35.603 -10.993  -0.469  1.00  0.00    -0.393 OA
HETATM   21  H   UNL     1      36.091 -11.104   0.372  1.00  0.00     0.209 HD
ENDBRANCH  19  20
ENDBRANCH  17  19
ENDBRANCH   5   9
BRANCH   1  22
HETATM   22  C   UNL     1      44.191 -19.609   2.714  1.00  0.00    -0.051 A 
HETATM   23  C   UNL     1      44.647 -20.151   3.921  1.00  0.00     0.044 A 
HETATM   24  C   UNL     1      44.744 -21.533   4.084  1.00  0.00     0.066 A 
HETATM   25  C   UNL     1      44.392 -22.407   3.063  1.00  0.00     0.036 A 
HETATM   26  C   UNL     1      43.931 -21.888   1.857  1.00  0.00     0.003 A 
HETATM   27  C   UNL     1      43.829 -20.505   1.688  1.00  0.00     0.007 A 
BRANCH  24  28
HETATM   28  O   UNL     1      45.192 -21.997   5.287  1.00  0.00    -0.361 OA
HETATM   29  H   UNL     1      44.795 -22.868   5.449  1.00  0.00     0.217 HD
ENDBRANCH  24  28
ENDBRANCH   1  22
TORSDOF 5
ENDMDL
MODEL 6
REMARK VINA RESULT:      -8.4      2.242      2.750
REMARK  5 active torsions:
REMARK  status: ('A' for Active; 'I' for Inactive)
REMARK    1  A    between atoms: C_3  and  O_4 
REMARK    2  A    between atoms: C_6  and  C_7 
REMARK       I    between atoms: N_10  and  C_11 
REMARK    3  A    between atoms: C_11  and  C_12 
REMARK    4  A    between atoms: C_18  and  C_19 
REMARK    5  A    between atoms: C_19  and  O_20 
ROOT
HETATM    1  C   UNL     1      44.305 -18.333   4.003  1.00  0.00     0.022 C 
HETATM    2  C   UNL     1      43.662 -17.509   2.859  1.00  0.00     0.029 C 
HETATM    3  C   UNL     1      42.136 -17.402   2.940  1.00  0.00     0.127 C 
HETATM    4  N   UNL     1      41.719 -17.035   4.288  1.00  0.00    -0.348 N 
HETATM    5  C   UNL     1      40.905 -15.965   4.650  1.00  0.00     0.253 C 
HETATM    6  O   UNL     1      40.405 -15.852   5.768  1.00  0.00    -0.267 OA
HETATM    7  C   UNL     1      42.152 -17.969   5.319  1.00  0.00     0.127 C 
HETATM    8  C   UNL     1      43.676 -17.976   5.369  1.00  0.00     0.029 C 
ENDROOT
BRANCH   5   9
HETATM    9  C   UNL     1      40.642 -14.867   3.690  1.00  0.00     0.034 A 
HETATM   10  C   UNL     1      39.573 -15.017   2.796  1.00  0.00     0.051 A 
HETATM   11  C   UNL     1      39.234 -13.933   1.977  1.00  0.00     0.086 A 
HETATM   12  C   UNL     1      39.961 -12.751   2.067  1.00  0.00     0.062 A 
HETATM   13  N   UNL     1      38.224 -13.815   1.054  1.00  0.00    -0.231 NA
HETATM   14  N   UNL     1      39.357 -11.912   1.166  1.00  0.00    -0.341 N 
HETATM   15  C   UNL     1      41.028 -12.570   2.950  1.00  0.00     0.033 A 
HETATM   16  H   UNL     1      39.603 -10.947   0.997  1.00  0.00     0.167 HD
HETATM   17  C   UNL     1      38.311 -12.585   0.586  1.00  0.00     0.128 A 
HETATM   18  C   UNL     1      41.340 -13.652   3.781  1.00  0.00     0.019 A 
BRANCH  17  19
HETATM   19  C   UNL     1      37.383 -11.947  -0.382  1.00  0.00     0.242 C 
BRANCH  19  20
HETATM   20  O   UNL     1      38.000 -12.027  -1.660  1.00  0.00    -0.393 OA
HETATM   21  H   UNL     1      38.756 -11.405  -1.623  1.00  0.00     0.209 HD
ENDBRANCH  19  20
ENDBRANCH  17  19
ENDBRANCH   5   9
BRANCH   1  22
HETATM   22  C   UNL     1      44.399 -19.842   3.805  1.00  0.00    -0.051 A 
HETATM   23  C   UNL     1      44.189 -20.487   2.581  1.00  0.00     0.044 A 
HETATM   24  C   UNL     1      44.308 -21.873   2.482  1.00  0.00     0.066 A 
HETATM   25  C   UNL     1      44.639 -22.650   3.585  1.00  0.00     0.036 A 
HETATM   26  C   UNL     1      44.858 -22.027   4.810  1.00  0.00     0.003 A 
HETATM   27  C   UNL     1      44.742 -20.639   4.916  1.00  0.00     0.007 A 
BRANCH  24  28
HETATM   28  O   UNL     1      44.094 -22.439   1.259  1.00  0.00    -0.361 OA
HETATM   29  H   UNL     1      44.945 -22.507   0.797  1.00  0.00     0.217 HD
ENDBRANCH  24  28
ENDBRANCH   1  22
TORSDOF 5
ENDMDL
MODEL 7
REMARK VINA RESULT:      -8.2      2.256      8.360
REMARK  5 active torsions:
REMARK  status: ('A' for Active; 'I' for Inactive)
REMARK    1  A    between atoms: C_3  and  O_4 
REMARK    2  A    between atoms: C_6  and  C_7 
REMARK       I    between atoms: N_10  and  C_11 
REMARK    3  A    between atoms: C_11  and  C_12 
REMARK    4  A    between atoms: C_18  and  C_19 
REMARK    5  A    between atoms: C_19  and  O_20 
ROOT
HETATM    1  C   UNL     1      40.104 -14.899   0.955  1.00  0.00     0.022 C 
HETATM    2  C   UNL     1      40.580 -16.318   1.354  1.00  0.00     0.029 C 
HETATM    3  C   UNL     1      42.080 -16.421   1.646  1.00  0.00     0.127 C 
HETATM    4  N   UNL     1      42.505 -15.345   2.534  1.00  0.00    -0.348 N 
HETATM    5  C   UNL     1      43.184 -15.474   3.741  1.00  0.00     0.253 C 
HETATM    6  O   UNL     1      43.714 -14.525   4.317  1.00  0.00    -0.267 OA
HETATM    7  C   UNL     1      42.246 -14.009   2.012  1.00  0.00     0.127 C 
HETATM    8  C   UNL     1      40.740 -13.822   1.862  1.00  0.00     0.029 C 
ENDROOT
BRANCH   5   9
HETATM    9  C   UNL     1      43.256 -16.789   4.423  1.00  0.00     0.034 A 
HETATM   10  C   UNL     1      43.914 -17.836   3.762  1.00  0.00     0.051 A 
HETATM   11  C   UNL     1      44.102 -19.041   4.451  1.00  0.00     0.086 A 
HETATM   12  C   UNL     1      43.633 -19.168   5.753  1.00  0.00     0.062 A 
HETATM   13  N   UNL     1      44.735 -20.191   4.047  1.00  0.00    -0.231 NA
HETATM   14  N   UNL     1      44.003 -20.435   6.126  1.00  0.00    -0.341 N 
HETATM   15  C   UNL     1      42.977 -18.142   6.438  1.00  0.00     0.033 A 
HETATM   16  H   UNL     1      43.857 -20.853   7.034  1.00  0.00     0.167 HD
HETATM   17  C   UNL     1      44.672 -21.013   5.075  1.00  0.00     0.128 A 
HETATM   18  C   UNL     1      42.818 -16.935   5.748  1.00  0.00     0.019 A 
BRANCH  17  19
HETATM   19  C   UNL     1      45.289 -22.361   5.161  1.00  0.00     0.242 C 
BRANCH  19  20
HETATM   20  O   UNL     1      44.757 -23.128   4.089  1.00  0.00    -0.393 OA
HETATM   21  H   UNL     1      44.154 -23.775   4.507  1.00  0.00     0.209 HD
ENDBRANCH  19  20
ENDBRANCH  17  19
ENDBRANCH   5   9
BRANCH   1  22
HETATM   22  C   UNL     1      40.203 -14.522  -0.519  1.00  0.00    -0.051 A 
HETATM   23  C   UNL     1      41.133 -15.072  -1.409  1.00  0.00     0.044 A 
HETATM   24  C   UNL     1      41.148 -14.682  -2.748  1.00  0.00     0.066 A 
HETATM   25  C   UNL     1      40.247 -13.745  -3.237  1.00  0.00     0.036 A 
HETATM   26  C   UNL     1      39.310 -13.191  -2.370  1.00  0.00     0.003 A 
HETATM   27  C   UNL     1      39.287 -13.579  -1.029  1.00  0.00     0.007 A 
BRANCH  24  28
HETATM   28  O   UNL     1      42.079 -15.259  -3.562  1.00  0.00    -0.361 OA
HETATM   29  H   UNL     1      42.962 -15.066  -3.207  1.00  0.00     0.217 HD
ENDBRANCH  24  28
ENDBRANCH   1  22
TORSDOF 5
ENDMDL
MODEL 8
REMARK VINA RESULT:      -8.1      2.440      2.714
REMARK  5 active torsions:
REMARK  status: ('A' for Active; 'I' for Inactive)
REMARK    1  A    between atoms: C_3  and  O_4 
REMARK    2  A    between atoms: C_6  and  C_7 
REMARK       I    between atoms: N_10  and  C_11 
REMARK    3  A    between atoms: C_11  and  C_12 
REMARK    4  A    between atoms: C_18  and  C_19 
REMARK    5  A    between atoms: C_19  and  O_20 
ROOT
HETATM    1  C   UNL     1      44.140 -18.163   3.599  1.00  0.00     0.022 C 
HETATM    2  C   UNL     1      43.336 -17.347   2.557  1.00  0.00     0.029 C 
HETATM    3  C   UNL     1      41.829 -17.290   2.824  1.00  0.00     0.127 C 
HETATM    4  N   UNL     1      41.569 -16.955   4.220  1.00  0.00    -0.348 N 
HETATM    5  C   UNL     1      40.773 -15.917   4.696  1.00  0.00     0.253 C 
HETATM    6  O   UNL     1      40.411 -15.835   5.869  1.00  0.00    -0.267 OA
HETATM    7  C   UNL     1      42.154 -17.887   5.174  1.00  0.00     0.127 C 
HETATM    8  C   UNL     1      43.672 -17.845   5.038  1.00  0.00     0.029 C 
ENDROOT
BRANCH   5   9
HETATM    9  C   UNL     1      40.361 -14.815   3.794  1.00  0.00     0.034 A 
HETATM   10  C   UNL     1      40.938 -13.553   3.993  1.00  0.00     0.051 A 
HETATM   11  C   UNL     1      40.656 -12.540   3.067  1.00  0.00     0.086 A 
HETATM   12  C   UNL     1      39.818 -12.809   1.990  1.00  0.00     0.062 A 
HETATM   13  N   UNL     1      41.115 -11.246   3.017  1.00  0.00    -0.231 NA
HETATM   14  N   UNL     1      39.783 -11.632   1.286  1.00  0.00    -0.341 N 
HETATM   15  C   UNL     1      39.232 -14.056   1.764  1.00  0.00     0.033 A 
HETATM   16  H   UNL     1      39.297 -11.477   0.414  1.00  0.00     0.167 HD
HETATM   17  C   UNL     1      40.583 -10.722   1.930  1.00  0.00     0.128 A 
HETATM   18  C   UNL     1      39.542 -15.066   2.682  1.00  0.00     0.019 A 
BRANCH  17  19
HETATM   19  C   UNL     1      40.843  -9.362   1.395  1.00  0.00     0.242 C 
BRANCH  19  20
HETATM   20  O   UNL     1      39.733  -9.021   0.576  1.00  0.00    -0.393 OA
HETATM   21  H   UNL     1      39.192  -8.408   1.114  1.00  0.00     0.209 HD
ENDBRANCH  19  20
ENDBRANCH  17  19
ENDBRANCH   5   9
BRANCH   1  22
HETATM   22  C   UNL     1      44.256 -19.665   3.367  1.00  0.00    -0.051 A 
HETATM   23  C   UNL     1      44.728 -20.573   4.323  1.00  0.00     0.044 A 
HETATM   24  C   UNL     1      44.789 -21.936   4.035  1.00  0.00     0.066 A 
HETATM   25  C   UNL     1      44.385 -22.433   2.802  1.00  0.00     0.036 A 
HETATM   26  C   UNL     1      43.906 -21.548   1.841  1.00  0.00     0.003 A 
HETATM   27  C   UNL     1      43.840 -20.182   2.123  1.00  0.00     0.007 A 
BRANCH  24  28
HETATM   28  O   UNL     1      45.256 -22.767   5.012  1.00  0.00    -0.361 OA
HETATM   29  H   UNL     1      44.840 -23.637   4.901  1.00  0.00     0.217 HD
ENDBRANCH  24  28
ENDBRANCH   1  22
TORSDOF 5
ENDMDL
MODEL 9
REMARK VINA RESULT:      -8.0      4.121      5.948
REMARK  5 active torsions:
REMARK  status: ('A' for Active; 'I' for Inactive)
REMARK    1  A    between atoms: C_3  and  O_4 
REMARK    2  A    between atoms: C_6  and  C_7 
REMARK       I    between atoms: N_10  and  C_11 
REMARK    3  A    between atoms: C_11  and  C_12 
REMARK    4  A    between atoms: C_18  and  C_19 
REMARK    5  A    between atoms: C_19  and  O_20 
ROOT
HETATM    1  C   UNL     1      42.048 -18.057   2.670  1.00  0.00     0.022 C 
HETATM    2  C   UNL     1      41.493 -17.393   3.954  1.00  0.00     0.029 C 
HETATM    3  C   UNL     1      42.378 -16.280   4.523  1.00  0.00     0.127 C 
HETATM    4  N   UNL     1      42.785 -15.359   3.467  1.00  0.00    -0.348 N 
HETATM    5  C   UNL     1      42.620 -13.977   3.453  1.00  0.00     0.253 C 
HETATM    6  O   UNL     1      43.191 -13.243   2.647  1.00  0.00    -0.267 OA
HETATM    7  C   UNL     1      43.514 -15.992   2.376  1.00  0.00     0.127 C 
HETATM    8  C   UNL     1      42.597 -16.997   1.687  1.00  0.00     0.029 C 
ENDROOT
BRANCH   5   9
HETATM    9  C   UNL     1      41.689 -13.324   4.403  1.00  0.00     0.034 A 
HETATM   10  C   UNL     1      42.238 -12.645   5.500  1.00  0.00     0.051 A 
HETATM   11  C   UNL     1      41.377 -11.915   6.328  1.00  0.00     0.086 A 
HETATM   12  C   UNL     1      40.015 -11.887   6.048  1.00  0.00     0.062 A 
HETATM   13  N   UNL     1      41.664 -11.147   7.431  1.00  0.00    -0.231 NA
HETATM   14  N   UNL     1      39.485 -11.076   7.020  1.00  0.00    -0.341 N 
HETATM   15  C   UNL     1      39.440 -12.550   4.962  1.00  0.00     0.033 A 
HETATM   16  H   UNL     1      38.517 -10.799   7.098  1.00  0.00     0.167 HD
HETATM   17  C   UNL     1      40.510 -10.644   7.824  1.00  0.00     0.128 A 
HETATM   18  C   UNL     1      40.314 -13.255   4.127  1.00  0.00     0.019 A 
BRANCH  17  19
HETATM   19  C   UNL     1      40.307  -9.679   8.934  1.00  0.00     0.242 C 
BRANCH  19  20
HETATM   20  O   UNL     1      39.906 -10.434  10.070  1.00  0.00    -0.393 OA
HETATM   21  H   UNL     1      40.063 -11.369   9.828  1.00  0.00     0.209 HD
ENDBRANCH  19  20
ENDBRANCH  17  19
ENDBRANCH   5   9
BRANCH   1  22
HETATM   22  C   UNL     1      43.024 -19.214   2.850  1.00  0.00    -0.051 A 
HETATM   23  C   UNL     1      43.172 -20.265   1.938  1.00  0.00     0.044 A 
HETATM   24  C   UNL     1      44.100 -21.279   2.171  1.00  0.00     0.066 A 
HETATM   25  C   UNL     1      44.902 -21.278   3.305  1.00  0.00     0.036 A 
HETATM   26  C   UNL     1      44.775 -20.239   4.222  1.00  0.00     0.003 A 
HETATM   27  C   UNL     1      43.849 -19.218   3.994  1.00  0.00     0.007 A 
BRANCH  24  28
HETATM   28  O   UNL     1      44.196 -22.273   1.240  1.00  0.00    -0.361 OA
HETATM   29  H   UNL     1      43.443 -22.199   0.631  1.00  0.00     0.217 HD
ENDBRANCH  24  28
ENDBRANCH   1  22
TORSDOF 5
ENDMDL
MODEL 10
REMARK VINA RESULT:      -8.0      1.710      2.087
REMARK  5 active torsions:
REMARK  status: ('A' for Active; 'I' for Inactive)
REMARK    1  A    between atoms: C_3  and  O_4 
REMARK    2  A    between atoms: C_6  and  C_7 
REMARK       I    between atoms: N_10  and  C_11 
REMARK    3  A    between atoms: C_11  and  C_12 
REMARK    4  A    between atoms: C_18  and  C_19 
REMARK    5  A    between atoms: C_19  and  O_20 
ROOT
HETATM    1  C   UNL     1      44.061 -17.754   4.190  1.00  0.00     0.022 C 
HETATM    2  C   UNL     1      43.947 -17.629   2.650  1.00  0.00     0.029 C 
HETATM    3  C   UNL     1      42.518 -17.740   2.111  1.00  0.00     0.127 C 
HETATM    4  N   UNL     1      41.614 -16.890   2.877  1.00  0.00    -0.348 N 
HETATM    5  C   UNL     1      40.758 -15.913   2.376  1.00  0.00     0.253 C 
HETATM    6  O   UNL     1      39.861 -15.401   3.045  1.00  0.00    -0.267 OA
HETATM    7  C   UNL     1      41.576 -17.195   4.302  1.00  0.00     0.127 C 
HETATM    8  C   UNL     1      42.955 -16.938   4.898  1.00  0.00     0.029 C 
ENDROOT
BRANCH   5   9
HETATM    9  C   UNL     1      40.930 -15.404   0.995  1.00  0.00     0.034 A 
HETATM   10  C   UNL     1      41.303 -14.062   0.831  1.00  0.00     0.051 A 
HETATM   11  C   UNL     1      41.596 -13.608  -0.461  1.00  0.00     0.086 A 
HETATM   12  C   UNL     1      41.506 -14.486  -1.535  1.00  0.00     0.062 A 
HETATM   13  N   UNL     1      42.011 -12.367  -0.880  1.00  0.00    -0.231 NA
HETATM   14  N   UNL     1      41.880 -13.735  -2.620  1.00  0.00    -0.341 N 
HETATM   15  C   UNL     1      41.141 -15.828  -1.402  1.00  0.00     0.033 A 
HETATM   16  H   UNL     1      41.968 -14.068  -3.570  1.00  0.00     0.167 HD
HETATM   17  C   UNL     1      42.185 -12.471  -2.183  1.00  0.00     0.128 A 
HETATM   18  C   UNL     1      40.875 -16.277  -0.103  1.00  0.00     0.019 A 
BRANCH  17  19
HETATM   19  C   UNL     1      42.709 -11.414  -3.085  1.00  0.00     0.242 C 
BRANCH  19  20
HETATM   20  O   UNL     1      42.567 -11.897  -4.414  1.00  0.00    -0.393 OA
HETATM   21  H   UNL     1      41.781 -12.480  -4.395  1.00  0.00     0.209 HD
ENDBRANCH  19  20
ENDBRANCH  17  19
ENDBRANCH   5   9
BRANCH   1  22
HETATM   22  C   UNL     1      44.177 -19.160   4.767  1.00  0.00    -0.051 A 
HETATM   23  C   UNL     1      43.775 -19.512   6.061  1.00  0.00     0.044 A 
HETATM   24  C   UNL     1      43.903 -20.827   6.509  1.00  0.00     0.066 A 
HETATM   25  C   UNL     1      44.426 -21.821   5.690  1.00  0.00     0.036 A 
HETATM   26  C   UNL     1      44.825 -21.492   4.398  1.00  0.00     0.003 A 
HETATM   27  C   UNL     1      44.698 -20.178   3.943  1.00  0.00     0.007 A 
BRANCH  24  28
HETATM   28  O   UNL     1      43.489 -21.104   7.779  1.00  0.00    -0.361 OA
HETATM   29  H   UNL     1      43.942 -20.499   8.389  1.00  0.00     0.217 HD
ENDBRANCH  24  28
ENDBRANCH   1  22
TORSDOF 5
ENDMDL
