MODEL 1
REMARK VINA RESULT:      -8.7      0.000      0.000
REMARK  3 active torsions:
REMARK  status: ('A' for Active; 'I' for Inactive)
REMARK    1  A    between atoms: C_9  and  C_10 
REMARK    2  A    between atoms: C_16  and  C_17 
REMARK       I    between atoms: C_17  and  N_18 
REMARK    3  A    between atoms: N_18  and  C_19 
ROOT
HETATM    1  C   UNL     1      42.832 -17.370   7.786  1.00  0.00     0.070 C 
HETATM    2  C   UNL     1      42.815 -16.502   6.552  1.00  0.00     0.037 C 
HETATM    3  N   UNL     1      42.186 -15.267   6.695  1.00  0.00    -0.191 N 
HETATM    4  C   UNL     1      42.312 -14.278   5.784  1.00  0.00     0.735 A 
HETATM    5  N   UNL     1      42.941 -14.535   4.598  1.00  0.00    -0.092 N 
HETATM    6  N   UNL     1      43.032 -13.413   3.868  1.00  0.00     0.012 NA
HETATM    7  N   UNL     1      42.418 -12.489   4.601  1.00  0.00     0.033 NA
HETATM    8  N   UNL     1      41.964 -13.014   5.797  1.00  0.00     0.030 NA
HETATM    9  C   UNL     1      43.472 -15.839   4.206  1.00  0.00     0.198 C 
HETATM   10  C   UNL     1      43.422 -16.816   5.379  1.00  0.00     0.062 C 
HETATM   11  H   UNL     1      41.829 -15.027   7.617  1.00  0.00     0.184 HD
ENDROOT
BRANCH  10  12
HETATM   12  C   UNL     1      44.206 -18.059   5.156  1.00  0.00     0.257 C 
HETATM   13  N   UNL     1      43.571 -18.959   4.335  1.00  0.00    -0.308 N 
HETATM   14  H   UNL     1      42.691 -18.690   3.921  1.00  0.00     0.170 HD
HETATM   15  O   UNL     1      45.316 -18.136   5.666  1.00  0.00    -0.267 OA
BRANCH  13  16
HETATM   16  C   UNL     1      44.043 -20.243   4.027  1.00  0.00     0.129 A 
HETATM   17  N   UNL     1      44.474 -21.065   4.998  1.00  0.00    -0.243 NA
HETATM   18  C   UNL     1      44.897 -22.298   4.646  1.00  0.00     0.119 A 
HETATM   19  C   UNL     1      44.901 -22.766   3.345  1.00  0.00     0.019 A 
HETATM   20  C   UNL     1      44.448 -21.913   2.348  1.00  0.00     0.005 A 
HETATM   21  C   UNL     1      44.017 -20.633   2.691  1.00  0.00     0.050 A 
ENDBRANCH  13  16
ENDBRANCH  10  12
BRANCH   9  22
HETATM   22  C   UNL     1      42.724 -16.379   2.988  1.00  0.00    -0.029 A 
HETATM   23  C   UNL     1      41.333 -16.571   3.062  1.00  0.00     0.009 A 
HETATM   24  C   UNL     1      40.622 -17.059   1.965  1.00  0.00     0.001 A 
HETATM   25  C   UNL     1      41.287 -17.354   0.777  1.00  0.00     0.000 A 
HETATM   26  C   UNL     1      42.662 -17.154   0.680  1.00  0.00     0.001 A 
HETATM   27  C   UNL     1      43.376 -16.662   1.775  1.00  0.00     0.009 A 
ENDBRANCH   9  22
TORSDOF 3
ENDMDL
MODEL 2
REMARK VINA RESULT:      -8.4      2.103      4.038
REMARK  3 active torsions:
REMARK  status: ('A' for Active; 'I' for Inactive)
REMARK    1  A    between atoms: C_9  and  C_10 
REMARK    2  A    between atoms: C_16  and  C_17 
REMARK       I    between atoms: C_17  and  N_18 
REMARK    3  A    between atoms: N_18  and  C_19 
ROOT
HETATM    1  C   UNL     1      40.568 -16.143   1.418  1.00  0.00     0.070 C 
HETATM    2  C   UNL     1      40.597 -15.456   2.761  1.00  0.00     0.037 C 
HETATM    3  N   UNL     1      40.052 -14.174   2.792  1.00  0.00    -0.191 N 
HETATM    4  C   UNL     1      39.761 -13.536   3.946  1.00  0.00     0.735 A 
HETATM    5  N   UNL     1      40.159 -14.084   5.134  1.00  0.00    -0.092 N 
HETATM    6  N   UNL     1      39.711 -13.343   6.160  1.00  0.00     0.012 NA
HETATM    7  N   UNL     1      39.080 -12.325   5.583  1.00  0.00     0.033 NA
HETATM    8  N   UNL     1      39.103 -12.432   4.205  1.00  0.00     0.030 NA
HETATM    9  C   UNL     1      40.927 -15.320   5.261  1.00  0.00     0.198 C 
HETATM   10  C   UNL     1      41.039 -16.026   3.911  1.00  0.00     0.062 C 
HETATM   11  H   UNL     1      39.642 -13.818   1.932  1.00  0.00     0.184 HD
ENDROOT
BRANCH  10  12
HETATM   12  C   UNL     1      41.540 -17.423   4.006  1.00  0.00     0.257 C 
HETATM   13  N   UNL     1      42.705 -17.627   3.304  1.00  0.00    -0.308 N 
HETATM   14  H   UNL     1      43.136 -16.834   2.853  1.00  0.00     0.170 HD
HETATM   15  O   UNL     1      40.920 -18.209   4.708  1.00  0.00    -0.267 OA
BRANCH  13  16
HETATM   16  C   UNL     1      43.348 -18.863   3.152  1.00  0.00     0.129 A 
HETATM   17  N   UNL     1      44.203 -19.309   4.088  1.00  0.00    -0.243 NA
HETATM   18  C   UNL     1      44.777 -20.517   3.900  1.00  0.00     0.119 A 
HETATM   19  C   UNL     1      44.526 -21.325   2.806  1.00  0.00     0.019 A 
HETATM   20  C   UNL     1      43.636 -20.860   1.848  1.00  0.00     0.005 A 
HETATM   21  C   UNL     1      43.042 -19.611   2.019  1.00  0.00     0.050 A 
ENDBRANCH  13  16
ENDBRANCH  10  12
BRANCH   9  22
HETATM   22  C   UNL     1      42.300 -15.040   5.867  1.00  0.00    -0.029 A 
HETATM   23  C   UNL     1      42.827 -15.927   6.822  1.00  0.00     0.009 A 
HETATM   24  C   UNL     1      44.081 -15.699   7.391  1.00  0.00     0.001 A 
HETATM   25  C   UNL     1      44.830 -14.589   7.008  1.00  0.00     0.000 A 
HETATM   26  C   UNL     1      44.332 -13.709   6.050  1.00  0.00     0.001 A 
HETATM   27  C   UNL     1      43.079 -13.936   5.477  1.00  0.00     0.009 A 
ENDBRANCH   9  22
TORSDOF 3
ENDMDL
MODEL 3
REMARK VINA RESULT:      -8.2      1.845      2.482
REMARK  3 active torsions:
REMARK  status: ('A' for Active; 'I' for Inactive)
REMARK    1  A    between atoms: C_9  and  C_10 
REMARK    2  A    between atoms: C_16  and  C_17 
REMARK       I    between atoms: C_17  and  N_18 
REMARK    3  A    between atoms: N_18  and  C_19 
ROOT
HETATM    1  C   UNL     1      43.449 -18.445   8.128  1.00  0.00     0.070 C 
HETATM    2  C   UNL     1      43.508 -17.169   7.326  1.00  0.00     0.037 C 
HETATM    3  N   UNL     1      43.862 -16.026   8.040  1.00  0.00    -0.191 N 
HETATM    4  C   UNL     1      44.215 -14.871   7.435  1.00  0.00     0.735 A 
HETATM    5  N   UNL     1      44.069 -14.752   6.081  1.00  0.00    -0.092 N 
HETATM    6  N   UNL     1      44.543 -13.567   5.666  1.00  0.00     0.012 NA
HETATM    7  N   UNL     1      44.935 -12.957   6.780  1.00  0.00     0.033 NA
HETATM    8  N   UNL     1      44.736 -13.758   7.890  1.00  0.00     0.030 NA
HETATM    9  C   UNL     1      43.513 -15.787   5.212  1.00  0.00     0.198 C 
HETATM   10  C   UNL     1      43.318 -17.090   5.984  1.00  0.00     0.062 C 
HETATM   11  H   UNL     1      44.093 -16.141   9.024  1.00  0.00     0.184 HD
ENDROOT
BRANCH  10  12
HETATM   12  C   UNL     1      43.041 -18.264   5.115  1.00  0.00     0.257 C 
HETATM   13  N   UNL     1      44.182 -18.871   4.647  1.00  0.00    -0.308 N 
HETATM   14  H   UNL     1      45.074 -18.521   4.964  1.00  0.00     0.170 HD
HETATM   15  O   UNL     1      41.874 -18.592   4.947  1.00  0.00    -0.267 OA
BRANCH  13  16
HETATM   16  C   UNL     1      44.213 -19.943   3.743  1.00  0.00     0.129 A 
HETATM   17  N   UNL     1      44.617 -21.161   4.140  1.00  0.00    -0.243 NA
HETATM   18  C   UNL     1      44.605 -22.161   3.233  1.00  0.00     0.119 A 
HETATM   19  C   UNL     1      44.190 -22.006   1.924  1.00  0.00     0.019 A 
HETATM   20  C   UNL     1      43.767 -20.746   1.523  1.00  0.00     0.005 A 
HETATM   21  C   UNL     1      43.782 -19.698   2.442  1.00  0.00     0.050 A 
ENDBRANCH  13  16
ENDBRANCH  10  12
BRANCH   9  22
HETATM   22  C   UNL     1      42.211 -15.309   4.573  1.00  0.00    -0.029 A 
HETATM   23  C   UNL     1      42.088 -15.313   3.172  1.00  0.00     0.009 A 
HETATM   24  C   UNL     1      40.909 -14.886   2.559  1.00  0.00     0.001 A 
HETATM   25  C   UNL     1      39.834 -14.457   3.335  1.00  0.00     0.000 A 
HETATM   26  C   UNL     1      39.932 -14.463   4.724  1.00  0.00     0.001 A 
HETATM   27  C   UNL     1      41.109 -14.893   5.341  1.00  0.00     0.009 A 
ENDBRANCH   9  22
TORSDOF 3
ENDMDL
MODEL 4
REMARK VINA RESULT:      -7.9      2.410      2.836
REMARK  3 active torsions:
REMARK  status: ('A' for Active; 'I' for Inactive)
REMARK    1  A    between atoms: C_9  and  C_10 
REMARK    2  A    between atoms: C_16  and  C_17 
REMARK       I    between atoms: C_17  and  N_18 
REMARK    3  A    between atoms: N_18  and  C_19 
ROOT
HETATM    1  C   UNL     1      40.891 -16.741   6.629  1.00  0.00     0.070 C 
HETATM    2  C   UNL     1      40.744 -15.482   5.810  1.00  0.00     0.037 C 
HETATM    3  N   UNL     1      39.842 -14.544   6.306  1.00  0.00    -0.191 N 
HETATM    4  C   UNL     1      39.788 -13.274   5.849  1.00  0.00     0.735 A 
HETATM    5  N   UNL     1      40.526 -12.925   4.752  1.00  0.00    -0.092 N 
HETATM    6  N   UNL     1      40.397 -11.612   4.505  1.00  0.00     0.012 NA
HETATM    7  N   UNL     1      39.546 -11.182   5.431  1.00  0.00     0.033 NA
HETATM    8  N   UNL     1      39.159 -12.206   6.275  1.00  0.00     0.030 NA
HETATM    9  C   UNL     1      41.363 -13.847   3.988  1.00  0.00     0.198 C 
HETATM   10  C   UNL     1      41.473 -15.193   4.701  1.00  0.00     0.062 C 
HETATM   11  H   UNL     1      39.387 -14.753   7.192  1.00  0.00     0.184 HD
ENDROOT
BRANCH  10  12
HETATM   12  C   UNL     1      42.533 -16.077   4.151  1.00  0.00     0.257 C 
HETATM   13  N   UNL     1      42.102 -17.362   3.925  1.00  0.00    -0.308 N 
HETATM   14  H   UNL     1      41.129 -17.575   4.088  1.00  0.00     0.170 HD
HETATM   15  O   UNL     1      43.629 -15.584   3.917  1.00  0.00    -0.267 OA
BRANCH  13  16
HETATM   16  C   UNL     1      42.912 -18.421   3.492  1.00  0.00     0.129 A 
HETATM   17  N   UNL     1      43.776 -19.012   4.335  1.00  0.00    -0.243 NA
HETATM   18  C   UNL     1      44.516 -20.041   3.870  1.00  0.00     0.119 A 
HETATM   19  C   UNL     1      44.426 -20.529   2.579  1.00  0.00     0.019 A 
HETATM   20  C   UNL     1      43.526 -19.919   1.716  1.00  0.00     0.005 A 
HETATM   21  C   UNL     1      42.762 -18.848   2.176  1.00  0.00     0.050 A 
ENDBRANCH  13  16
ENDBRANCH  10  12
BRANCH   9  22
HETATM   22  C   UNL     1      40.830 -14.003   2.565  1.00  0.00    -0.029 A 
HETATM   23  C   UNL     1      39.507 -14.435   2.367  1.00  0.00     0.009 A 
HETATM   24  C   UNL     1      38.990 -14.583   1.079  1.00  0.00     0.001 A 
HETATM   25  C   UNL     1      39.784 -14.294  -0.028  1.00  0.00     0.000 A 
HETATM   26  C   UNL     1      41.091 -13.848   0.148  1.00  0.00     0.001 A 
HETATM   27  C   UNL     1      41.610 -13.695   1.436  1.00  0.00     0.009 A 
ENDBRANCH   9  22
TORSDOF 3
ENDMDL
MODEL 5
REMARK VINA RESULT:      -7.9      3.420      6.188
REMARK  3 active torsions:
REMARK  status: ('A' for Active; 'I' for Inactive)
REMARK    1  A    between atoms: C_9  and  C_10 
REMARK    2  A    between atoms: C_16  and  C_17 
REMARK       I    between atoms: C_17  and  N_18 
REMARK    3  A    between atoms: N_18  and  C_19 
ROOT
HETATM    1  C   UNL     1      41.700 -11.911   1.665  1.00  0.00     0.070 C 
HETATM    2  C   UNL     1      41.981 -13.105   2.543  1.00  0.00     0.037 C 
HETATM    3  N   UNL     1      42.768 -12.853   3.665  1.00  0.00    -0.191 N 
HETATM    4  C   UNL     1      42.891 -13.737   4.679  1.00  0.00     0.735 A 
HETATM    5  N   UNL     1      42.364 -14.992   4.542  1.00  0.00    -0.092 N 
HETATM    6  N   UNL     1      42.522 -15.688   5.679  1.00  0.00     0.012 NA
HETATM    7  N   UNL     1      43.184 -14.862   6.484  1.00  0.00     0.033 NA
HETATM    8  N   UNL     1      43.421 -13.644   5.874  1.00  0.00     0.030 NA
HETATM    9  C   UNL     1      41.690 -15.483   3.342  1.00  0.00     0.198 C 
HETATM   10  C   UNL     1      41.466 -14.346   2.348  1.00  0.00     0.062 C 
HETATM   11  H   UNL     1      43.054 -11.892   3.831  1.00  0.00     0.184 HD
ENDROOT
BRANCH  10  12
HETATM   12  C   UNL     1      40.533 -14.693   1.243  1.00  0.00     0.257 C 
HETATM   13  N   UNL     1      41.101 -14.569  -0.002  1.00  0.00    -0.308 N 
HETATM   14  H   UNL     1      42.078 -14.323  -0.060  1.00  0.00     0.170 HD
HETATM   15  O   UNL     1      39.412 -15.083   1.540  1.00  0.00    -0.267 OA
BRANCH  13  16
HETATM   16  C   UNL     1      40.426 -14.750  -1.218  1.00  0.00     0.129 A 
HETATM   17  N   UNL     1      39.378 -13.974  -1.541  1.00  0.00    -0.243 NA
HETATM   18  C   UNL     1      38.780 -14.178  -2.735  1.00  0.00     0.119 A 
HETATM   19  C   UNL     1      39.193 -15.131  -3.647  1.00  0.00     0.019 A 
HETATM   20  C   UNL     1      40.280 -15.924  -3.309  1.00  0.00     0.005 A 
HETATM   21  C   UNL     1      40.904 -15.736  -2.077  1.00  0.00     0.050 A 
ENDBRANCH  13  16
ENDBRANCH  10  12
BRANCH   9  22
HETATM   22  C   UNL     1      42.477 -16.633   2.718  1.00  0.00    -0.029 A 
HETATM   23  C   UNL     1      42.056 -17.956   2.937  1.00  0.00     0.009 A 
HETATM   24  C   UNL     1      42.753 -19.028   2.375  1.00  0.00     0.001 A 
HETATM   25  C   UNL     1      43.873 -18.793   1.581  1.00  0.00     0.000 A 
HETATM   26  C   UNL     1      44.294 -17.488   1.338  1.00  0.00     0.001 A 
HETATM   27  C   UNL     1      43.597 -16.413   1.895  1.00  0.00     0.009 A 
ENDBRANCH   9  22
TORSDOF 3
ENDMDL
MODEL 6
REMARK VINA RESULT:      -7.8      2.535      5.535
REMARK  3 active torsions:
REMARK  status: ('A' for Active; 'I' for Inactive)
REMARK    1  A    between atoms: C_9  and  C_10 
REMARK    2  A    between atoms: C_16  and  C_17 
REMARK       I    between atoms: C_17  and  N_18 
REMARK    3  A    between atoms: N_18  and  C_19 
ROOT
HETATM    1  C   UNL     1      43.032 -13.189   4.235  1.00  0.00     0.070 C 
HETATM    2  C   UNL     1      42.987 -14.595   4.780  1.00  0.00     0.037 C 
HETATM    3  N   UNL     1      43.612 -14.783   6.011  1.00  0.00    -0.191 N 
HETATM    4  C   UNL     1      43.437 -15.899   6.751  1.00  0.00     0.735 A 
HETATM    5  N   UNL     1      42.757 -16.958   6.218  1.00  0.00    -0.092 N 
HETATM    6  N   UNL     1      42.625 -17.933   7.132  1.00  0.00     0.012 NA
HETATM    7  N   UNL     1      43.265 -17.473   8.202  1.00  0.00     0.033 NA
HETATM    8  N   UNL     1      43.776 -16.207   7.979  1.00  0.00     0.030 NA
HETATM    9  C   UNL     1      42.219 -17.000   4.860  1.00  0.00     0.198 C 
HETATM   10  C   UNL     1      42.330 -15.629   4.195  1.00  0.00     0.062 C 
HETATM   11  H   UNL     1      44.009 -13.964   6.465  1.00  0.00     0.184 HD
ENDROOT
BRANCH  10  12
HETATM   12  C   UNL     1      41.545 -15.509   2.938  1.00  0.00     0.257 C 
HETATM   13  N   UNL     1      42.326 -15.254   1.836  1.00  0.00    -0.308 N 
HETATM   14  H   UNL     1      43.328 -15.230   1.955  1.00  0.00     0.170 HD
HETATM   15  O   UNL     1      40.336 -15.689   2.996  1.00  0.00    -0.267 OA
BRANCH  13  16
HETATM   16  C   UNL     1      41.841 -15.011   0.543  1.00  0.00     0.129 A 
HETATM   17  N   UNL     1      41.777 -13.759   0.060  1.00  0.00    -0.243 NA
HETATM   18  C   UNL     1      41.323 -13.586  -1.200  1.00  0.00     0.119 A 
HETATM   19  C   UNL     1      40.932 -14.625  -2.025  1.00  0.00     0.019 A 
HETATM   20  C   UNL     1      41.008 -15.916  -1.522  1.00  0.00     0.005 A 
HETATM   21  C   UNL     1      41.465 -16.113  -0.219  1.00  0.00     0.050 A 
ENDBRANCH  13  16
ENDBRANCH  10  12
BRANCH   9  22
HETATM   22  C   UNL     1      42.915 -18.084   4.039  1.00  0.00    -0.029 A 
HETATM   23  C   UNL     1      44.094 -18.671   4.530  1.00  0.00     0.009 A 
HETATM   24  C   UNL     1      44.750 -19.667   3.805  1.00  0.00     0.001 A 
HETATM   25  C   UNL     1      44.234 -20.096   2.585  1.00  0.00     0.000 A 
HETATM   26  C   UNL     1      43.057 -19.539   2.092  1.00  0.00     0.001 A 
HETATM   27  C   UNL     1      42.396 -18.545   2.816  1.00  0.00     0.009 A 
ENDBRANCH   9  22
TORSDOF 3
ENDMDL
MODEL 7
REMARK VINA RESULT:      -7.8      2.950      5.153
REMARK  3 active torsions:
REMARK  status: ('A' for Active; 'I' for Inactive)
REMARK    1  A    between atoms: C_9  and  C_10 
REMARK    2  A    between atoms: C_16  and  C_17 
REMARK       I    between atoms: C_17  and  N_18 
REMARK    3  A    between atoms: N_18  and  C_19 
ROOT
HETATM    1  C   UNL     1      43.798 -17.364   1.351  1.00  0.00     0.070 C 
HETATM    2  C   UNL     1      42.618 -16.426   1.407  1.00  0.00     0.037 C 
HETATM    3  N   UNL     1      42.325 -15.756   0.221  1.00  0.00    -0.191 N 
HETATM    4  C   UNL     1      41.163 -15.095   0.028  1.00  0.00     0.735 A 
HETATM    5  N   UNL     1      40.303 -14.930   1.078  1.00  0.00    -0.092 N 
HETATM    6  N   UNL     1      39.180 -14.320   0.667  1.00  0.00     0.012 NA
HETATM    7  N   UNL     1      39.387 -14.081  -0.625  1.00  0.00     0.033 NA
HETATM    8  N   UNL     1      40.617 -14.558  -1.036  1.00  0.00     0.030 NA
HETATM    9  C   UNL     1      40.560 -15.390   2.441  1.00  0.00     0.198 C 
HETATM   10  C   UNL     1      41.812 -16.264   2.488  1.00  0.00     0.062 C 
HETATM   11  H   UNL     1      42.891 -15.977  -0.594  1.00  0.00     0.184 HD
ENDROOT
BRANCH  10  12
HETATM   12  C   UNL     1      41.974 -17.009   3.764  1.00  0.00     0.257 C 
HETATM   13  N   UNL     1      42.944 -16.476   4.580  1.00  0.00    -0.308 N 
HETATM   14  H   UNL     1      43.403 -15.627   4.286  1.00  0.00     0.170 HD
HETATM   15  O   UNL     1      41.228 -17.955   3.976  1.00  0.00    -0.267 OA
BRANCH  13  16
HETATM   16  C   UNL     1      43.362 -17.027   5.800  1.00  0.00     0.129 A 
HETATM   17  N   UNL     1      42.781 -16.657   6.954  1.00  0.00    -0.243 NA
HETATM   18  C   UNL     1      43.209 -17.235   8.096  1.00  0.00     0.119 A 
HETATM   19  C   UNL     1      44.203 -18.196   8.144  1.00  0.00     0.019 A 
HETATM   20  C   UNL     1      44.794 -18.578   6.948  1.00  0.00     0.005 A 
HETATM   21  C   UNL     1      44.372 -17.983   5.760  1.00  0.00     0.050 A 
ENDBRANCH  13  16
ENDBRANCH  10  12
BRANCH   9  22
HETATM   22  C   UNL     1      40.662 -14.205   3.398  1.00  0.00    -0.029 A 
HETATM   23  C   UNL     1      39.803 -14.138   4.509  1.00  0.00     0.009 A 
HETATM   24  C   UNL     1      39.875 -13.069   5.403  1.00  0.00     0.001 A 
HETATM   25  C   UNL     1      40.812 -12.057   5.206  1.00  0.00     0.000 A 
HETATM   26  C   UNL     1      41.683 -12.115   4.122  1.00  0.00     0.001 A 
HETATM   27  C   UNL     1      41.616 -13.185   3.227  1.00  0.00     0.009 A 
ENDBRANCH   9  22
TORSDOF 3
ENDMDL
MODEL 8
REMARK VINA RESULT:      -7.5      2.771      6.362
REMARK  3 active torsions:
REMARK  status: ('A' for Active; 'I' for Inactive)
REMARK    1  A    between atoms: C_9  and  C_10 
REMARK    2  A    between atoms: C_16  and  C_17 
REMARK       I    between atoms: C_17  and  N_18 
REMARK    3  A    between atoms: N_18  and  C_19 
ROOT
HETATM    1  C   UNL     1      43.967 -13.703   6.915  1.00  0.00     0.070 C 
HETATM    2  C   UNL     1      43.703 -15.072   6.339  1.00  0.00     0.037 C 
HETATM    3  N   UNL     1      44.623 -16.058   6.688  1.00  0.00    -0.191 N 
HETATM    4  C   UNL     1      44.393 -17.372   6.480  1.00  0.00     0.735 A 
HETATM    5  N   UNL     1      43.298 -17.755   5.756  1.00  0.00    -0.092 N 
HETATM    6  N   UNL     1      43.205 -19.094   5.728  1.00  0.00     0.012 NA
HETATM    7  N   UNL     1      44.272 -19.515   6.400  1.00  0.00     0.033 NA
HETATM    8  N   UNL     1      45.021 -18.453   6.873  1.00  0.00     0.030 NA
HETATM    9  C   UNL     1      42.347 -16.833   5.140  1.00  0.00     0.198 C 
HETATM   10  C   UNL     1      42.618 -15.399   5.591  1.00  0.00     0.062 C 
HETATM   11  H   UNL     1      45.369 -15.798   7.329  1.00  0.00     0.184 HD
ENDROOT
BRANCH  10  12
HETATM   12  C   UNL     1      41.527 -14.448   5.252  1.00  0.00     0.257 C 
HETATM   13  N   UNL     1      41.781 -13.718   4.115  1.00  0.00    -0.308 N 
HETATM   14  H   UNL     1      42.621 -13.920   3.595  1.00  0.00     0.170 HD
HETATM   15  O   UNL     1      40.529 -14.443   5.960  1.00  0.00    -0.267 OA
BRANCH  13  16
HETATM   16  C   UNL     1      40.963 -12.693   3.616  1.00  0.00     0.129 A 
HETATM   17  N   UNL     1      41.215 -11.408   3.918  1.00  0.00    -0.243 NA
HETATM   18  C   UNL     1      40.409 -10.462   3.391  1.00  0.00     0.119 A 
HETATM   19  C   UNL     1      39.347 -10.739   2.550  1.00  0.00     0.019 A 
HETATM   20  C   UNL     1      39.098 -12.068   2.237  1.00  0.00     0.005 A 
HETATM   21  C   UNL     1      39.913 -13.060   2.780  1.00  0.00     0.050 A 
ENDBRANCH  13  16
ENDBRANCH  10  12
BRANCH   9  22
HETATM   22  C   UNL     1      42.381 -16.963   3.619  1.00  0.00    -0.029 A 
HETATM   23  C   UNL     1      43.613 -16.885   2.947  1.00  0.00     0.009 A 
HETATM   24  C   UNL     1      43.676 -17.005   1.558  1.00  0.00     0.001 A 
HETATM   25  C   UNL     1      42.512 -17.212   0.821  1.00  0.00     0.000 A 
HETATM   26  C   UNL     1      41.285 -17.310   1.472  1.00  0.00     0.001 A 
HETATM   27  C   UNL     1      41.218 -17.194   2.862  1.00  0.00     0.009 A 
ENDBRANCH   9  22
TORSDOF 3
ENDMDL
MODEL 9
REMARK VINA RESULT:      -7.5      4.601      6.051
REMARK  3 active torsions:
REMARK  status: ('A' for Active; 'I' for Inactive)
REMARK    1  A    between atoms: C_9  and  C_10 
REMARK    2  A    between atoms: C_16  and  C_17 
REMARK       I    between atoms: C_17  and  N_18 
REMARK    3  A    between atoms: N_18  and  C_19 
ROOT
HETATM    1  C   UNL     1      40.935 -12.386   2.449  1.00  0.00     0.070 C 
HETATM    2  C   UNL     1      41.208 -12.500   0.970  1.00  0.00     0.037 C 
HETATM    3  N   UNL     1      41.373 -11.293   0.294  1.00  0.00    -0.191 N 
HETATM    4  C   UNL     1      41.877 -11.223  -0.957  1.00  0.00     0.735 A 
HETATM    5  N   UNL     1      42.087 -12.376  -1.660  1.00  0.00    -0.092 N 
HETATM    6  N   UNL     1      42.661 -12.101  -2.842  1.00  0.00     0.012 NA
HETATM    7  N   UNL     1      42.755 -10.775  -2.864  1.00  0.00     0.033 NA
HETATM    8  N   UNL     1      42.271 -10.215  -1.697  1.00  0.00     0.030 NA
HETATM    9  C   UNL     1      41.769 -13.716  -1.172  1.00  0.00     0.198 C 
HETATM   10  C   UNL     1      41.372 -13.671   0.302  1.00  0.00     0.062 C 
HETATM   11  H   UNL     1      41.340 -10.439   0.846  1.00  0.00     0.184 HD
ENDROOT
BRANCH  10  12
HETATM   12  C   UNL     1      41.322 -15.009   0.949  1.00  0.00     0.257 C 
HETATM   13  N   UNL     1      42.552 -15.449   1.376  1.00  0.00    -0.308 N 
HETATM   14  H   UNL     1      43.343 -14.830   1.274  1.00  0.00     0.170 HD
HETATM   15  O   UNL     1      40.229 -15.545   1.076  1.00  0.00    -0.267 OA
BRANCH  13  16
HETATM   16  C   UNL     1      42.807 -16.707   1.941  1.00  0.00     0.129 A 
HETATM   17  N   UNL     1      42.395 -16.994   3.187  1.00  0.00    -0.243 NA
HETATM   18  C   UNL     1      42.649 -18.228   3.672  1.00  0.00     0.119 A 
HETATM   19  C   UNL     1      43.297 -19.217   2.955  1.00  0.00     0.019 A 
HETATM   20  C   UNL     1      43.714 -18.915   1.666  1.00  0.00     0.005 A 
HETATM   21  C   UNL     1      43.470 -17.642   1.152  1.00  0.00     0.050 A 
ENDBRANCH  13  16
ENDBRANCH  10  12
BRANCH   9  22
HETATM   22  C   UNL     1      40.680 -14.355  -2.031  1.00  0.00    -0.029 A 
HETATM   23  C   UNL     1      39.418 -13.742  -2.115  1.00  0.00     0.009 A 
HETATM   24  C   UNL     1      38.405 -14.301  -2.896  1.00  0.00     0.001 A 
HETATM   25  C   UNL     1      38.639 -15.474  -3.608  1.00  0.00     0.000 A 
HETATM   26  C   UNL     1      39.888 -16.086  -3.551  1.00  0.00     0.001 A 
HETATM   27  C   UNL     1      40.906 -15.528  -2.774  1.00  0.00     0.009 A 
ENDBRANCH   9  22
TORSDOF 3
ENDMDL
MODEL 10
REMARK VINA RESULT:      -7.5      2.681      5.907
REMARK  3 active torsions:
REMARK  status: ('A' for Active; 'I' for Inactive)
REMARK    1  A    between atoms: C_9  and  C_10 
REMARK    2  A    between atoms: C_16  and  C_17 
REMARK       I    between atoms: C_17  and  N_18 
REMARK    3  A    between atoms: N_18  and  C_19 
ROOT
HETATM    1  C   UNL     1      43.200 -19.884   2.040  1.00  0.00     0.070 C 
HETATM    2  C   UNL     1      43.361 -19.012   3.261  1.00  0.00     0.037 C 
HETATM    3  N   UNL     1      43.538 -19.691   4.465  1.00  0.00    -0.191 N 
HETATM    4  C   UNL     1      43.956 -19.074   5.592  1.00  0.00     0.735 A 
HETATM    5  N   UNL     1      44.056 -17.711   5.612  1.00  0.00    -0.092 N 
HETATM    6  N   UNL     1      44.558 -17.300   6.787  1.00  0.00     0.012 NA
HETATM    7  N   UNL     1      44.717 -18.417   7.489  1.00  0.00     0.033 NA
HETATM    8  N   UNL     1      44.346 -19.530   6.757  1.00  0.00     0.030 NA
HETATM    9  C   UNL     1      43.705 -16.836   4.495  1.00  0.00     0.198 C 
HETATM   10  C   UNL     1      43.417 -17.656   3.239  1.00  0.00     0.062 C 
HETATM   11  H   UNL     1      43.589 -20.706   4.428  1.00  0.00     0.184 HD
ENDROOT
BRANCH  10  12
HETATM   12  C   UNL     1      43.345 -16.842   1.997  1.00  0.00     0.257 C 
HETATM   13  N   UNL     1      42.084 -16.358   1.741  1.00  0.00    -0.308 N 
HETATM   14  H   UNL     1      41.357 -16.536   2.418  1.00  0.00     0.170 HD
HETATM   15  O   UNL     1      44.381 -16.651   1.374  1.00  0.00    -0.267 OA
BRANCH  13  16
HETATM   16  C   UNL     1      41.715 -15.635   0.598  1.00  0.00     0.129 A 
HETATM   17  N   UNL     1      41.342 -16.273  -0.524  1.00  0.00    -0.243 NA
HETATM   18  C   UNL     1      40.975 -15.526  -1.588  1.00  0.00     0.119 A 
HETATM   19  C   UNL     1      40.949 -14.144  -1.583  1.00  0.00     0.019 A 
HETATM   20  C   UNL     1      41.328 -13.492  -0.418  1.00  0.00     0.005 A 
HETATM   21  C   UNL     1      41.721 -14.246   0.687  1.00  0.00     0.050 A 
ENDBRANCH  13  16
ENDBRANCH  10  12
BRANCH   9  22
HETATM   22  C   UNL     1      42.527 -15.938   4.866  1.00  0.00    -0.029 A 
HETATM   23  C   UNL     1      42.653 -14.544   4.734  1.00  0.00     0.009 A 
HETATM   24  C   UNL     1      41.592 -13.699   5.061  1.00  0.00     0.001 A 
HETATM   25  C   UNL     1      40.389 -14.232   5.517  1.00  0.00     0.000 A 
HETATM   26  C   UNL     1      40.239 -15.611   5.636  1.00  0.00     0.001 A 
HETATM   27  C   UNL     1      41.297 -16.461   5.307  1.00  0.00     0.009 A 
ENDBRANCH   9  22
TORSDOF 3
ENDMDL
