MODEL 1
REMARK VINA RESULT:      -8.9      0.000      0.000
REMARK  4 active torsions:
REMARK  status: ('A' for Active; 'I' for Inactive)
REMARK    1  A    between atoms: C_3  and  N_4 
REMARK       I    between atoms: N_4  and  C_5 
REMARK    2  A    between atoms: C_5  and  C_6 
REMARK    3  A    between atoms: C_7  and  C_8 
REMARK    4  A    between atoms: C_11  and  O_12 
ROOT
HETATM    1  C   UNL     1      41.290 -14.550   1.005  1.00  0.00     0.062 C 
HETATM    2  C   UNL     1      41.718 -14.217  -0.416  1.00  0.00     0.202 C 
HETATM    3  N   UNL     1      42.030 -12.791  -0.540  1.00  0.00    -0.083 N 
HETATM    4  C   UNL     1      41.667 -11.849   0.383  1.00  0.00     0.726 A 
HETATM    5  N   UNL     1      41.041 -12.240   1.513  1.00  0.00    -0.192 N 
HETATM    6  N   UNL     1      42.737 -12.250  -1.552  1.00  0.00    -0.141 NA
HETATM    7  C   UNL     1      42.714 -10.954  -1.205  1.00  0.00     0.162 A 
HETATM    8  C   UNL     1      43.368  -9.905  -2.013  1.00  0.00     0.096 C 
HETATM    9  N   UNL     1      42.068 -10.671  -0.022  1.00  0.00    -0.046 NA
HETATM   10  C   UNL     1      40.968 -13.579   1.896  1.00  0.00     0.037 C 
HETATM   11  C   UNL     1      40.558 -13.837   3.324  1.00  0.00     0.070 C 
HETATM   12  H   UNL     1      40.915 -11.545   2.246  1.00  0.00     0.184 HD
ENDROOT
BRANCH   1  13
HETATM   13  C   UNL     1      41.481 -15.952   1.450  1.00  0.00     0.256 C 
HETATM   14  N   UNL     1      42.755 -16.225   1.891  1.00  0.00    -0.323 N 
HETATM   15  H   UNL     1      43.425 -15.467   1.866  1.00  0.00     0.169 HD
HETATM   16  O   UNL     1      40.523 -16.715   1.399  1.00  0.00    -0.267 OA
BRANCH  14  17
HETATM   17  C   UNL     1      43.246 -17.458   2.392  1.00  0.00     0.041 A 
HETATM   18  C   UNL     1      43.519 -17.575   3.774  1.00  0.00    -0.035 A 
HETATM   19  C   UNL     1      43.286 -16.449   4.746  1.00  0.00     0.050 C 
HETATM   20  C   UNL     1      43.997 -18.797   4.284  1.00  0.00     0.009 A 
HETATM   21  C   UNL     1      44.214 -19.888   3.445  1.00  0.00     0.001 A 
HETATM   22  C   UNL     1      43.951 -19.772   2.087  1.00  0.00     0.002 A 
HETATM   23  C   UNL     1      43.471 -18.567   1.567  1.00  0.00     0.030 A 
ENDBRANCH  14  17
ENDBRANCH   1  13
BRANCH   2  24
HETATM   24  C   UNL     1      40.660 -14.586  -1.456  1.00  0.00    -0.028 A 
HETATM   25  C   UNL     1      39.400 -13.963  -1.477  1.00  0.00     0.012 A 
HETATM   26  C   UNL     1      38.458 -14.299  -2.451  1.00  0.00     0.037 A 
HETATM   27  C   UNL     1      38.756 -15.243  -3.433  1.00  0.00     0.068 A 
HETATM   28  C   UNL     1      40.000 -15.871  -3.420  1.00  0.00     0.037 A 
HETATM   29  C   UNL     1      40.946 -15.546  -2.439  1.00  0.00     0.012 A 
BRANCH  27  30
HETATM   30  O   UNL     1      37.753 -15.470  -4.334  1.00  0.00    -0.356 OA
HETATM   31  C   UNL     1      36.682 -14.533  -4.337  1.00  0.00     0.210 C 
ENDBRANCH  27  30
ENDBRANCH   2  24
TORSDOF 4
ENDMDL
MODEL 2
REMARK VINA RESULT:      -8.4      2.816      4.554
REMARK  4 active torsions:
REMARK  status: ('A' for Active; 'I' for Inactive)
REMARK    1  A    between atoms: C_3  and  N_4 
REMARK       I    between atoms: N_4  and  C_5 
REMARK    2  A    between atoms: C_5  and  C_6 
REMARK    3  A    between atoms: C_7  and  C_8 
REMARK    4  A    between atoms: C_11  and  O_12 
ROOT
HETATM    1  C   UNL     1      41.449 -15.155   4.833  1.00  0.00     0.062 C 
HETATM    2  C   UNL     1      41.522 -13.846   4.064  1.00  0.00     0.202 C 
HETATM    3  N   UNL     1      40.694 -12.822   4.706  1.00  0.00    -0.083 N 
HETATM    4  C   UNL     1      39.741 -13.095   5.649  1.00  0.00     0.726 A 
HETATM    5  N   UNL     1      39.580 -14.365   6.075  1.00  0.00    -0.192 N 
HETATM    6  N   UNL     1      40.798 -11.498   4.472  1.00  0.00    -0.141 NA
HETATM    7  C   UNL     1      39.828 -11.029   5.272  1.00  0.00     0.162 A 
HETATM    8  C   UNL     1      39.521  -9.589   5.383  1.00  0.00     0.096 C 
HETATM    9  N   UNL     1      39.159 -11.980   6.011  1.00  0.00    -0.046 NA
HETATM   10  C   UNL     1      40.502 -15.369   5.782  1.00  0.00     0.037 C 
HETATM   11  C   UNL     1      40.387 -16.632   6.597  1.00  0.00     0.070 C 
HETATM   12  H   UNL     1      38.973 -14.519   6.877  1.00  0.00     0.184 HD
ENDROOT
BRANCH   1  13
HETATM   13  C   UNL     1      42.596 -16.083   4.686  1.00  0.00     0.256 C 
HETATM   14  N   UNL     1      42.292 -17.237   4.000  1.00  0.00    -0.323 N 
HETATM   15  H   UNL     1      41.341 -17.343   3.675  1.00  0.00     0.169 HD
HETATM   16  O   UNL     1      43.677 -15.753   5.160  1.00  0.00    -0.267 OA
BRANCH  14  17
HETATM   17  C   UNL     1      43.170 -18.305   3.683  1.00  0.00     0.041 A 
HETATM   18  C   UNL     1      43.522 -18.524   2.333  1.00  0.00    -0.035 A 
HETATM   19  C   UNL     1      43.022 -17.652   1.212  1.00  0.00     0.050 C 
HETATM   20  C   UNL     1      44.400 -19.576   2.008  1.00  0.00     0.009 A 
HETATM   21  C   UNL     1      44.918 -20.408   2.998  1.00  0.00     0.001 A 
HETATM   22  C   UNL     1      44.569 -20.197   4.324  1.00  0.00     0.002 A 
HETATM   23  C   UNL     1      43.703 -19.154   4.663  1.00  0.00     0.030 A 
ENDBRANCH  14  17
ENDBRANCH   1  13
BRANCH   2  24
HETATM   24  C   UNL     1      41.089 -13.990   2.605  1.00  0.00    -0.028 A 
HETATM   25  C   UNL     1      41.975 -13.730   1.545  1.00  0.00     0.012 A 
HETATM   26  C   UNL     1      41.565 -13.891   0.220  1.00  0.00     0.037 A 
HETATM   27  C   UNL     1      40.276 -14.334  -0.076  1.00  0.00     0.068 A 
HETATM   28  C   UNL     1      39.387 -14.590   0.966  1.00  0.00     0.037 A 
HETATM   29  C   UNL     1      39.789 -14.420   2.297  1.00  0.00     0.012 A 
BRANCH  27  30
HETATM   30  O   UNL     1      40.006 -14.463  -1.411  1.00  0.00    -0.356 OA
HETATM   31  C   UNL     1      40.824 -15.375  -2.135  1.00  0.00     0.210 C 
ENDBRANCH  27  30
ENDBRANCH   2  24
TORSDOF 4
ENDMDL
MODEL 3
REMARK VINA RESULT:      -8.3      2.868      4.460
REMARK  4 active torsions:
REMARK  status: ('A' for Active; 'I' for Inactive)
REMARK    1  A    between atoms: C_3  and  N_4 
REMARK       I    between atoms: N_4  and  C_5 
REMARK    2  A    between atoms: C_5  and  C_6 
REMARK    3  A    between atoms: C_7  and  C_8 
REMARK    4  A    between atoms: C_11  and  O_12 
ROOT
HETATM    1  C   UNL     1      41.321 -15.043   4.620  1.00  0.00     0.062 C 
HETATM    2  C   UNL     1      41.185 -13.691   3.937  1.00  0.00     0.202 C 
HETATM    3  N   UNL     1      40.512 -12.733   4.818  1.00  0.00    -0.083 N 
HETATM    4  C   UNL     1      39.815 -13.090   5.940  1.00  0.00     0.726 A 
HETATM    5  N   UNL     1      39.785 -14.387   6.312  1.00  0.00    -0.192 N 
HETATM    6  N   UNL     1      40.532 -11.396   4.649  1.00  0.00    -0.141 NA
HETATM    7  C   UNL     1      39.770 -11.004   5.682  1.00  0.00     0.162 A 
HETATM    8  C   UNL     1      39.469  -9.584   5.951  1.00  0.00     0.096 C 
HETATM    9  N   UNL     1      39.314 -12.017   6.497  1.00  0.00    -0.046 NA
HETATM   10  C   UNL     1      40.631 -15.341   5.749  1.00  0.00     0.037 C 
HETATM   11  C   UNL     1      40.736 -16.651   6.489  1.00  0.00     0.070 C 
HETATM   12  H   UNL     1      39.388 -14.606   7.224  1.00  0.00     0.184 HD
ENDROOT
BRANCH   1  13
HETATM   13  C   UNL     1      42.419 -15.923   4.150  1.00  0.00     0.256 C 
HETATM   14  N   UNL     1      42.044 -17.236   3.981  1.00  0.00    -0.323 N 
HETATM   15  H   UNL     1      41.085 -17.473   4.192  1.00  0.00     0.169 HD
HETATM   16  O   UNL     1      43.520 -15.423   3.949  1.00  0.00    -0.267 OA
BRANCH  14  17
HETATM   17  C   UNL     1      42.854 -18.310   3.531  1.00  0.00     0.041 A 
HETATM   18  C   UNL     1      43.711 -18.953   4.451  1.00  0.00    -0.035 A 
HETATM   19  C   UNL     1      43.784 -18.562   5.903  1.00  0.00     0.050 C 
HETATM   20  C   UNL     1      44.512 -20.027   4.018  1.00  0.00     0.009 A 
HETATM   21  C   UNL     1      44.479 -20.457   2.693  1.00  0.00     0.001 A 
HETATM   22  C   UNL     1      43.641 -19.821   1.787  1.00  0.00     0.002 A 
HETATM   23  C   UNL     1      42.836 -18.758   2.204  1.00  0.00     0.030 A 
ENDBRANCH  14  17
ENDBRANCH   1  13
BRANCH   2  24
HETATM   24  C   UNL     1      40.422 -13.769   2.615  1.00  0.00    -0.028 A 
HETATM   25  C   UNL     1      40.922 -13.181   1.440  1.00  0.00     0.012 A 
HETATM   26  C   UNL     1      40.219 -13.284   0.239  1.00  0.00     0.037 A 
HETATM   27  C   UNL     1      39.019 -13.991   0.176  1.00  0.00     0.068 A 
HETATM   28  C   UNL     1      38.509 -14.575   1.334  1.00  0.00     0.037 A 
HETATM   29  C   UNL     1      39.205 -14.465   2.545  1.00  0.00     0.012 A 
BRANCH  27  30
HETATM   30  O   UNL     1      38.439 -14.029  -1.062  1.00  0.00    -0.356 OA
HETATM   31  C   UNL     1      39.323 -14.164  -2.170  1.00  0.00     0.210 C 
ENDBRANCH  27  30
ENDBRANCH   2  24
TORSDOF 4
ENDMDL
MODEL 4
REMARK VINA RESULT:      -8.2      4.507      6.389
REMARK  4 active torsions:
REMARK  status: ('A' for Active; 'I' for Inactive)
REMARK    1  A    between atoms: C_3  and  N_4 
REMARK       I    between atoms: N_4  and  C_5 
REMARK    2  A    between atoms: C_5  and  C_6 
REMARK    3  A    between atoms: C_7  and  C_8 
REMARK    4  A    between atoms: C_11  and  O_12 
ROOT
HETATM    1  C   UNL     1      43.292 -16.165   5.516  1.00  0.00     0.062 C 
HETATM    2  C   UNL     1      44.036 -14.922   5.054  1.00  0.00     0.202 C 
HETATM    3  N   UNL     1      44.679 -14.253   6.187  1.00  0.00    -0.083 N 
HETATM    4  C   UNL     1      44.376 -14.513   7.496  1.00  0.00     0.726 A 
HETATM    5  N   UNL     1      43.483 -15.482   7.786  1.00  0.00    -0.192 N 
HETATM    6  N   UNL     1      45.662 -13.337   6.077  1.00  0.00    -0.141 NA
HETATM    7  C   UNL     1      45.869 -13.039   7.369  1.00  0.00     0.162 A 
HETATM    8  C   UNL     1      46.878 -12.052   7.802  1.00  0.00     0.096 C 
HETATM    9  N   UNL     1      45.099 -13.742   8.269  1.00  0.00    -0.046 NA
HETATM   10  C   UNL     1      43.041 -16.395   6.829  1.00  0.00     0.037 C 
HETATM   11  C   UNL     1      42.331 -17.616   7.357  1.00  0.00     0.070 C 
HETATM   12  H   UNL     1      43.386 -15.757   8.761  1.00  0.00     0.184 HD
ENDROOT
BRANCH   1  13
HETATM   13  C   UNL     1      43.078 -17.230   4.506  1.00  0.00     0.256 C 
HETATM   14  N   UNL     1      44.061 -18.192   4.498  1.00  0.00    -0.323 N 
HETATM   15  H   UNL     1      44.819 -18.083   5.158  1.00  0.00     0.169 HD
HETATM   16  O   UNL     1      42.078 -17.171   3.800  1.00  0.00    -0.267 OA
BRANCH  14  17
HETATM   17  C   UNL     1      44.134 -19.340   3.668  1.00  0.00     0.041 A 
HETATM   18  C   UNL     1      44.385 -20.599   4.259  1.00  0.00    -0.035 A 
HETATM   19  C   UNL     1      44.554 -20.778   5.745  1.00  0.00     0.050 C 
HETATM   20  C   UNL     1      44.449 -21.745   3.446  1.00  0.00     0.009 A 
HETATM   21  C   UNL     1      44.280 -21.656   2.066  1.00  0.00     0.001 A 
HETATM   22  C   UNL     1      44.040 -20.420   1.483  1.00  0.00     0.002 A 
HETATM   23  C   UNL     1      43.967 -19.273   2.278  1.00  0.00     0.030 A 
ENDBRANCH  14  17
ENDBRANCH   1  13
BRANCH   2  24
HETATM   24  C   UNL     1      43.130 -13.921   4.337  1.00  0.00    -0.028 A 
HETATM   25  C   UNL     1      43.086 -13.840   2.934  1.00  0.00     0.012 A 
HETATM   26  C   UNL     1      42.234 -12.934   2.300  1.00  0.00     0.037 A 
HETATM   27  C   UNL     1      41.394 -12.108   3.046  1.00  0.00     0.068 A 
HETATM   28  C   UNL     1      41.431 -12.174   4.437  1.00  0.00     0.037 A 
HETATM   29  C   UNL     1      42.293 -13.074   5.079  1.00  0.00     0.012 A 
BRANCH  27  30
HETATM   30  O   UNL     1      40.600 -11.278   2.304  1.00  0.00    -0.356 OA
HETATM   31  C   UNL     1      39.875 -11.882   1.239  1.00  0.00     0.210 C 
ENDBRANCH  27  30
ENDBRANCH   2  24
TORSDOF 4
ENDMDL
MODEL 5
REMARK VINA RESULT:      -7.7      3.372      5.988
REMARK  4 active torsions:
REMARK  status: ('A' for Active; 'I' for Inactive)
REMARK    1  A    between atoms: C_3  and  N_4 
REMARK       I    between atoms: N_4  and  C_5 
REMARK    2  A    between atoms: C_5  and  C_6 
REMARK    3  A    between atoms: C_7  and  C_8 
REMARK    4  A    between atoms: C_11  and  O_12 
ROOT
HETATM    1  C   UNL     1      42.080 -16.740   2.626  1.00  0.00     0.062 C 
HETATM    2  C   UNL     1      40.820 -15.925   2.865  1.00  0.00     0.202 C 
HETATM    3  N   UNL     1      40.337 -15.340   1.612  1.00  0.00    -0.083 N 
HETATM    4  C   UNL     1      41.087 -15.258   0.471  1.00  0.00     0.726 A 
HETATM    5  N   UNL     1      42.324 -15.798   0.456  1.00  0.00    -0.192 N 
HETATM    6  N   UNL     1      39.094 -14.851   1.426  1.00  0.00    -0.141 NA
HETATM    7  C   UNL     1      39.181 -14.432   0.154  1.00  0.00     0.162 A 
HETATM    8  C   UNL     1      38.049 -13.795  -0.549  1.00  0.00     0.096 C 
HETATM    9  N   UNL     1      40.389 -14.667  -0.465  1.00  0.00    -0.046 NA
HETATM   10  C   UNL     1      42.776 -16.648   1.464  1.00  0.00     0.037 C 
HETATM   11  C   UNL     1      44.019 -17.443   1.152  1.00  0.00     0.070 C 
HETATM   12  H   UNL     1      42.802 -15.855  -0.441  1.00  0.00     0.184 HD
ENDROOT
BRANCH   1  13
HETATM   13  C   UNL     1      42.375 -17.819   3.600  1.00  0.00     0.256 C 
HETATM   14  N   UNL     1      43.292 -18.740   3.148  1.00  0.00    -0.323 N 
HETATM   15  H   UNL     1      43.663 -18.603   2.217  1.00  0.00     0.169 HD
HETATM   16  O   UNL     1      41.809 -17.793   4.687  1.00  0.00    -0.267 OA
BRANCH  14  17
HETATM   17  C   UNL     1      43.790 -19.870   3.844  1.00  0.00     0.041 A 
HETATM   18  C   UNL     1      44.073 -21.051   3.121  1.00  0.00    -0.035 A 
HETATM   19  C   UNL     1      43.889 -21.152   1.630  1.00  0.00     0.050 C 
HETATM   20  C   UNL     1      44.577 -22.175   3.801  1.00  0.00     0.009 A 
HETATM   21  C   UNL     1      44.792 -22.144   5.177  1.00  0.00     0.001 A 
HETATM   22  C   UNL     1      44.510 -20.987   5.889  1.00  0.00     0.002 A 
HETATM   23  C   UNL     1      44.014 -19.860   5.228  1.00  0.00     0.030 A 
ENDBRANCH  14  17
ENDBRANCH   1  13
BRANCH   2  24
HETATM   24  C   UNL     1      41.022 -14.807   3.888  1.00  0.00    -0.028 A 
HETATM   25  C   UNL     1      40.166 -14.656   4.992  1.00  0.00     0.012 A 
HETATM   26  C   UNL     1      40.383 -13.642   5.927  1.00  0.00     0.037 A 
HETATM   27  C   UNL     1      41.466 -12.774   5.794  1.00  0.00     0.068 A 
HETATM   28  C   UNL     1      42.320 -12.910   4.702  1.00  0.00     0.037 A 
HETATM   29  C   UNL     1      42.100 -13.919   3.755  1.00  0.00     0.012 A 
BRANCH  27  30
HETATM   30  O   UNL     1      41.574 -11.836   6.784  1.00  0.00    -0.356 OA
HETATM   31  C   UNL     1      40.353 -11.307   7.289  1.00  0.00     0.210 C 
ENDBRANCH  27  30
ENDBRANCH   2  24
TORSDOF 4
ENDMDL
MODEL 6
REMARK VINA RESULT:      -7.6      3.005      5.757
REMARK  4 active torsions:
REMARK  status: ('A' for Active; 'I' for Inactive)
REMARK    1  A    between atoms: C_3  and  N_4 
REMARK       I    between atoms: N_4  and  C_5 
REMARK    2  A    between atoms: C_5  and  C_6 
REMARK    3  A    between atoms: C_7  and  C_8 
REMARK    4  A    between atoms: C_11  and  O_12 
ROOT
HETATM    1  C   UNL     1      41.609 -16.016   2.493  1.00  0.00     0.062 C 
HETATM    2  C   UNL     1      40.380 -15.121   2.464  1.00  0.00     0.202 C 
HETATM    3  N   UNL     1      40.031 -14.767   1.087  1.00  0.00    -0.083 N 
HETATM    4  C   UNL     1      40.872 -14.934   0.021  1.00  0.00     0.726 A 
HETATM    5  N   UNL     1      42.075 -15.515   0.215  1.00  0.00    -0.192 N 
HETATM    6  N   UNL     1      38.836 -14.274   0.705  1.00  0.00    -0.141 NA
HETATM    7  C   UNL     1      39.045 -14.109  -0.611  1.00  0.00     0.162 A 
HETATM    8  C   UNL     1      38.009 -13.574  -1.517  1.00  0.00     0.096 C 
HETATM    9  N   UNL     1      40.283 -14.504  -1.066  1.00  0.00    -0.046 NA
HETATM   10  C   UNL     1      42.398 -16.174   1.400  1.00  0.00     0.037 C 
HETATM   11  C   UNL     1      43.616 -17.062   1.352  1.00  0.00     0.070 C 
HETATM   12  H   UNL     1      42.618 -15.761  -0.610  1.00  0.00     0.184 HD
ENDROOT
BRANCH   1  13
HETATM   13  C   UNL     1      41.767 -16.900   3.674  1.00  0.00     0.256 C 
HETATM   14  N   UNL     1      42.812 -16.546   4.496  1.00  0.00    -0.323 N 
HETATM   15  H   UNL     1      43.363 -15.743   4.222  1.00  0.00     0.169 HD
HETATM   16  O   UNL     1      40.978 -17.826   3.818  1.00  0.00    -0.267 OA
BRANCH  14  17
HETATM   17  C   UNL     1      43.209 -17.177   5.702  1.00  0.00     0.041 A 
HETATM   18  C   UNL     1      43.940 -18.385   5.635  1.00  0.00    -0.035 A 
HETATM   19  C   UNL     1      44.338 -19.021   4.329  1.00  0.00     0.050 C 
HETATM   20  C   UNL     1      44.347 -19.015   6.826  1.00  0.00     0.009 A 
HETATM   21  C   UNL     1      44.032 -18.471   8.069  1.00  0.00     0.001 A 
HETATM   22  C   UNL     1      43.310 -17.287   8.136  1.00  0.00     0.002 A 
HETATM   23  C   UNL     1      42.903 -16.647   6.962  1.00  0.00     0.030 A 
ENDBRANCH  14  17
ENDBRANCH   1  13
BRANCH   2  24
HETATM   24  C   UNL     1      40.563 -13.838   3.275  1.00  0.00    -0.028 A 
HETATM   25  C   UNL     1      41.284 -12.743   2.768  1.00  0.00     0.012 A 
HETATM   26  C   UNL     1      41.419 -11.572   3.516  1.00  0.00     0.037 A 
HETATM   27  C   UNL     1      40.822 -11.459   4.771  1.00  0.00     0.068 A 
HETATM   28  C   UNL     1      40.108 -12.538   5.287  1.00  0.00     0.037 A 
HETATM   29  C   UNL     1      39.979 -13.720   4.545  1.00  0.00     0.012 A 
BRANCH  27  30
HETATM   30  O   UNL     1      41.017 -10.256   5.393  1.00  0.00    -0.356 OA
HETATM   31  C   UNL     1      41.407 -10.308   6.760  1.00  0.00     0.210 C 
ENDBRANCH  27  30
ENDBRANCH   2  24
TORSDOF 4
ENDMDL
MODEL 7
REMARK VINA RESULT:      -7.4      2.716      5.421
REMARK  4 active torsions:
REMARK  status: ('A' for Active; 'I' for Inactive)
REMARK    1  A    between atoms: C_3  and  N_4 
REMARK       I    between atoms: N_4  and  C_5 
REMARK    2  A    between atoms: C_5  and  C_6 
REMARK    3  A    between atoms: C_7  and  C_8 
REMARK    4  A    between atoms: C_11  and  O_12 
ROOT
HETATM    1  C   UNL     1      40.604 -15.492   1.055  1.00  0.00     0.062 C 
HETATM    2  C   UNL     1      39.579 -14.787   1.928  1.00  0.00     0.202 C 
HETATM    3  N   UNL     1      38.794 -13.836   1.138  1.00  0.00    -0.083 N 
HETATM    4  C   UNL     1      39.153 -13.403  -0.109  1.00  0.00     0.726 A 
HETATM    5  N   UNL     1      40.256 -13.917  -0.693  1.00  0.00    -0.192 N 
HETATM    6  N   UNL     1      37.617 -13.307   1.528  1.00  0.00    -0.141 NA
HETATM    7  C   UNL     1      37.345 -12.510   0.484  1.00  0.00     0.162 A 
HETATM    8  C   UNL     1      36.126 -11.679   0.417  1.00  0.00     0.096 C 
HETATM    9  N   UNL     1      38.264 -12.544  -0.541  1.00  0.00    -0.046 NA
HETATM   10  C   UNL     1      40.906 -15.043  -0.190  1.00  0.00     0.037 C 
HETATM   11  C   UNL     1      41.894 -15.706  -1.117  1.00  0.00     0.070 C 
HETATM   12  H   UNL     1      40.419 -13.692  -1.672  1.00  0.00     0.184 HD
ENDROOT
BRANCH   1  13
HETATM   13  C   UNL     1      41.071 -16.824   1.512  1.00  0.00     0.256 C 
HETATM   14  N   UNL     1      42.299 -16.798   2.133  1.00  0.00    -0.323 N 
HETATM   15  H   UNL     1      42.757 -15.900   2.212  1.00  0.00     0.169 HD
HETATM   16  O   UNL     1      40.348 -17.794   1.316  1.00  0.00    -0.267 OA
BRANCH  14  17
HETATM   17  C   UNL     1      43.003 -17.895   2.691  1.00  0.00     0.041 A 
HETATM   18  C   UNL     1      43.114 -17.994   4.096  1.00  0.00    -0.035 A 
HETATM   19  C   UNL     1      42.492 -16.992   5.032  1.00  0.00     0.050 C 
HETATM   20  C   UNL     1      43.803 -19.084   4.661  1.00  0.00     0.009 A 
HETATM   21  C   UNL     1      44.384 -20.060   3.855  1.00  0.00     0.001 A 
HETATM   22  C   UNL     1      44.280 -19.961   2.475  1.00  0.00     0.002 A 
HETATM   23  C   UNL     1      43.595 -18.888   1.899  1.00  0.00     0.030 A 
ENDBRANCH  14  17
ENDBRANCH   1  13
BRANCH   2  24
HETATM   24  C   UNL     1      40.212 -14.048   3.107  1.00  0.00    -0.028 A 
HETATM   25  C   UNL     1      41.099 -12.976   2.913  1.00  0.00     0.012 A 
HETATM   26  C   UNL     1      41.648 -12.300   4.005  1.00  0.00     0.037 A 
HETATM   27  C   UNL     1      41.310 -12.664   5.308  1.00  0.00     0.068 A 
HETATM   28  C   UNL     1      40.435 -13.729   5.514  1.00  0.00     0.037 A 
HETATM   29  C   UNL     1      39.890 -14.417   4.423  1.00  0.00     0.012 A 
BRANCH  27  30
HETATM   30  O   UNL     1      41.904 -11.914   6.286  1.00  0.00    -0.356 OA
HETATM   31  C   UNL     1      41.396 -10.598   6.470  1.00  0.00     0.210 C 
ENDBRANCH  27  30
ENDBRANCH   2  24
TORSDOF 4
ENDMDL
MODEL 8
REMARK VINA RESULT:      -7.4      5.218      8.679
REMARK  4 active torsions:
REMARK  status: ('A' for Active; 'I' for Inactive)
REMARK    1  A    between atoms: C_3  and  N_4 
REMARK       I    between atoms: N_4  and  C_5 
REMARK    2  A    between atoms: C_5  and  C_6 
REMARK    3  A    between atoms: C_7  and  C_8 
REMARK    4  A    between atoms: C_11  and  O_12 
ROOT
HETATM    1  C   UNL     1      41.395 -11.589   5.973  1.00  0.00     0.062 C 
HETATM    2  C   UNL     1      42.398 -12.345   5.116  1.00  0.00     0.202 C 
HETATM    3  N   UNL     1      41.847 -12.604   3.784  1.00  0.00    -0.083 N 
HETATM    4  C   UNL     1      40.520 -12.488   3.473  1.00  0.00     0.726 A 
HETATM    5  N   UNL     1      39.659 -12.047   4.414  1.00  0.00    -0.192 N 
HETATM    6  N   UNL     1      42.582 -12.951   2.708  1.00  0.00    -0.141 NA
HETATM    7  C   UNL     1      41.618 -13.086   1.783  1.00  0.00     0.162 A 
HETATM    8  C   UNL     1      41.908 -13.470   0.387  1.00  0.00     0.096 C 
HETATM    9  N   UNL     1      40.340 -12.808   2.216  1.00  0.00    -0.046 NA
HETATM   10  C   UNL     1      40.093 -11.474   5.608  1.00  0.00     0.037 C 
HETATM   11  C   UNL     1      39.052 -10.720   6.397  1.00  0.00     0.070 C 
HETATM   12  H   UNL     1      38.709 -11.829   4.118  1.00  0.00     0.184 HD
ENDROOT
BRANCH   1  13
HETATM   13  C   UNL     1      41.944 -10.774   7.084  1.00  0.00     0.256 C 
HETATM   14  N   UNL     1      42.180 -11.492   8.234  1.00  0.00    -0.323 N 
HETATM   15  H   UNL     1      41.958 -12.479   8.216  1.00  0.00     0.169 HD
HETATM   16  O   UNL     1      42.143  -9.581   6.889  1.00  0.00    -0.267 OA
BRANCH  14  17
HETATM   17  C   UNL     1      42.713 -11.008   9.456  1.00  0.00     0.041 A 
HETATM   18  C   UNL     1      44.062 -11.287   9.773  1.00  0.00    -0.035 A 
HETATM   19  C   UNL     1      44.968 -12.059   8.852  1.00  0.00     0.050 C 
HETATM   20  C   UNL     1      44.604 -10.803  10.978  1.00  0.00     0.009 A 
HETATM   21  C   UNL     1      43.828 -10.061  11.867  1.00  0.00     0.001 A 
HETATM   22  C   UNL     1      42.502  -9.792  11.559  1.00  0.00     0.002 A 
HETATM   23  C   UNL     1      41.951 -10.261  10.363  1.00  0.00     0.030 A 
ENDBRANCH  14  17
ENDBRANCH   1  13
BRANCH   2  24
HETATM   24  C   UNL     1      42.831 -13.671   5.740  1.00  0.00    -0.028 A 
HETATM   25  C   UNL     1      41.939 -14.749   5.873  1.00  0.00     0.012 A 
HETATM   26  C   UNL     1      42.362 -15.959   6.425  1.00  0.00     0.037 A 
HETATM   27  C   UNL     1      43.684 -16.128   6.837  1.00  0.00     0.068 A 
HETATM   28  C   UNL     1      44.577 -15.066   6.715  1.00  0.00     0.037 A 
HETATM   29  C   UNL     1      44.155 -13.846   6.172  1.00  0.00     0.012 A 
BRANCH  27  30
HETATM   30  O   UNL     1      43.972 -17.364   7.346  1.00  0.00    -0.356 OA
HETATM   31  C   UNL     1      45.017 -18.085   6.702  1.00  0.00     0.210 C 
ENDBRANCH  27  30
ENDBRANCH   2  24
TORSDOF 4
ENDMDL
MODEL 9
REMARK VINA RESULT:      -7.2      4.550      6.798
REMARK  4 active torsions:
REMARK  status: ('A' for Active; 'I' for Inactive)
REMARK    1  A    between atoms: C_3  and  N_4 
REMARK       I    between atoms: N_4  and  C_5 
REMARK    2  A    between atoms: C_5  and  C_6 
REMARK    3  A    between atoms: C_7  and  C_8 
REMARK    4  A    between atoms: C_11  and  O_12 
ROOT
HETATM    1  C   UNL     1      44.150 -17.345   6.210  1.00  0.00     0.062 C 
HETATM    2  C   UNL     1      44.348 -15.932   5.683  1.00  0.00     0.202 C 
HETATM    3  N   UNL     1      44.387 -14.969   6.785  1.00  0.00    -0.083 N 
HETATM    4  C   UNL     1      43.971 -15.252   8.058  1.00  0.00     0.726 A 
HETATM    5  N   UNL     1      43.557 -16.502   8.354  1.00  0.00    -0.192 N 
HETATM    6  N   UNL     1      44.867 -13.714   6.687  1.00  0.00    -0.141 NA
HETATM    7  C   UNL     1      44.656 -13.268   7.935  1.00  0.00     0.162 A 
HETATM    8  C   UNL     1      45.018 -11.902   8.360  1.00  0.00     0.096 C 
HETATM    9  N   UNL     1      44.109 -14.186   8.805  1.00  0.00    -0.046 NA
HETATM   10  C   UNL     1      43.765 -17.577   7.491  1.00  0.00     0.037 C 
HETATM   11  C   UNL     1      43.572 -18.949   8.085  1.00  0.00     0.070 C 
HETATM   12  H   UNL     1      43.395 -16.725   9.334  1.00  0.00     0.184 HD
ENDROOT
BRANCH   1  13
HETATM   13  C   UNL     1      44.634 -18.454   5.353  1.00  0.00     0.256 C 
HETATM   14  N   UNL     1      43.678 -18.952   4.498  1.00  0.00    -0.323 N 
HETATM   15  H   UNL     1      42.760 -18.531   4.536  1.00  0.00     0.169 HD
HETATM   16  O   UNL     1      45.801 -18.811   5.467  1.00  0.00    -0.267 OA
BRANCH  14  17
HETATM   17  C   UNL     1      43.834 -19.994   3.549  1.00  0.00     0.041 A 
HETATM   18  C   UNL     1      43.306 -19.822   2.249  1.00  0.00    -0.035 A 
HETATM   19  C   UNL     1      42.603 -18.562   1.820  1.00  0.00     0.050 C 
HETATM   20  C   UNL     1      43.463 -20.846   1.297  1.00  0.00     0.009 A 
HETATM   21  C   UNL     1      44.122 -22.030   1.619  1.00  0.00     0.001 A 
HETATM   22  C   UNL     1      44.636 -22.203   2.897  1.00  0.00     0.002 A 
HETATM   23  C   UNL     1      44.493 -21.193   3.852  1.00  0.00     0.030 A 
ENDBRANCH  14  17
ENDBRANCH   1  13
BRANCH   2  24
HETATM   24  C   UNL     1      43.260 -15.511   4.695  1.00  0.00    -0.028 A 
HETATM   25  C   UNL     1      43.559 -15.209   3.355  1.00  0.00     0.012 A 
HETATM   26  C   UNL     1      42.546 -14.848   2.464  1.00  0.00     0.037 A 
HETATM   27  C   UNL     1      41.217 -14.802   2.882  1.00  0.00     0.068 A 
HETATM   28  C   UNL     1      40.907 -15.094   4.208  1.00  0.00     0.037 A 
HETATM   29  C   UNL     1      41.921 -15.446   5.109  1.00  0.00     0.012 A 
BRANCH  27  30
HETATM   30  O   UNL     1      40.322 -14.449   1.909  1.00  0.00    -0.356 OA
HETATM   31  C   UNL     1      39.084 -15.151   1.904  1.00  0.00     0.210 C 
ENDBRANCH  27  30
ENDBRANCH   2  24
TORSDOF 4
ENDMDL
MODEL 10
REMARK VINA RESULT:      -7.1      5.437      8.520
REMARK  4 active torsions:
REMARK  status: ('A' for Active; 'I' for Inactive)
REMARK    1  A    between atoms: C_3  and  N_4 
REMARK       I    between atoms: N_4  and  C_5 
REMARK    2  A    between atoms: C_5  and  C_6 
REMARK    3  A    between atoms: C_7  and  C_8 
REMARK    4  A    between atoms: C_11  and  O_12 
ROOT
HETATM    1  C   UNL     1      40.778 -10.587   6.115  1.00  0.00     0.062 C 
HETATM    2  C   UNL     1      41.428 -11.438   5.036  1.00  0.00     0.202 C 
HETATM    3  N   UNL     1      40.666 -11.359   3.787  1.00  0.00    -0.083 N 
HETATM    4  C   UNL     1      39.390 -10.872   3.703  1.00  0.00     0.726 A 
HETATM    5  N   UNL     1      38.802 -10.370   4.810  1.00  0.00    -0.192 N 
HETATM    6  N   UNL     1      41.142 -11.719   2.578  1.00  0.00    -0.141 NA
HETATM    7  C   UNL     1      40.070 -11.476   1.808  1.00  0.00     0.162 A 
HETATM    8  C   UNL     1      40.070 -11.716   0.351  1.00  0.00     0.096 C 
HETATM    9  N   UNL     1      38.977 -10.954   2.464  1.00  0.00    -0.046 NA
HETATM   10  C   UNL     1      39.519 -10.100   5.974  1.00  0.00     0.037 C 
HETATM   11  C   UNL     1      38.824  -9.233   6.993  1.00  0.00     0.070 C 
HETATM   12  H   UNL     1      37.917  -9.883   4.692  1.00  0.00     0.184 HD
ENDROOT
BRANCH   1  13
HETATM   13  C   UNL     1      41.659 -10.103   7.207  1.00  0.00     0.256 C 
HETATM   14  N   UNL     1      41.860 -11.025   8.207  1.00  0.00    -0.323 N 
HETATM   15  H   UNL     1      41.398 -11.920   8.110  1.00  0.00     0.169 HD
HETATM   16  O   UNL     1      42.122  -8.971   7.123  1.00  0.00    -0.267 OA
BRANCH  14  17
HETATM   17  C   UNL     1      42.658 -10.872   9.370  1.00  0.00     0.041 A 
HETATM   18  C   UNL     1      42.057 -10.386  10.553  1.00  0.00    -0.035 A 
HETATM   19  C   UNL     1      40.593 -10.046  10.639  1.00  0.00     0.050 C 
HETATM   20  C   UNL     1      42.837 -10.239  11.716  1.00  0.00     0.009 A 
HETATM   21  C   UNL     1      44.193 -10.557  11.713  1.00  0.00     0.001 A 
HETATM   22  C   UNL     1      44.786 -11.029  10.550  1.00  0.00     0.002 A 
HETATM   23  C   UNL     1      44.023 -11.185   9.390  1.00  0.00     0.030 A 
ENDBRANCH  14  17
ENDBRANCH   1  13
BRANCH   2  24
HETATM   24  C   UNL     1      41.565 -12.905   5.440  1.00  0.00    -0.028 A 
HETATM   25  C   UNL     1      40.439 -13.718   5.658  1.00  0.00     0.012 A 
HETATM   26  C   UNL     1      40.588 -15.062   6.005  1.00  0.00     0.037 A 
HETATM   27  C   UNL     1      41.857 -15.629   6.120  1.00  0.00     0.068 A 
HETATM   28  C   UNL     1      42.982 -14.834   5.911  1.00  0.00     0.037 A 
HETATM   29  C   UNL     1      42.838 -13.482   5.574  1.00  0.00     0.012 A 
BRANCH  27  30
HETATM   30  O   UNL     1      41.864 -16.957   6.450  1.00  0.00    -0.356 OA
HETATM   31  C   UNL     1      42.686 -17.330   7.550  1.00  0.00     0.210 C 
ENDBRANCH  27  30
ENDBRANCH   2  24
TORSDOF 4
ENDMDL
