MODEL 1
REMARK VINA RESULT:      -9.9      0.000      0.000
REMARK  1 active torsions:
REMARK  status: ('A' for Active; 'I' for Inactive)
REMARK       I    between atoms: N_9  and  C_10 
REMARK    1  A    between atoms: C_10  and  C_11 
ROOT
HETATM    1  C   UNL     1      39.808 -10.582   5.305  1.00  0.00     0.002 A 
HETATM    2  C   UNL     1      40.979 -11.022   5.922  1.00  0.00     0.031 A 
HETATM    3  C   UNL     1      41.408 -12.336   5.731  1.00  0.00     0.056 A 
HETATM    4  C   UNL     1      40.691 -13.224   4.912  1.00  0.00     0.036 A 
HETATM    5  N   UNL     1      41.060 -14.574   4.789  1.00  0.00    -0.273 NA
HETATM    6  C   UNL     1      42.489 -14.888   5.063  1.00  0.00     0.100 C 
HETATM    7  C   UNL     1      43.360 -14.556   3.835  1.00  0.00     0.055 C 
HETATM    8  C   UNL     1      43.149 -15.519   2.675  1.00  0.00     0.128 C 
HETATM    9  N   UNL     1      43.256 -16.910   3.100  1.00  0.00    -0.348 N 
HETATM   10  C   UNL     1      43.736 -17.827   2.158  1.00  0.00     0.253 C 
HETATM   11  O   UNL     1      44.009 -17.514   1.000  1.00  0.00    -0.267 OA
HETATM   12  C   UNL     1      42.377 -17.284   4.209  1.00  0.00     0.128 C 
HETATM   13  C   UNL     1      42.604 -16.384   5.415  1.00  0.00     0.055 C 
HETATM   14  C   UNL     1      43.046 -14.054   6.254  1.00  0.00     0.245 C 
HETATM   15  O   UNL     1      43.969 -14.432   6.977  1.00  0.00    -0.271 OA
HETATM   16  N   UNL     1      42.553 -12.782   6.400  1.00  0.00    -0.324 N 
HETATM   17  C   UNL     1      39.494 -12.778   4.340  1.00  0.00     0.026 A 
HETATM   18  C   UNL     1      39.063 -11.462   4.522  1.00  0.00     0.002 A 
HETATM   19  H   UNL     1      40.692 -14.993   3.940  1.00  0.00     0.129 HD
HETATM   20  H   UNL     1      42.990 -12.207   7.106  1.00  0.00     0.169 HD
ENDROOT
BRANCH  10  21
HETATM   21  C   UNL     1      43.956 -19.240   2.551  1.00  0.00     0.034 A 
HETATM   22  C   UNL     1      44.510 -19.559   3.800  1.00  0.00     0.051 A 
HETATM   23  C   UNL     1      44.707 -20.912   4.109  1.00  0.00     0.085 A 
HETATM   24  C   UNL     1      44.394 -21.885   3.166  1.00  0.00     0.062 A 
HETATM   25  N   UNL     1      45.189 -21.484   5.261  1.00  0.00    -0.242 NA
HETATM   26  N   UNL     1      44.713 -23.068   3.785  1.00  0.00    -0.349 N 
HETATM   27  C   UNL     1      43.886 -21.594   1.899  1.00  0.00     0.033 A 
HETATM   28  H   UNL     1      44.620 -23.990   3.386  1.00  0.00     0.167 HD
HETATM   29  C   UNL     1      45.179 -22.778   5.036  1.00  0.00     0.208 A 
HETATM   30  C   UNL     1      43.675 -20.241   1.609  1.00  0.00     0.019 A 
ENDBRANCH  10  21
TORSDOF 1
ENDMDL
MODEL 2
REMARK VINA RESULT:      -9.8      2.133      2.911
REMARK  1 active torsions:
REMARK  status: ('A' for Active; 'I' for Inactive)
REMARK       I    between atoms: N_9  and  C_10 
REMARK    1  A    between atoms: C_10  and  C_11 
ROOT
HETATM    1  C   UNL     1      37.227 -11.698   1.105  1.00  0.00     0.002 A 
HETATM    2  C   UNL     1      38.052 -11.587   2.224  1.00  0.00     0.031 A 
HETATM    3  C   UNL     1      38.814 -12.683   2.630  1.00  0.00     0.056 A 
HETATM    4  C   UNL     1      38.780 -13.896   1.922  1.00  0.00     0.036 A 
HETATM    5  N   UNL     1      39.468 -15.034   2.376  1.00  0.00    -0.273 NA
HETATM    6  C   UNL     1      40.642 -14.780   3.255  1.00  0.00     0.100 C 
HETATM    7  C   UNL     1      41.874 -14.394   2.412  1.00  0.00     0.055 C 
HETATM    8  C   UNL     1      42.448 -15.562   1.623  1.00  0.00     0.128 C 
HETATM    9  N   UNL     1      42.670 -16.729   2.467  1.00  0.00    -0.348 N 
HETATM   10  C   UNL     1      43.726 -17.577   2.116  1.00  0.00     0.253 C 
HETATM   11  O   UNL     1      44.416 -17.402   1.112  1.00  0.00    -0.267 OA
HETATM   12  C   UNL     1      41.495 -17.179   3.216  1.00  0.00     0.128 C 
HETATM   13  C   UNL     1      40.929 -16.055   4.072  1.00  0.00     0.055 C 
HETATM   14  C   UNL     1      40.381 -13.606   4.243  1.00  0.00     0.245 C 
HETATM   15  O   UNL     1      40.931 -13.504   5.341  1.00  0.00    -0.271 OA
HETATM   16  N   UNL     1      39.595 -12.578   3.786  1.00  0.00    -0.324 N 
HETATM   17  C   UNL     1      37.911 -14.002   0.830  1.00  0.00     0.026 A 
HETATM   18  C   UNL     1      37.150 -12.906   0.414  1.00  0.00     0.002 A 
HETATM   19  H   UNL     1      39.638 -15.699   1.628  1.00  0.00     0.129 HD
HETATM   20  H   UNL     1      39.513 -11.771   4.388  1.00  0.00     0.169 HD
ENDROOT
BRANCH  10  21
HETATM   21  C   UNL     1      44.064 -18.732   2.983  1.00  0.00     0.034 A 
HETATM   22  C   UNL     1      44.059 -20.038   2.471  1.00  0.00     0.051 A 
HETATM   23  C   UNL     1      44.372 -21.090   3.342  1.00  0.00     0.085 A 
HETATM   24  C   UNL     1      44.634 -20.818   4.682  1.00  0.00     0.062 A 
HETATM   25  N   UNL     1      44.473 -22.436   3.088  1.00  0.00    -0.242 NA
HETATM   26  N   UNL     1      44.889 -22.050   5.231  1.00  0.00    -0.349 N 
HETATM   27  C   UNL     1      44.602 -19.534   5.227  1.00  0.00     0.033 A 
HETATM   28  H   UNL     1      45.112 -22.234   6.198  1.00  0.00     0.167 HD
HETATM   29  C   UNL     1      44.786 -22.984   4.240  1.00  0.00     0.208 A 
HETATM   30  C   UNL     1      44.306 -18.490   4.343  1.00  0.00     0.019 A 
ENDBRANCH  10  21
TORSDOF 1
ENDMDL
MODEL 3
REMARK VINA RESULT:      -9.7      4.426      7.605
REMARK  1 active torsions:
REMARK  status: ('A' for Active; 'I' for Inactive)
REMARK       I    between atoms: N_9  and  C_10 
REMARK    1  A    between atoms: C_10  and  C_11 
ROOT
HETATM    1  C   UNL     1      44.025 -18.349   7.692  1.00  0.00     0.002 A 
HETATM    2  C   UNL     1      44.361 -18.919   6.465  1.00  0.00     0.031 A 
HETATM    3  C   UNL     1      43.669 -18.539   5.315  1.00  0.00     0.056 A 
HETATM    4  C   UNL     1      42.647 -17.575   5.365  1.00  0.00     0.036 A 
HETATM    5  N   UNL     1      41.880 -17.255   4.232  1.00  0.00    -0.273 NA
HETATM    6  C   UNL     1      42.523 -17.513   2.914  1.00  0.00     0.100 C 
HETATM    7  C   UNL     1      43.497 -16.371   2.556  1.00  0.00     0.055 C 
HETATM    8  C   UNL     1      42.788 -15.072   2.197  1.00  0.00     0.128 C 
HETATM    9  N   UNL     1      41.749 -15.281   1.196  1.00  0.00    -0.348 N 
HETATM   10  C   UNL     1      41.490 -14.221   0.319  1.00  0.00     0.253 C 
HETATM   11  O   UNL     1      42.056 -13.132   0.403  1.00  0.00    -0.267 OA
HETATM   12  C   UNL     1      40.755 -16.297   1.543  1.00  0.00     0.128 C 
HETATM   13  C   UNL     1      41.420 -17.632   1.845  1.00  0.00     0.055 C 
HETATM   14  C   UNL     1      43.351 -18.831   2.923  1.00  0.00     0.245 C 
HETATM   15  O   UNL     1      43.562 -19.509   1.916  1.00  0.00    -0.271 OA
HETATM   16  N   UNL     1      43.977 -19.158   4.099  1.00  0.00    -0.324 N 
HETATM   17  C   UNL     1      42.293 -17.049   6.612  1.00  0.00     0.026 A 
HETATM   18  C   UNL     1      42.986 -17.421   7.767  1.00  0.00     0.002 A 
HETATM   19  H   UNL     1      41.441 -16.343   4.315  1.00  0.00     0.129 HD
HETATM   20  H   UNL     1      44.597 -19.955   4.073  1.00  0.00     0.169 HD
ENDROOT
BRANCH  10  21
HETATM   21  C   UNL     1      40.511 -14.398  -0.781  1.00  0.00     0.034 A 
HETATM   22  C   UNL     1      40.788 -15.255  -1.856  1.00  0.00     0.051 A 
HETATM   23  C   UNL     1      39.831 -15.369  -2.873  1.00  0.00     0.085 A 
HETATM   24  C   UNL     1      38.667 -14.607  -2.811  1.00  0.00     0.062 A 
HETATM   25  N   UNL     1      39.839 -16.156  -3.999  1.00  0.00    -0.242 NA
HETATM   26  N   UNL     1      37.977 -14.955  -3.945  1.00  0.00    -0.349 N 
HETATM   27  C   UNL     1      38.388 -13.713  -1.777  1.00  0.00     0.033 A 
HETATM   28  H   UNL     1      37.082 -14.587  -4.232  1.00  0.00     0.167 HD
HETATM   29  C   UNL     1      38.714 -15.887  -4.620  1.00  0.00     0.208 A 
HETATM   30  C   UNL     1      39.342 -13.622  -0.758  1.00  0.00     0.019 A 
ENDBRANCH  10  21
TORSDOF 1
ENDMDL
MODEL 4
REMARK VINA RESULT:      -9.4      3.036      8.373
REMARK  1 active torsions:
REMARK  status: ('A' for Active; 'I' for Inactive)
REMARK       I    between atoms: N_9  and  C_10 
REMARK    1  A    between atoms: C_10  and  C_11 
ROOT
HETATM    1  C   UNL     1      44.752 -22.556   4.152  1.00  0.00     0.002 A 
HETATM    2  C   UNL     1      44.719 -21.537   5.103  1.00  0.00     0.031 A 
HETATM    3  C   UNL     1      44.415 -20.234   4.709  1.00  0.00     0.056 A 
HETATM    4  C   UNL     1      44.123 -19.928   3.369  1.00  0.00     0.036 A 
HETATM    5  N   UNL     1      43.910 -18.607   2.944  1.00  0.00    -0.273 NA
HETATM    6  C   UNL     1      43.444 -17.652   3.987  1.00  0.00     0.100 C 
HETATM    7  C   UNL     1      41.926 -17.804   4.218  1.00  0.00     0.055 C 
HETATM    8  C   UNL     1      41.090 -17.278   3.060  1.00  0.00     0.128 C 
HETATM    9  N   UNL     1      41.484 -15.928   2.677  1.00  0.00    -0.348 N 
HETATM   10  C   UNL     1      40.484 -15.097   2.157  1.00  0.00     0.253 C 
HETATM   11  O   UNL     1      39.331 -15.480   1.967  1.00  0.00    -0.267 OA
HETATM   12  C   UNL     1      42.904 -15.766   2.364  1.00  0.00     0.128 C 
HETATM   13  C   UNL     1      43.776 -16.220   3.526  1.00  0.00     0.055 C 
HETATM   14  C   UNL     1      44.140 -17.907   5.356  1.00  0.00     0.245 C 
HETATM   15  O   UNL     1      44.319 -17.030   6.202  1.00  0.00    -0.271 OA
HETATM   16  N   UNL     1      44.439 -19.211   5.662  1.00  0.00    -0.324 N 
HETATM   17  C   UNL     1      44.207 -20.955   2.421  1.00  0.00     0.026 A 
HETATM   18  C   UNL     1      44.505 -22.264   2.812  1.00  0.00     0.002 A 
HETATM   19  H   UNL     1      43.388 -18.566   2.073  1.00  0.00     0.129 HD
HETATM   20  H   UNL     1      44.794 -19.385   6.592  1.00  0.00     0.169 HD
ENDROOT
BRANCH  10  21
HETATM   21  C   UNL     1      40.795 -13.684   1.833  1.00  0.00     0.034 A 
HETATM   22  C   UNL     1      41.691 -13.365   0.802  1.00  0.00     0.051 A 
HETATM   23  C   UNL     1      41.956 -12.012   0.552  1.00  0.00     0.085 A 
HETATM   24  C   UNL     1      41.366 -11.037   1.350  1.00  0.00     0.062 A 
HETATM   25  N   UNL     1      42.752 -11.439  -0.410  1.00  0.00    -0.242 NA
HETATM   26  N   UNL     1      41.840  -9.854   0.842  1.00  0.00    -0.349 N 
HETATM   27  C   UNL     1      40.507 -11.327   2.412  1.00  0.00     0.033 A 
HETATM   28  H   UNL     1      41.624  -8.930   1.186  1.00  0.00     0.167 HD
HETATM   29  C   UNL     1      42.661 -10.145  -0.211  1.00  0.00     0.208 A 
HETATM   30  C   UNL     1      40.235 -12.681   2.639  1.00  0.00     0.019 A 
ENDBRANCH  10  21
TORSDOF 1
ENDMDL
MODEL 5
REMARK VINA RESULT:      -9.0      2.603      8.499
REMARK  1 active torsions:
REMARK  status: ('A' for Active; 'I' for Inactive)
REMARK       I    between atoms: N_9  and  C_10 
REMARK    1  A    between atoms: C_10  and  C_11 
ROOT
HETATM    1  C   UNL     1      44.717 -22.372   3.392  1.00  0.00     0.002 A 
HETATM    2  C   UNL     1      44.698 -21.474   4.459  1.00  0.00     0.031 A 
HETATM    3  C   UNL     1      44.352 -20.142   4.233  1.00  0.00     0.056 A 
HETATM    4  C   UNL     1      44.001 -19.687   2.951  1.00  0.00     0.036 A 
HETATM    5  N   UNL     1      43.744 -18.331   2.694  1.00  0.00    -0.273 NA
HETATM    6  C   UNL     1      43.299 -17.519   3.860  1.00  0.00     0.100 C 
HETATM    7  C   UNL     1      41.795 -17.736   4.125  1.00  0.00     0.055 C 
HETATM    8  C   UNL     1      40.903 -17.098   3.069  1.00  0.00     0.128 C 
HETATM    9  N   UNL     1      41.253 -15.702   2.836  1.00  0.00    -0.348 N 
HETATM   10  C   UNL     1      40.216 -14.842   2.455  1.00  0.00     0.253 C 
HETATM   11  O   UNL     1      39.065 -15.230   2.262  1.00  0.00    -0.267 OA
HETATM   12  C   UNL     1      42.656 -15.468   2.494  1.00  0.00     0.128 C 
HETATM   13  C   UNL     1      43.582 -16.034   3.561  1.00  0.00     0.055 C 
HETATM   14  C   UNL     1      44.052 -17.916   5.163  1.00  0.00     0.245 C 
HETATM   15  O   UNL     1      44.245 -17.141   6.101  1.00  0.00    -0.271 OA
HETATM   16  N   UNL     1      44.391 -19.238   5.301  1.00  0.00    -0.324 N 
HETATM   17  C   UNL     1      44.071 -20.592   1.885  1.00  0.00     0.026 A 
HETATM   18  C   UNL     1      44.412 -21.929   2.106  1.00  0.00     0.002 A 
HETATM   19  H   UNL     1      43.189 -18.201   1.854  1.00  0.00     0.129 HD
HETATM   20  H   UNL     1      44.785 -19.513   6.189  1.00  0.00     0.169 HD
ENDROOT
BRANCH  10  21
HETATM   21  C   UNL     1      40.484 -13.393   2.291  1.00  0.00     0.034 A 
HETATM   22  C   UNL     1      40.387 -12.518   3.384  1.00  0.00     0.051 A 
HETATM   23  C   UNL     1      40.637 -11.157   3.163  1.00  0.00     0.085 A 
HETATM   24  C   UNL     1      40.927 -10.710   1.878  1.00  0.00     0.062 A 
HETATM   25  N   UNL     1      40.646 -10.113   4.057  1.00  0.00    -0.242 NA
HETATM   26  N   UNL     1      41.104  -9.357   2.024  1.00  0.00    -0.349 N 
HETATM   27  C   UNL     1      40.985 -11.551   0.766  1.00  0.00     0.033 A 
HETATM   28  H   UNL     1      41.322  -8.704   1.286  1.00  0.00     0.167 HD
HETATM   29  C   UNL     1      40.931  -9.048   3.344  1.00  0.00     0.208 A 
HETATM   30  C   UNL     1      40.752 -12.911   1.001  1.00  0.00     0.019 A 
ENDBRANCH  10  21
TORSDOF 1
ENDMDL
MODEL 6
REMARK VINA RESULT:      -9.0      2.277      8.368
REMARK  1 active torsions:
REMARK  status: ('A' for Active; 'I' for Inactive)
REMARK       I    between atoms: N_9  and  C_10 
REMARK    1  A    between atoms: C_10  and  C_11 
ROOT
HETATM    1  C   UNL     1      44.766 -22.228   5.097  1.00  0.00     0.002 A 
HETATM    2  C   UNL     1      44.349 -21.442   6.170  1.00  0.00     0.031 A 
HETATM    3  C   UNL     1      44.038 -20.098   5.962  1.00  0.00     0.056 A 
HETATM    4  C   UNL     1      44.120 -19.522   4.683  1.00  0.00     0.036 A 
HETATM    5  N   UNL     1      43.903 -18.150   4.478  1.00  0.00    -0.273 NA
HETATM    6  C   UNL     1      43.055 -17.464   5.491  1.00  0.00     0.100 C 
HETATM    7  C   UNL     1      41.560 -17.725   5.210  1.00  0.00     0.055 C 
HETATM    8  C   UNL     1      41.048 -16.996   3.975  1.00  0.00     0.128 C 
HETATM    9  N   UNL     1      41.392 -15.579   4.002  1.00  0.00    -0.348 N 
HETATM   10  C   UNL     1      40.506 -14.698   3.371  1.00  0.00     0.253 C 
HETATM   11  O   UNL     1      39.506 -15.079   2.764  1.00  0.00    -0.267 OA
HETATM   12  C   UNL     1      42.817 -15.295   4.179  1.00  0.00     0.128 C 
HETATM   13  C   UNL     1      43.354 -15.953   5.441  1.00  0.00     0.055 C 
HETATM   14  C   UNL     1      43.343 -17.980   6.931  1.00  0.00     0.245 C 
HETATM   15  O   UNL     1      43.173 -17.301   7.945  1.00  0.00    -0.271 OA
HETATM   16  N   UNL     1      43.675 -19.306   7.056  1.00  0.00    -0.324 N 
HETATM   17  C   UNL     1      44.585 -20.314   3.627  1.00  0.00     0.026 A 
HETATM   18  C   UNL     1      44.892 -21.663   3.829  1.00  0.00     0.002 A 
HETATM   19  H   UNL     1      43.657 -17.943   3.514  1.00  0.00     0.129 HD
HETATM   20  H   UNL     1      43.759 -19.663   7.997  1.00  0.00     0.169 HD
ENDROOT
BRANCH  10  21
HETATM   21  C   UNL     1      40.747 -13.236   3.438  1.00  0.00     0.034 A 
HETATM   22  C   UNL     1      40.898 -12.591   4.675  1.00  0.00     0.051 A 
HETATM   23  C   UNL     1      41.109 -11.206   4.676  1.00  0.00     0.085 A 
HETATM   24  C   UNL     1      41.120 -10.511   3.470  1.00  0.00     0.062 A 
HETATM   25  N   UNL     1      41.322 -10.354   5.732  1.00  0.00    -0.242 NA
HETATM   26  N   UNL     1      41.338  -9.207   3.835  1.00  0.00    -0.349 N 
HETATM   27  C   UNL     1      40.926 -11.121   2.229  1.00  0.00     0.033 A 
HETATM   28  H   UNL     1      41.398  -8.417   3.209  1.00  0.00     0.167 HD
HETATM   29  C   UNL     1      41.458  -9.163   5.195  1.00  0.00     0.208 A 
HETATM   30  C   UNL     1      40.736 -12.508   2.240  1.00  0.00     0.019 A 
ENDBRANCH  10  21
TORSDOF 1
ENDMDL
MODEL 7
REMARK VINA RESULT:      -8.7      2.090      8.711
REMARK  1 active torsions:
REMARK  status: ('A' for Active; 'I' for Inactive)
REMARK       I    between atoms: N_9  and  C_10 
REMARK    1  A    between atoms: C_10  and  C_11 
ROOT
HETATM    1  C   UNL     1      44.367 -21.617   2.808  1.00  0.00     0.002 A 
HETATM    2  C   UNL     1      44.692 -21.045   4.037  1.00  0.00     0.031 A 
HETATM    3  C   UNL     1      44.410 -19.697   4.266  1.00  0.00     0.056 A 
HETATM    4  C   UNL     1      43.787 -18.907   3.286  1.00  0.00     0.036 A 
HETATM    5  N   UNL     1      43.586 -17.529   3.469  1.00  0.00    -0.273 NA
HETATM    6  C   UNL     1      43.516 -17.060   4.881  1.00  0.00     0.100 C 
HETATM    7  C   UNL     1      42.115 -17.326   5.469  1.00  0.00     0.055 C 
HETATM    8  C   UNL     1      41.042 -16.414   4.890  1.00  0.00     0.128 C 
HETATM    9  N   UNL     1      41.435 -15.012   4.944  1.00  0.00    -0.348 N 
HETATM   10  C   UNL     1      40.411 -14.069   5.089  1.00  0.00     0.253 C 
HETATM   11  O   UNL     1      39.220 -14.377   5.113  1.00  0.00    -0.267 OA
HETATM   12  C   UNL     1      42.722 -14.708   4.316  1.00  0.00     0.128 C 
HETATM   13  C   UNL     1      43.836 -15.554   4.915  1.00  0.00     0.055 C 
HETATM   14  C   UNL     1      44.538 -17.806   5.788  1.00  0.00     0.245 C 
HETATM   15  O   UNL     1      45.024 -17.319   6.810  1.00  0.00    -0.271 OA
HETATM   16  N   UNL     1      44.791 -19.120   5.482  1.00  0.00    -0.324 N 
HETATM   17  C   UNL     1      43.512 -19.487   2.043  1.00  0.00     0.026 A 
HETATM   18  C   UNL     1      43.785 -20.838   1.809  1.00  0.00     0.002 A 
HETATM   19  H   UNL     1      42.850 -17.168   2.870  1.00  0.00     0.129 HD
HETATM   20  H   UNL     1      45.372 -19.630   6.132  1.00  0.00     0.169 HD
ENDROOT
BRANCH  10  21
HETATM   21  C   UNL     1      40.747 -12.633   5.243  1.00  0.00     0.034 A 
HETATM   22  C   UNL     1      40.603 -11.744   4.167  1.00  0.00     0.051 A 
HETATM   23  C   UNL     1      40.950 -10.401   4.369  1.00  0.00     0.085 A 
HETATM   24  C   UNL     1      41.462 -10.001   5.600  1.00  0.00     0.062 A 
HETATM   25  N   UNL     1      40.868  -9.337   3.505  1.00  0.00    -0.242 NA
HETATM   26  N   UNL     1      41.696  -8.658   5.446  1.00  0.00    -0.349 N 
HETATM   27  C   UNL     1      41.659 -10.873   6.672  1.00  0.00     0.033 A 
HETATM   28  H   UNL     1      42.078  -8.038   6.145  1.00  0.00     0.167 HD
HETATM   29  C   UNL     1      41.320  -8.305   4.181  1.00  0.00     0.208 A 
HETATM   30  C   UNL     1      41.291 -12.208   6.464  1.00  0.00     0.019 A 
ENDBRANCH  10  21
TORSDOF 1
ENDMDL
MODEL 8
REMARK VINA RESULT:      -8.6      2.708      9.093
REMARK  1 active torsions:
REMARK  status: ('A' for Active; 'I' for Inactive)
REMARK       I    between atoms: N_9  and  C_10 
REMARK    1  A    between atoms: C_10  and  C_11 
ROOT
HETATM    1  C   UNL     1      43.916 -19.052   2.077  1.00  0.00     0.002 A 
HETATM    2  C   UNL     1      43.902 -19.036   3.471  1.00  0.00     0.031 A 
HETATM    3  C   UNL     1      43.627 -17.846   4.145  1.00  0.00     0.056 A 
HETATM    4  C   UNL     1      43.344 -16.661   3.445  1.00  0.00     0.036 A 
HETATM    5  N   UNL     1      43.161 -15.437   4.110  1.00  0.00    -0.273 NA
HETATM    6  C   UNL     1      42.713 -15.525   5.527  1.00  0.00     0.100 C 
HETATM    7  C   UNL     1      41.192 -15.772   5.598  1.00  0.00     0.055 C 
HETATM    8  C   UNL     1      40.369 -14.558   5.190  1.00  0.00     0.128 C 
HETATM    9  N   UNL     1      40.793 -13.355   5.896  1.00  0.00    -0.348 N 
HETATM   10  C   UNL     1      39.812 -12.389   6.151  1.00  0.00     0.253 C 
HETATM   11  O   UNL     1      38.651 -12.497   5.759  1.00  0.00    -0.267 OA
HETATM   12  C   UNL     1      42.217 -13.040   5.777  1.00  0.00     0.128 C 
HETATM   13  C   UNL     1      43.076 -14.208   6.239  1.00  0.00     0.055 C 
HETATM   14  C   UNL     1      43.400 -16.702   6.278  1.00  0.00     0.245 C 
HETATM   15  O   UNL     1      43.596 -16.712   7.495  1.00  0.00    -0.271 OA
HETATM   16  N   UNL     1      43.671 -17.829   5.544  1.00  0.00    -0.324 N 
HETATM   17  C   UNL     1      43.409 -16.686   2.047  1.00  0.00     0.026 A 
HETATM   18  C   UNL     1      43.678 -17.877   1.366  1.00  0.00     0.002 A 
HETATM   19  H   UNL     1      42.642 -14.771   3.545  1.00  0.00     0.129 HD
HETATM   20  H   UNL     1      44.020 -18.628   6.054  1.00  0.00     0.169 HD
ENDROOT
BRANCH  10  21
HETATM   21  C   UNL     1      40.154 -11.184   6.945  1.00  0.00     0.034 A 
HETATM   22  C   UNL     1      40.047 -11.193   8.344  1.00  0.00     0.051 A 
HETATM   23  C   UNL     1      40.369 -10.019   9.038  1.00  0.00     0.085 A 
HETATM   24  C   UNL     1      40.739  -8.880   8.329  1.00  0.00     0.062 A 
HETATM   25  N   UNL     1      40.385  -9.779  10.391  1.00  0.00    -0.242 NA
HETATM   26  N   UNL     1      40.971  -7.940   9.301  1.00  0.00    -0.349 N 
HETATM   27  C   UNL     1      40.809  -8.830   6.936  1.00  0.00     0.033 A 
HETATM   28  H   UNL     1      41.253  -6.983   9.146  1.00  0.00     0.167 HD
HETATM   29  C   UNL     1      40.752  -8.525  10.516  1.00  0.00     0.208 A 
HETATM   30  C   UNL     1      40.503 -10.014   6.255  1.00  0.00     0.019 A 
ENDBRANCH  10  21
TORSDOF 1
ENDMDL
MODEL 9
REMARK VINA RESULT:      -8.4      2.272      3.662
REMARK  1 active torsions:
REMARK  status: ('A' for Active; 'I' for Inactive)
REMARK       I    between atoms: N_9  and  C_10 
REMARK    1  A    between atoms: C_10  and  C_11 
ROOT
HETATM    1  C   UNL     1      40.846  -8.424   8.270  1.00  0.00     0.002 A 
HETATM    2  C   UNL     1      40.701  -8.691   6.909  1.00  0.00     0.031 A 
HETATM    3  C   UNL     1      41.124  -9.918   6.397  1.00  0.00     0.056 A 
HETATM    4  C   UNL     1      41.679 -10.903   7.232  1.00  0.00     0.036 A 
HETATM    5  N   UNL     1      42.196 -12.102   6.714  1.00  0.00    -0.273 NA
HETATM    6  C   UNL     1      41.641 -12.541   5.404  1.00  0.00     0.100 C 
HETATM    7  C   UNL     1      40.276 -13.233   5.600  1.00  0.00     0.055 C 
HETATM    8  C   UNL     1      40.390 -14.604   6.253  1.00  0.00     0.128 C 
HETATM    9  N   UNL     1      41.372 -15.444   5.579  1.00  0.00    -0.348 N 
HETATM   10  C   UNL     1      41.143 -16.825   5.591  1.00  0.00     0.253 C 
HETATM   11  O   UNL     1      40.196 -17.338   6.185  1.00  0.00    -0.267 OA
HETATM   12  C   UNL     1      42.705 -14.853   5.453  1.00  0.00     0.128 C 
HETATM   13  C   UNL     1      42.643 -13.508   4.745  1.00  0.00     0.055 C 
HETATM   14  C   UNL     1      41.406 -11.338   4.444  1.00  0.00     0.245 C 
HETATM   15  O   UNL     1      41.430 -11.432   3.216  1.00  0.00    -0.271 OA
HETATM   16  N   UNL     1      41.024 -10.153   5.021  1.00  0.00    -0.324 N 
HETATM   17  C   UNL     1      41.860 -10.598   8.586  1.00  0.00     0.026 A 
HETATM   18  C   UNL     1      41.433  -9.373   9.105  1.00  0.00     0.002 A 
HETATM   19  H   UNL     1      42.239 -12.833   7.418  1.00  0.00     0.129 HD
HETATM   20  H   UNL     1      40.772  -9.405   4.392  1.00  0.00     0.169 HD
ENDROOT
BRANCH  10  21
HETATM   21  C   UNL     1      42.053 -17.730   4.848  1.00  0.00     0.034 A 
HETATM   22  C   UNL     1      42.961 -18.552   5.530  1.00  0.00     0.051 A 
HETATM   23  C   UNL     1      43.805 -19.375   4.772  1.00  0.00     0.085 A 
HETATM   24  C   UNL     1      43.751 -19.323   3.383  1.00  0.00     0.062 A 
HETATM   25  N   UNL     1      44.743 -20.288   5.190  1.00  0.00    -0.242 NA
HETATM   26  N   UNL     1      44.695 -20.230   2.975  1.00  0.00    -0.349 N 
HETATM   27  C   UNL     1      42.889 -18.480   2.678  1.00  0.00     0.033 A 
HETATM   28  H   UNL     1      44.934 -20.449   2.019  1.00  0.00     0.167 HD
HETATM   29  C   UNL     1      45.257 -20.786   4.090  1.00  0.00     0.208 A 
HETATM   30  C   UNL     1      42.038 -17.677   3.446  1.00  0.00     0.019 A 
ENDBRANCH  10  21
TORSDOF 1
ENDMDL
MODEL 10
REMARK VINA RESULT:      -8.3      3.230      8.192
REMARK  1 active torsions:
REMARK  status: ('A' for Active; 'I' for Inactive)
REMARK       I    between atoms: N_9  and  C_10 
REMARK    1  A    between atoms: C_10  and  C_11 
ROOT
HETATM    1  C   UNL     1      44.350 -21.420   5.820  1.00  0.00     0.002 A 
HETATM    2  C   UNL     1      43.749 -20.373   6.517  1.00  0.00     0.031 A 
HETATM    3  C   UNL     1      43.561 -19.143   5.886  1.00  0.00     0.056 A 
HETATM    4  C   UNL     1      43.951 -18.941   4.551  1.00  0.00     0.036 A 
HETATM    5  N   UNL     1      43.854 -17.682   3.937  1.00  0.00    -0.273 NA
HETATM    6  C   UNL     1      42.841 -16.753   4.508  1.00  0.00     0.100 C 
HETATM    7  C   UNL     1      41.433 -17.098   3.981  1.00  0.00     0.055 C 
HETATM    8  C   UNL     1      41.243 -16.745   2.512  1.00  0.00     0.128 C 
HETATM    9  N   UNL     1      41.645 -15.372   2.229  1.00  0.00    -0.348 N 
HETATM   10  C   UNL     1      40.965 -14.710   1.200  1.00  0.00     0.253 C 
HETATM   11  O   UNL     1      40.104 -15.255   0.511  1.00  0.00    -0.267 OA
HETATM   12  C   UNL     1      43.009 -15.034   2.638  1.00  0.00     0.128 C 
HETATM   13  C   UNL     1      43.221 -15.311   4.118  1.00  0.00     0.055 C 
HETATM   14  C   UNL     1      42.780 -16.847   6.061  1.00  0.00     0.245 C 
HETATM   15  O   UNL     1      42.428 -15.916   6.787  1.00  0.00    -0.271 OA
HETATM   16  N   UNL     1      43.008 -18.083   6.613  1.00  0.00    -0.324 N 
HETATM   17  C   UNL     1      44.594 -19.990   3.884  1.00  0.00     0.026 A 
HETATM   18  C   UNL     1      44.780 -21.226   4.508  1.00  0.00     0.002 A 
HETATM   19  H   UNL     1      43.837 -17.753   2.925  1.00  0.00     0.129 HD
HETATM   20  H   UNL     1      42.866 -18.165   7.610  1.00  0.00     0.169 HD
ENDROOT
BRANCH  10  21
HETATM   21  C   UNL     1      41.261 -13.284   0.920  1.00  0.00     0.034 A 
HETATM   22  C   UNL     1      40.794 -12.274   1.775  1.00  0.00     0.051 A 
HETATM   23  C   UNL     1      41.092 -10.944   1.450  1.00  0.00     0.085 A 
HETATM   24  C   UNL     1      41.796 -10.662   0.283  1.00  0.00     0.062 A 
HETATM   25  N   UNL     1      40.791  -9.789   2.130  1.00  0.00    -0.242 NA
HETATM   26  N   UNL     1      41.901  -9.294   0.276  1.00  0.00    -0.349 N 
HETATM   27  C   UNL     1      42.231 -11.644  -0.609  1.00  0.00     0.033 A 
HETATM   28  H   UNL     1      42.350  -8.737  -0.436  1.00  0.00     0.167 HD
HETATM   29  C   UNL     1      41.291  -8.817   1.402  1.00  0.00     0.208 A 
HETATM   30  C   UNL     1      41.944 -12.970  -0.264  1.00  0.00     0.019 A 
ENDBRANCH  10  21
TORSDOF 1
ENDMDL
