MODEL 1
REMARK VINA RESULT:     -10.3      0.000      0.000
REMARK  4 active torsions:
REMARK  status: ('A' for Active; 'I' for Inactive)
REMARK    1  A    between atoms: C_5  and  N_6 
REMARK       I    between atoms: N_6  and  C_7 
REMARK    2  A    between atoms: C_7  and  C_8 
REMARK    3  A    between atoms: C_12  and  C_13 
REMARK    4  A    between atoms: N_24  and  C_25 
ROOT
HETATM    1  N   UNL     1      42.099 -14.868   2.056  1.00  0.00    -0.348 N 
HETATM    2  C   UNL     1      41.898 -13.700   1.370  1.00  0.00     0.257 C 
HETATM    3  O   UNL     1      42.613 -12.712   1.512  1.00  0.00    -0.267 OA
HETATM    4  H   UNL     1      41.449 -15.640   1.906  1.00  0.00     0.163 HD
ENDROOT
BRANCH   1   5
HETATM    5  C   UNL     1      43.278 -15.110   2.859  1.00  0.00     0.122 C 
HETATM    6  C   UNL     1      43.034 -14.873   4.365  1.00  0.00     0.039 C 
HETATM    7  C   UNL     1      42.394 -16.068   5.142  1.00  0.00    -0.040 C 
HETATM    8  C   UNL     1      40.925 -16.280   4.727  1.00  0.00     0.015 C 
HETATM    9  C   UNL     1      42.406 -15.724   6.647  1.00  0.00     0.015 C 
HETATM   10  C   UNL     1      43.201 -17.390   4.932  1.00  0.00     0.069 C 
HETATM   11  C   UNL     1      43.668 -17.541   3.522  1.00  0.00     0.047 A 
HETATM   12  C   UNL     1      43.702 -16.511   2.599  1.00  0.00     0.008 A 
HETATM   13  N   UNL     1      44.120 -18.683   2.869  1.00  0.00    -0.238 N 
HETATM   14  C   UNL     1      44.159 -17.100   1.418  1.00  0.00     0.150 A 
HETATM   15  N   UNL     1      44.382 -18.403   1.557  1.00  0.00    -0.179 NA
BRANCH  13  16
HETATM   16  C   UNL     1      44.336 -20.018   3.337  1.00  0.00     0.058 A 
HETATM   17  C   UNL     1      44.202 -21.080   2.422  1.00  0.00     0.031 A 
HETATM   18  C   UNL     1      44.391 -22.404   2.825  1.00  0.00     0.002 A 
HETATM   19  C   UNL     1      44.725 -22.686   4.145  1.00  0.00     0.000 A 
HETATM   20  C   UNL     1      44.879 -21.644   5.056  1.00  0.00     0.002 A 
HETATM   21  C   UNL     1      44.689 -20.315   4.656  1.00  0.00     0.031 A 
ENDBRANCH  13  16
ENDBRANCH   1   5
BRANCH   2  22
HETATM   22  C   UNL     1      40.787 -13.729   0.372  1.00  0.00     0.100 A 
HETATM   23  C   UNL     1      40.579 -14.829  -0.615  1.00  0.00     0.261 A 
HETATM   24  O   UNL     1      41.279 -15.839  -0.627  1.00  0.00    -0.267 OA
HETATM   25  N   UNL     1      39.570 -14.654  -1.532  1.00  0.00    -0.322 N 
HETATM   26  C   UNL     1      38.755 -13.547  -1.591  1.00  0.00     0.045 A 
HETATM   27  H   UNL     1      39.436 -15.408  -2.195  1.00  0.00     0.169 HD
HETATM   28  C   UNL     1      38.921 -12.566  -0.688  1.00  0.00     0.031 A 
HETATM   29  C   UNL     1      39.958 -12.668   0.315  1.00  0.00     0.025 A 
BRANCH  26  30
HETATM   30  C   UNL     1      37.760 -13.461  -2.674  1.00  0.00    -0.009 A 
HETATM   31  C   UNL     1      37.126 -12.240  -2.954  1.00  0.00     0.013 A 
HETATM   32  C   UNL     1      36.175 -12.146  -3.973  1.00  0.00     0.001 A 
HETATM   33  C   UNL     1      35.846 -13.272  -4.724  1.00  0.00     0.000 A 
HETATM   34  C   UNL     1      36.469 -14.490  -4.461  1.00  0.00     0.001 A 
HETATM   35  C   UNL     1      37.422 -14.584  -3.443  1.00  0.00     0.013 A 
ENDBRANCH  26  30
ENDBRANCH   2  22
TORSDOF 4
ENDMDL
MODEL 2
REMARK VINA RESULT:     -10.0      5.149      9.658
REMARK  4 active torsions:
REMARK  status: ('A' for Active; 'I' for Inactive)
REMARK    1  A    between atoms: C_5  and  N_6 
REMARK       I    between atoms: N_6  and  C_7 
REMARK    2  A    between atoms: C_7  and  C_8 
REMARK    3  A    between atoms: C_12  and  C_13 
REMARK    4  A    between atoms: N_24  and  C_25 
ROOT
HETATM    1  N   UNL     1      40.348 -13.201   6.172  1.00  0.00    -0.348 N 
HETATM    2  C   UNL     1      39.722 -12.081   6.651  1.00  0.00     0.257 C 
HETATM    3  O   UNL     1      38.740 -11.583   6.107  1.00  0.00    -0.267 OA
HETATM    4  H   UNL     1      41.175 -13.544   6.662  1.00  0.00     0.163 HD
ENDROOT
BRANCH   1   5
HETATM    5  C   UNL     1      39.801 -14.005   5.100  1.00  0.00     0.122 C 
HETATM    6  C   UNL     1      39.964 -13.345   3.715  1.00  0.00     0.039 C 
HETATM    7  C   UNL     1      41.348 -13.561   3.022  1.00  0.00    -0.040 C 
HETATM    8  C   UNL     1      42.463 -12.786   3.750  1.00  0.00     0.015 C 
HETATM    9  C   UNL     1      41.258 -13.003   1.585  1.00  0.00     0.015 C 
HETATM   10  C   UNL     1      41.721 -15.076   2.940  1.00  0.00     0.069 C 
HETATM   11  C   UNL     1      41.354 -15.809   4.188  1.00  0.00     0.047 A 
HETATM   12  C   UNL     1      40.489 -15.323   5.151  1.00  0.00     0.008 A 
HETATM   13  N   UNL     1      41.793 -17.053   4.632  1.00  0.00    -0.238 N 
HETATM   14  C   UNL     1      40.468 -16.302   6.147  1.00  0.00     0.150 A 
HETATM   15  N   UNL     1      41.267 -17.326   5.864  1.00  0.00    -0.179 NA
BRANCH  13  16
HETATM   16  C   UNL     1      42.656 -18.023   4.029  1.00  0.00     0.058 A 
HETATM   17  C   UNL     1      43.603 -18.675   4.841  1.00  0.00     0.031 A 
HETATM   18  C   UNL     1      44.479 -19.622   4.305  1.00  0.00     0.002 A 
HETATM   19  C   UNL     1      44.414 -19.940   2.953  1.00  0.00     0.000 A 
HETATM   20  C   UNL     1      43.468 -19.316   2.142  1.00  0.00     0.002 A 
HETATM   21  C   UNL     1      42.590 -18.364   2.675  1.00  0.00     0.031 A 
ENDBRANCH  13  16
ENDBRANCH   1   5
BRANCH   2  22
HETATM   22  C   UNL     1      40.268 -11.544   7.933  1.00  0.00     0.100 A 
HETATM   23  C   UNL     1      41.700 -11.177   8.143  1.00  0.00     0.261 A 
HETATM   24  O   UNL     1      42.528 -11.227   7.236  1.00  0.00    -0.267 OA
HETATM   25  N   UNL     1      42.059 -10.794   9.413  1.00  0.00    -0.322 N 
HETATM   26  C   UNL     1      41.195 -10.728  10.481  1.00  0.00     0.045 A 
HETATM   27  H   UNL     1      43.032 -10.545   9.543  1.00  0.00     0.169 HD
HETATM   28  C   UNL     1      39.900 -11.031  10.291  1.00  0.00     0.031 A 
HETATM   29  C   UNL     1      39.432 -11.442   8.985  1.00  0.00     0.025 A 
BRANCH  26  30
HETATM   30  C   UNL     1      41.734 -10.369  11.804  1.00  0.00    -0.009 A 
HETATM   31  C   UNL     1      40.937 -10.509  12.952  1.00  0.00     0.013 A 
HETATM   32  C   UNL     1      41.434 -10.166  14.212  1.00  0.00     0.001 A 
HETATM   33  C   UNL     1      42.732  -9.679  14.340  1.00  0.00     0.000 A 
HETATM   34  C   UNL     1      43.536  -9.538  13.210  1.00  0.00     0.001 A 
HETATM   35  C   UNL     1      43.041  -9.883  11.950  1.00  0.00     0.013 A 
ENDBRANCH  26  30
ENDBRANCH   2  22
TORSDOF 4
ENDMDL
MODEL 3
REMARK VINA RESULT:      -9.8      5.687     10.245
REMARK  4 active torsions:
REMARK  status: ('A' for Active; 'I' for Inactive)
REMARK    1  A    between atoms: C_5  and  N_6 
REMARK       I    between atoms: N_6  and  C_7 
REMARK    2  A    between atoms: C_7  and  C_8 
REMARK    3  A    between atoms: C_12  and  C_13 
REMARK    4  A    between atoms: N_24  and  C_25 
ROOT
HETATM    1  N   UNL     1      42.223 -12.383   6.722  1.00  0.00    -0.348 N 
HETATM    2  C   UNL     1      42.179 -12.768   5.409  1.00  0.00     0.257 C 
HETATM    3  O   UNL     1      41.958 -11.983   4.491  1.00  0.00    -0.267 OA
HETATM    4  H   UNL     1      42.386 -13.095   7.434  1.00  0.00     0.163 HD
ENDROOT
BRANCH   1   5
HETATM    5  C   UNL     1      42.208 -10.995   7.130  1.00  0.00     0.122 C 
HETATM    6  C   UNL     1      40.808 -10.354   7.014  1.00  0.00     0.039 C 
HETATM    7  C   UNL     1      39.847 -10.605   8.220  1.00  0.00    -0.040 C 
HETATM    8  C   UNL     1      39.394 -12.077   8.274  1.00  0.00     0.015 C 
HETATM    9  C   UNL     1      38.585  -9.738   8.017  1.00  0.00     0.015 C 
HETATM   10  C   UNL     1      40.509 -10.203   9.577  1.00  0.00     0.069 C 
HETATM   11  C   UNL     1      41.947 -10.597   9.635  1.00  0.00     0.047 A 
HETATM   12  C   UNL     1      42.703 -10.948   8.531  1.00  0.00     0.008 A 
HETATM   13  N   UNL     1      42.779 -10.709  10.746  1.00  0.00    -0.238 N 
HETATM   14  C   UNL     1      43.960 -11.277   9.044  1.00  0.00     0.150 A 
HETATM   15  N   UNL     1      44.009 -11.170  10.368  1.00  0.00    -0.179 NA
BRANCH  13  16
HETATM   16  C   UNL     1      42.550 -10.433  12.131  1.00  0.00     0.058 A 
HETATM   17  C   UNL     1      43.467  -9.608  12.811  1.00  0.00     0.031 A 
HETATM   18  C   UNL     1      43.301  -9.313  14.166  1.00  0.00     0.002 A 
HETATM   19  C   UNL     1      42.211  -9.829  14.859  1.00  0.00     0.000 A 
HETATM   20  C   UNL     1      41.286 -10.631  14.194  1.00  0.00     0.002 A 
HETATM   21  C   UNL     1      41.450 -10.930  12.836  1.00  0.00     0.031 A 
ENDBRANCH  13  16
ENDBRANCH   1   5
BRANCH   2  22
HETATM   22  C   UNL     1      42.493 -14.206   5.154  1.00  0.00     0.100 A 
HETATM   23  C   UNL     1      43.407 -15.025   6.006  1.00  0.00     0.261 A 
HETATM   24  O   UNL     1      43.916 -14.582   7.034  1.00  0.00    -0.267 OA
HETATM   25  N   UNL     1      43.671 -16.304   5.576  1.00  0.00    -0.322 N 
HETATM   26  C   UNL     1      43.152 -16.863   4.432  1.00  0.00     0.045 A 
HETATM   27  H   UNL     1      44.290 -16.850   6.163  1.00  0.00     0.169 HD
HETATM   28  C   UNL     1      42.309 -16.140   3.676  1.00  0.00     0.031 A 
HETATM   29  C   UNL     1      41.973 -14.785   4.055  1.00  0.00     0.025 A 
BRANCH  26  30
HETATM   30  C   UNL     1      43.579 -18.222   4.054  1.00  0.00    -0.009 A 
HETATM   31  C   UNL     1      44.218 -19.047   4.993  1.00  0.00     0.013 A 
HETATM   32  C   UNL     1      44.634 -20.335   4.646  1.00  0.00     0.001 A 
HETATM   33  C   UNL     1      44.416 -20.813   3.356  1.00  0.00     0.000 A 
HETATM   34  C   UNL     1      43.781 -20.007   2.415  1.00  0.00     0.001 A 
HETATM   35  C   UNL     1      43.362 -18.720   2.761  1.00  0.00     0.013 A 
ENDBRANCH  26  30
ENDBRANCH   2  22
TORSDOF 4
ENDMDL
MODEL 4
REMARK VINA RESULT:      -9.8      1.684      9.546
REMARK  4 active torsions:
REMARK  status: ('A' for Active; 'I' for Inactive)
REMARK    1  A    between atoms: C_5  and  N_6 
REMARK       I    between atoms: N_6  and  C_7 
REMARK    2  A    between atoms: C_7  and  C_8 
REMARK    3  A    between atoms: C_12  and  C_13 
REMARK    4  A    between atoms: N_24  and  C_25 
ROOT
HETATM    1  N   UNL     1      42.011 -13.591   0.750  1.00  0.00    -0.348 N 
HETATM    2  C   UNL     1      42.031 -14.122   2.012  1.00  0.00     0.257 C 
HETATM    3  O   UNL     1      41.593 -13.526   2.992  1.00  0.00    -0.267 OA
HETATM    4  H   UNL     1      42.416 -14.133  -0.014  1.00  0.00     0.163 HD
ENDROOT
BRANCH   1   5
HETATM    5  C   UNL     1      41.302 -12.371   0.425  1.00  0.00     0.122 C 
HETATM    6  C   UNL     1      42.107 -11.445  -0.512  1.00  0.00     0.039 C 
HETATM    7  C   UNL     1      42.010 -11.775  -2.035  1.00  0.00    -0.040 C 
HETATM    8  C   UNL     1      42.744 -13.090  -2.368  1.00  0.00     0.015 C 
HETATM    9  C   UNL     1      42.710 -10.643  -2.818  1.00  0.00     0.015 C 
HETATM   10  C   UNL     1      40.525 -11.861  -2.513  1.00  0.00     0.069 C 
HETATM   11  C   UNL     1      39.655 -12.548  -1.513  1.00  0.00     0.047 A 
HETATM   12  C   UNL     1      40.011 -12.769  -0.195  1.00  0.00     0.008 A 
HETATM   13  N   UNL     1      38.388 -13.096  -1.687  1.00  0.00    -0.238 N 
HETATM   14  C   UNL     1      38.934 -13.467   0.358  1.00  0.00     0.150 A 
HETATM   15  N   UNL     1      37.973 -13.697  -0.531  1.00  0.00    -0.179 NA
BRANCH  13  16
HETATM   16  C   UNL     1      37.515 -13.122  -2.820  1.00  0.00     0.058 A 
HETATM   17  C   UNL     1      37.298 -14.351  -3.471  1.00  0.00     0.031 A 
HETATM   18  C   UNL     1      36.465 -14.435  -4.590  1.00  0.00     0.002 A 
HETATM   19  C   UNL     1      35.829 -13.294  -5.067  1.00  0.00     0.000 A 
HETATM   20  C   UNL     1      36.020 -12.075  -4.420  1.00  0.00     0.002 A 
HETATM   21  C   UNL     1      36.856 -11.987  -3.300  1.00  0.00     0.031 A 
ENDBRANCH  13  16
ENDBRANCH   1   5
BRANCH   2  22
HETATM   22  C   UNL     1      42.556 -15.517   2.109  1.00  0.00     0.100 A 
HETATM   23  C   UNL     1      42.308 -16.576   1.086  1.00  0.00     0.261 A 
HETATM   24  O   UNL     1      41.705 -16.347   0.039  1.00  0.00    -0.267 OA
HETATM   25  N   UNL     1      42.776 -17.836   1.376  1.00  0.00    -0.322 N 
HETATM   26  C   UNL     1      43.445 -18.172   2.529  1.00  0.00     0.045 A 
HETATM   27  H   UNL     1      42.605 -18.545   0.673  1.00  0.00     0.169 HD
HETATM   28  C   UNL     1      43.693 -17.217   3.441  1.00  0.00     0.031 A 
HETATM   29  C   UNL     1      43.240 -15.861   3.217  1.00  0.00     0.025 A 
BRANCH  26  30
HETATM   30  C   UNL     1      43.826 -19.579   2.740  1.00  0.00    -0.009 A 
HETATM   31  C   UNL     1      44.443 -19.972   3.939  1.00  0.00     0.013 A 
HETATM   32  C   UNL     1      44.815 -21.302   4.149  1.00  0.00     0.001 A 
HETATM   33  C   UNL     1      44.575 -22.256   3.163  1.00  0.00     0.000 A 
HETATM   34  C   UNL     1      43.960 -21.882   1.969  1.00  0.00     0.001 A 
HETATM   35  C   UNL     1      43.585 -20.553   1.759  1.00  0.00     0.013 A 
ENDBRANCH  26  30
ENDBRANCH   2  22
TORSDOF 4
ENDMDL
MODEL 5
REMARK VINA RESULT:      -9.5      2.020      2.630
REMARK  4 active torsions:
REMARK  status: ('A' for Active; 'I' for Inactive)
REMARK    1  A    between atoms: C_5  and  N_6 
REMARK       I    between atoms: N_6  and  C_7 
REMARK    2  A    between atoms: C_7  and  C_8 
REMARK    3  A    between atoms: C_12  and  C_13 
REMARK    4  A    between atoms: N_24  and  C_25 
ROOT
HETATM    1  N   UNL     1      41.759 -14.566   3.760  1.00  0.00    -0.348 N 
HETATM    2  C   UNL     1      41.442 -13.235   3.695  1.00  0.00     0.257 C 
HETATM    3  O   UNL     1      42.129 -12.360   4.213  1.00  0.00    -0.267 OA
HETATM    4  H   UNL     1      41.127 -15.240   3.327  1.00  0.00     0.163 HD
ENDROOT
BRANCH   1   5
HETATM    5  C   UNL     1      43.024 -15.044   4.275  1.00  0.00     0.122 C 
HETATM    6  C   UNL     1      42.973 -15.358   5.786  1.00  0.00     0.039 C 
HETATM    7  C   UNL     1      42.412 -16.766   6.165  1.00  0.00    -0.040 C 
HETATM    8  C   UNL     1      40.899 -16.857   5.886  1.00  0.00     0.015 C 
HETATM    9  C   UNL     1      42.618 -16.972   7.682  1.00  0.00     0.015 C 
HETATM   10  C   UNL     1      43.162 -17.908   5.406  1.00  0.00     0.069 C 
HETATM   11  C   UNL     1      43.446 -17.541   3.987  1.00  0.00     0.047 A 
HETATM   12  C   UNL     1      43.385 -16.253   3.489  1.00  0.00     0.008 A 
HETATM   13  N   UNL     1      43.792 -18.369   2.923  1.00  0.00    -0.238 N 
HETATM   14  C   UNL     1      43.681 -16.376   2.129  1.00  0.00     0.150 A 
HETATM   15  N   UNL     1      43.894 -17.639   1.772  1.00  0.00    -0.179 NA
BRANCH  13  16
HETATM   16  C   UNL     1      44.039 -19.777   2.861  1.00  0.00     0.058 A 
HETATM   17  C   UNL     1      44.645 -20.402   3.967  1.00  0.00     0.031 A 
HETATM   18  C   UNL     1      44.920 -21.772   3.958  1.00  0.00     0.002 A 
HETATM   19  C   UNL     1      44.585 -22.539   2.847  1.00  0.00     0.000 A 
HETATM   20  C   UNL     1      43.967 -21.937   1.753  1.00  0.00     0.002 A 
HETATM   21  C   UNL     1      43.691 -20.564   1.758  1.00  0.00     0.031 A 
ENDBRANCH  13  16
ENDBRANCH   1   5
BRANCH   2  22
HETATM   22  C   UNL     1      40.234 -12.906   2.879  1.00  0.00     0.100 A 
HETATM   23  C   UNL     1      39.822 -13.657   1.656  1.00  0.00     0.261 A 
HETATM   24  O   UNL     1      40.420 -14.660   1.271  1.00  0.00    -0.267 OA
HETATM   25  N   UNL     1      38.743 -13.163   0.962  1.00  0.00    -0.322 N 
HETATM   26  C   UNL     1      38.034 -12.041   1.321  1.00  0.00     0.045 A 
HETATM   27  H   UNL     1      38.471 -13.682   0.136  1.00  0.00     0.169 HD
HETATM   28  C   UNL     1      38.385 -11.376   2.436  1.00  0.00     0.031 A 
HETATM   29  C   UNL     1      39.507 -11.828   3.229  1.00  0.00     0.025 A 
BRANCH  26  30
HETATM   30  C   UNL     1      36.943 -11.583   0.443  1.00  0.00    -0.009 A 
HETATM   31  C   UNL     1      35.744 -11.108   0.996  1.00  0.00     0.013 A 
HETATM   32  C   UNL     1      34.699 -10.678   0.174  1.00  0.00     0.001 A 
HETATM   33  C   UNL     1      34.841 -10.719  -1.211  1.00  0.00     0.000 A 
HETATM   34  C   UNL     1      36.027 -11.186  -1.775  1.00  0.00     0.001 A 
HETATM   35  C   UNL     1      37.073 -11.613  -0.954  1.00  0.00     0.013 A 
ENDBRANCH  26  30
ENDBRANCH   2  22
TORSDOF 4
ENDMDL
MODEL 6
REMARK VINA RESULT:      -9.1      3.085      3.804
REMARK  4 active torsions:
REMARK  status: ('A' for Active; 'I' for Inactive)
REMARK    1  A    between atoms: C_5  and  N_6 
REMARK       I    between atoms: N_6  and  C_7 
REMARK    2  A    between atoms: C_7  and  C_8 
REMARK    3  A    between atoms: C_12  and  C_13 
REMARK    4  A    between atoms: N_24  and  C_25 
ROOT
HETATM    1  N   UNL     1      42.049 -14.261   4.379  1.00  0.00    -0.348 N 
HETATM    2  C   UNL     1      41.636 -13.043   4.849  1.00  0.00     0.257 C 
HETATM    3  O   UNL     1      42.199 -12.459   5.769  1.00  0.00    -0.267 OA
HETATM    4  H   UNL     1      41.516 -14.700   3.627  1.00  0.00     0.163 HD
ENDROOT
BRANCH   1   5
HETATM    5  C   UNL     1      43.292 -14.877   4.789  1.00  0.00     0.122 C 
HETATM    6  C   UNL     1      43.270 -15.341   6.262  1.00  0.00     0.039 C 
HETATM    7  C   UNL     1      42.621 -16.738   6.522  1.00  0.00    -0.040 C 
HETATM    8  C   UNL     1      41.096 -16.692   6.299  1.00  0.00     0.015 C 
HETATM    9  C   UNL     1      42.863 -17.113   8.000  1.00  0.00     0.015 C 
HETATM   10  C   UNL     1      43.256 -17.845   5.620  1.00  0.00     0.069 C 
HETATM   11  C   UNL     1      43.517 -17.356   4.235  1.00  0.00     0.047 A 
HETATM   12  C   UNL     1      43.535 -16.021   3.871  1.00  0.00     0.008 A 
HETATM   13  N   UNL     1      43.763 -18.092   3.080  1.00  0.00    -0.238 N 
HETATM   14  C   UNL     1      43.772 -16.025   2.495  1.00  0.00     0.150 A 
HETATM   15  N   UNL     1      43.879 -17.256   2.004  1.00  0.00    -0.179 NA
BRANCH  13  16
HETATM   16  C   UNL     1      43.902 -19.500   2.866  1.00  0.00     0.058 A 
HETATM   17  C   UNL     1      44.647 -20.249   3.797  1.00  0.00     0.031 A 
HETATM   18  C   UNL     1      44.825 -21.625   3.633  1.00  0.00     0.002 A 
HETATM   19  C   UNL     1      44.254 -22.274   2.544  1.00  0.00     0.000 A 
HETATM   20  C   UNL     1      43.499 -21.548   1.626  1.00  0.00     0.002 A 
HETATM   21  C   UNL     1      43.319 -20.168   1.786  1.00  0.00     0.031 A 
ENDBRANCH  13  16
ENDBRANCH   1   5
BRANCH   2  22
HETATM   22  C   UNL     1      40.490 -12.429   4.112  1.00  0.00     0.100 A 
HETATM   23  C   UNL     1      39.246 -11.931   4.769  1.00  0.00     0.261 A 
HETATM   24  O   UNL     1      39.107 -11.926   5.991  1.00  0.00    -0.267 OA
HETATM   25  N   UNL     1      38.244 -11.488   3.938  1.00  0.00    -0.322 N 
HETATM   26  C   UNL     1      38.320 -11.475   2.565  1.00  0.00     0.045 A 
HETATM   27  H   UNL     1      37.406 -11.149   4.395  1.00  0.00     0.169 HD
HETATM   28  C   UNL     1      39.448 -11.898   1.970  1.00  0.00     0.031 A 
HETATM   29  C   UNL     1      40.555 -12.379   2.768  1.00  0.00     0.025 A 
BRANCH  26  30
HETATM   30  C   UNL     1      37.140 -11.040   1.797  1.00  0.00    -0.009 A 
HETATM   31  C   UNL     1      36.448  -9.875   2.166  1.00  0.00     0.013 A 
HETATM   32  C   UNL     1      35.324  -9.454   1.450  1.00  0.00     0.001 A 
HETATM   33  C   UNL     1      34.878 -10.195   0.358  1.00  0.00     0.000 A 
HETATM   34  C   UNL     1      35.556 -11.351  -0.022  1.00  0.00     0.001 A 
HETATM   35  C   UNL     1      36.682 -11.771   0.692  1.00  0.00     0.013 A 
ENDBRANCH  26  30
ENDBRANCH   2  22
TORSDOF 4
ENDMDL
MODEL 7
REMARK VINA RESULT:      -9.0      2.943      9.735
REMARK  4 active torsions:
REMARK  status: ('A' for Active; 'I' for Inactive)
REMARK    1  A    between atoms: C_5  and  N_6 
REMARK       I    between atoms: N_6  and  C_7 
REMARK    2  A    between atoms: C_7  and  C_8 
REMARK    3  A    between atoms: C_12  and  C_13 
REMARK    4  A    between atoms: N_24  and  C_25 
ROOT
HETATM    1  N   UNL     1      39.939 -13.915   0.640  1.00  0.00    -0.348 N 
HETATM    2  C   UNL     1      39.513 -14.963   1.412  1.00  0.00     0.257 C 
HETATM    3  O   UNL     1      38.346 -15.096   1.768  1.00  0.00    -0.267 OA
HETATM    4  H   UNL     1      40.930 -13.855   0.403  1.00  0.00     0.163 HD
ENDROOT
BRANCH   1   5
HETATM    5  C   UNL     1      39.027 -12.981   0.016  1.00  0.00     0.122 C 
HETATM    6  C   UNL     1      38.957 -11.629   0.757  1.00  0.00     0.039 C 
HETATM    7  C   UNL     1      40.079 -10.602   0.397  1.00  0.00    -0.040 C 
HETATM    8  C   UNL     1      41.448 -11.061   0.937  1.00  0.00     0.015 C 
HETATM    9  C   UNL     1      39.737  -9.259   1.079  1.00  0.00     0.015 C 
HETATM   10  C   UNL     1      40.169 -10.364  -1.144  1.00  0.00     0.069 C 
HETATM   11  C   UNL     1      39.999 -11.630  -1.916  1.00  0.00     0.047 A 
HETATM   12  C   UNL     1      39.482 -12.800  -1.388  1.00  0.00     0.008 A 
HETATM   13  N   UNL     1      40.323 -11.896  -3.243  1.00  0.00    -0.238 N 
HETATM   14  C   UNL     1      39.543 -13.726  -2.432  1.00  0.00     0.150 A 
HETATM   15  N   UNL     1      40.072 -13.207  -3.536  1.00  0.00    -0.179 NA
BRANCH  13  16
HETATM   16  C   UNL     1      40.845 -11.055  -4.276  1.00  0.00     0.058 A 
HETATM   17  C   UNL     1      39.960 -10.568  -5.257  1.00  0.00     0.031 A 
HETATM   18  C   UNL     1      40.417  -9.752  -6.296  1.00  0.00     0.002 A 
HETATM   19  C   UNL     1      41.761  -9.402  -6.363  1.00  0.00     0.000 A 
HETATM   20  C   UNL     1      42.644  -9.861  -5.388  1.00  0.00     0.002 A 
HETATM   21  C   UNL     1      42.190 -10.680  -4.346  1.00  0.00     0.031 A 
ENDBRANCH  13  16
ENDBRANCH   1   5
BRANCH   2  22
HETATM   22  C   UNL     1      40.555 -15.984   1.733  1.00  0.00     0.100 A 
HETATM   23  C   UNL     1      41.409 -16.657   0.710  1.00  0.00     0.261 A 
HETATM   24  O   UNL     1      41.362 -16.358  -0.481  1.00  0.00    -0.267 OA
HETATM   25  N   UNL     1      42.248 -17.648   1.162  1.00  0.00    -0.322 N 
HETATM   26  C   UNL     1      42.346 -18.047   2.474  1.00  0.00     0.045 A 
HETATM   27  H   UNL     1      42.825 -18.094   0.459  1.00  0.00     0.169 HD
HETATM   28  C   UNL     1      41.599 -17.427   3.402  1.00  0.00     0.031 A 
HETATM   29  C   UNL     1      40.690 -16.370   3.017  1.00  0.00     0.025 A 
BRANCH  26  30
HETATM   30  C   UNL     1      43.237 -19.173   2.804  1.00  0.00    -0.009 A 
HETATM   31  C   UNL     1      43.370 -20.252   1.916  1.00  0.00     0.013 A 
HETATM   32  C   UNL     1      44.205 -21.330   2.220  1.00  0.00     0.001 A 
HETATM   33  C   UNL     1      44.918 -21.342   3.416  1.00  0.00     0.000 A 
HETATM   34  C   UNL     1      44.799 -20.277   4.307  1.00  0.00     0.001 A 
HETATM   35  C   UNL     1      43.966 -19.198   4.002  1.00  0.00     0.013 A 
ENDBRANCH  26  30
ENDBRANCH   2  22
TORSDOF 4
ENDMDL
MODEL 8
REMARK VINA RESULT:      -8.6      5.848     11.121
REMARK  4 active torsions:
REMARK  status: ('A' for Active; 'I' for Inactive)
REMARK    1  A    between atoms: C_5  and  N_6 
REMARK       I    between atoms: N_6  and  C_7 
REMARK    2  A    between atoms: C_7  and  C_8 
REMARK    3  A    between atoms: C_12  and  C_13 
REMARK    4  A    between atoms: N_24  and  C_25 
ROOT
HETATM    1  N   UNL     1      42.390 -12.568   6.905  1.00  0.00    -0.348 N 
HETATM    2  C   UNL     1      42.534 -13.258   5.730  1.00  0.00     0.257 C 
HETATM    3  O   UNL     1      42.468 -12.719   4.629  1.00  0.00    -0.267 OA
HETATM    4  H   UNL     1      42.432 -13.087   7.783  1.00  0.00     0.163 HD
ENDROOT
BRANCH   1   5
HETATM    5  C   UNL     1      42.340 -11.123   6.962  1.00  0.00     0.122 C 
HETATM    6  C   UNL     1      41.305 -10.522   5.987  1.00  0.00     0.039 C 
HETATM    7  C   UNL     1      39.831 -10.483   6.505  1.00  0.00    -0.040 C 
HETATM    8  C   UNL     1      39.233 -11.902   6.590  1.00  0.00     0.015 C 
HETATM    9  C   UNL     1      38.986  -9.684   5.490  1.00  0.00     0.015 C 
HETATM   10  C   UNL     1      39.728  -9.780   7.896  1.00  0.00     0.069 C 
HETATM   11  C   UNL     1      40.858 -10.154   8.796  1.00  0.00     0.047 A 
HETATM   12  C   UNL     1      42.029 -10.754   8.368  1.00  0.00     0.008 A 
HETATM   13  N   UNL     1      40.962 -10.008  10.177  1.00  0.00    -0.238 N 
HETATM   14  C   UNL     1      42.776 -10.960   9.531  1.00  0.00     0.150 A 
HETATM   15  N   UNL     1      42.137 -10.548  10.620  1.00  0.00    -0.179 NA
BRANCH  13  16
HETATM   16  C   UNL     1      40.078  -9.417  11.135  1.00  0.00     0.058 A 
HETATM   17  C   UNL     1      40.596  -8.452  12.020  1.00  0.00     0.031 A 
HETATM   18  C   UNL     1      39.783  -7.850  12.983  1.00  0.00     0.002 A 
HETATM   19  C   UNL     1      38.439  -8.195  13.069  1.00  0.00     0.000 A 
HETATM   20  C   UNL     1      37.909  -9.134  12.187  1.00  0.00     0.002 A 
HETATM   21  C   UNL     1      38.721  -9.741  11.221  1.00  0.00     0.031 A 
ENDBRANCH  13  16
ENDBRANCH   1   5
BRANCH   2  22
HETATM   22  C   UNL     1      42.856 -14.709   5.877  1.00  0.00     0.100 A 
HETATM   23  C   UNL     1      44.057 -15.230   6.595  1.00  0.00     0.261 A 
HETATM   24  O   UNL     1      44.839 -14.488   7.186  1.00  0.00    -0.267 OA
HETATM   25  N   UNL     1      44.261 -16.589   6.551  1.00  0.00    -0.322 N 
HETATM   26  C   UNL     1      43.440 -17.479   5.900  1.00  0.00     0.045 A 
HETATM   27  H   UNL     1      45.078 -16.931   7.044  1.00  0.00     0.169 HD
HETATM   28  C   UNL     1      42.344 -17.018   5.275  1.00  0.00     0.031 A 
HETATM   29  C   UNL     1      42.049 -15.602   5.273  1.00  0.00     0.025 A 
BRANCH  26  30
HETATM   30  C   UNL     1      43.821 -18.902   5.875  1.00  0.00    -0.009 A 
HETATM   31  C   UNL     1      44.526 -19.425   4.779  1.00  0.00     0.013 A 
HETATM   32  C   UNL     1      44.886 -20.774   4.740  1.00  0.00     0.001 A 
HETATM   33  C   UNL     1      44.547 -21.617   5.795  1.00  0.00     0.000 A 
HETATM   34  C   UNL     1      43.851 -21.112   6.892  1.00  0.00     0.001 A 
HETATM   35  C   UNL     1      43.492 -19.762   6.933  1.00  0.00     0.013 A 
ENDBRANCH  26  30
ENDBRANCH   2  22
TORSDOF 4
ENDMDL
MODEL 9
REMARK VINA RESULT:      -8.6      3.132      9.713
REMARK  4 active torsions:
REMARK  status: ('A' for Active; 'I' for Inactive)
REMARK    1  A    between atoms: C_5  and  N_6 
REMARK       I    between atoms: N_6  and  C_7 
REMARK    2  A    between atoms: C_7  and  C_8 
REMARK    3  A    between atoms: C_12  and  C_13 
REMARK    4  A    between atoms: N_24  and  C_25 
ROOT
HETATM    1  N   UNL     1      40.108 -14.769  -0.289  1.00  0.00    -0.348 N 
HETATM    2  C   UNL     1      40.909 -15.864  -0.474  1.00  0.00     0.257 C 
HETATM    3  O   UNL     1      41.180 -16.312  -1.584  1.00  0.00    -0.267 OA
HETATM    4  H   UNL     1      39.905 -14.469   0.665  1.00  0.00     0.163 HD
ENDROOT
BRANCH   1   5
HETATM    5  C   UNL     1      39.669 -13.928  -1.382  1.00  0.00     0.122 C 
HETATM    6  C   UNL     1      38.389 -13.133  -1.047  1.00  0.00     0.039 C 
HETATM    7  C   UNL     1      38.607 -11.803  -0.257  1.00  0.00    -0.040 C 
HETATM    8  C   UNL     1      39.059 -12.082   1.190  1.00  0.00     0.015 C 
HETATM    9  C   UNL     1      37.255 -11.060  -0.185  1.00  0.00     0.015 C 
HETATM   10  C   UNL     1      39.644 -10.874  -0.967  1.00  0.00     0.069 C 
HETATM   11  C   UNL     1      40.795 -11.645  -1.522  1.00  0.00     0.047 A 
HETATM   12  C   UNL     1      40.797 -13.015  -1.709  1.00  0.00     0.008 A 
HETATM   13  N   UNL     1      42.043 -11.181  -1.927  1.00  0.00    -0.238 N 
HETATM   14  C   UNL     1      42.070 -13.311  -2.202  1.00  0.00     0.150 A 
HETATM   15  N   UNL     1      42.834 -12.229  -2.307  1.00  0.00    -0.179 NA
BRANCH  13  16
HETATM   16  C   UNL     1      42.584  -9.858  -1.999  1.00  0.00     0.058 A 
HETATM   17  C   UNL     1      43.511  -9.458  -1.017  1.00  0.00     0.031 A 
HETATM   18  C   UNL     1      44.063  -8.174  -1.031  1.00  0.00     0.002 A 
HETATM   19  C   UNL     1      43.705  -7.276  -2.031  1.00  0.00     0.000 A 
HETATM   20  C   UNL     1      42.803  -7.666  -3.019  1.00  0.00     0.002 A 
HETATM   21  C   UNL     1      42.247  -8.951  -3.007  1.00  0.00     0.031 A 
ENDBRANCH  13  16
ENDBRANCH   1   5
BRANCH   2  22
HETATM   22  C   UNL     1      41.499 -16.441   0.772  1.00  0.00     0.100 A 
HETATM   23  C   UNL     1      40.870 -16.332   2.122  1.00  0.00     0.261 A 
HETATM   24  O   UNL     1      39.769 -15.812   2.291  1.00  0.00    -0.267 OA
HETATM   25  N   UNL     1      41.593 -16.828   3.181  1.00  0.00    -0.322 N 
HETATM   26  C   UNL     1      42.834 -17.410   3.072  1.00  0.00     0.045 A 
HETATM   27  H   UNL     1      41.155 -16.751   4.091  1.00  0.00     0.169 HD
HETATM   28  C   UNL     1      43.392 -17.535   1.856  1.00  0.00     0.031 A 
HETATM   29  C   UNL     1      42.701 -17.042   0.685  1.00  0.00     0.025 A 
BRANCH  26  30
HETATM   30  C   UNL     1      43.525 -17.834   4.303  1.00  0.00    -0.009 A 
HETATM   31  C   UNL     1      43.607 -16.964   5.402  1.00  0.00     0.013 A 
HETATM   32  C   UNL     1      44.265 -17.351   6.572  1.00  0.00     0.001 A 
HETATM   33  C   UNL     1      44.850 -18.612   6.657  1.00  0.00     0.000 A 
HETATM   34  C   UNL     1      44.775 -19.487   5.575  1.00  0.00     0.001 A 
HETATM   35  C   UNL     1      44.114 -19.103   4.406  1.00  0.00     0.013 A 
ENDBRANCH  26  30
ENDBRANCH   2  22
TORSDOF 4
ENDMDL
MODEL 10
REMARK VINA RESULT:      -8.4      2.072      9.611
REMARK  4 active torsions:
REMARK  status: ('A' for Active; 'I' for Inactive)
REMARK    1  A    between atoms: C_5  and  N_6 
REMARK       I    between atoms: N_6  and  C_7 
REMARK    2  A    between atoms: C_7  and  C_8 
REMARK    3  A    between atoms: C_12  and  C_13 
REMARK    4  A    between atoms: N_24  and  C_25 
ROOT
HETATM    1  N   UNL     1      40.309 -13.921   2.734  1.00  0.00    -0.348 N 
HETATM    2  C   UNL     1      40.451 -14.780   3.791  1.00  0.00     0.257 C 
HETATM    3  O   UNL     1      39.889 -14.609   4.868  1.00  0.00    -0.267 OA
HETATM    4  H   UNL     1      40.827 -14.113   1.876  1.00  0.00     0.163 HD
ENDROOT
BRANCH   1   5
HETATM    5  C   UNL     1      39.339 -12.846   2.725  1.00  0.00     0.122 C 
HETATM    6  C   UNL     1      39.989 -11.455   2.889  1.00  0.00     0.039 C 
HETATM    7  C   UNL     1      40.549 -10.812   1.580  1.00  0.00    -0.040 C 
HETATM    8  C   UNL     1      41.799 -11.563   1.082  1.00  0.00     0.015 C 
HETATM    9  C   UNL     1      40.976  -9.363   1.901  1.00  0.00     0.015 C 
HETATM   10  C   UNL     1      39.470 -10.770   0.451  1.00  0.00     0.069 C 
HETATM   11  C   UNL     1      38.650 -12.017   0.414  1.00  0.00     0.047 A 
HETATM   12  C   UNL     1      38.595 -12.942   1.441  1.00  0.00     0.008 A 
HETATM   13  N   UNL     1      37.834 -12.497  -0.605  1.00  0.00    -0.238 N 
HETATM   14  C   UNL     1      37.754 -13.954   0.971  1.00  0.00     0.150 A 
HETATM   15  N   UNL     1      37.319 -13.716  -0.262  1.00  0.00    -0.179 NA
BRANCH  13  16
HETATM   16  C   UNL     1      37.479 -11.940  -1.875  1.00  0.00     0.058 A 
HETATM   17  C   UNL     1      36.254 -11.257  -1.990  1.00  0.00     0.031 A 
HETATM   18  C   UNL     1      35.851 -10.703  -3.207  1.00  0.00     0.002 A 
HETATM   19  C   UNL     1      36.670 -10.815  -4.325  1.00  0.00     0.000 A 
HETATM   20  C   UNL     1      37.894 -11.472  -4.221  1.00  0.00     0.002 A 
HETATM   21  C   UNL     1      38.301 -12.030  -3.002  1.00  0.00     0.031 A 
ENDBRANCH  13  16
ENDBRANCH   1   5
BRANCH   2  22
HETATM   22  C   UNL     1      41.282 -15.992   3.521  1.00  0.00     0.100 A 
HETATM   23  C   UNL     1      41.309 -16.711   2.213  1.00  0.00     0.261 A 
HETATM   24  O   UNL     1      40.693 -16.306   1.229  1.00  0.00    -0.267 OA
HETATM   25  N   UNL     1      42.049 -17.869   2.161  1.00  0.00    -0.322 N 
HETATM   26  C   UNL     1      42.752 -18.392   3.220  1.00  0.00     0.045 A 
HETATM   27  H   UNL     1      42.063 -18.347   1.267  1.00  0.00     0.169 HD
HETATM   28  C   UNL     1      42.752 -17.735   4.392  1.00  0.00     0.031 A 
HETATM   29  C   UNL     1      42.003 -16.506   4.536  1.00  0.00     0.025 A 
BRANCH  26  30
HETATM   30  C   UNL     1      43.443 -19.681   3.041  1.00  0.00    -0.009 A 
HETATM   31  C   UNL     1      44.317 -20.158   4.032  1.00  0.00     0.013 A 
HETATM   32  C   UNL     1      44.983 -21.375   3.871  1.00  0.00     0.001 A 
HETATM   33  C   UNL     1      44.785 -22.130   2.718  1.00  0.00     0.000 A 
HETATM   34  C   UNL     1      43.919 -21.672   1.728  1.00  0.00     0.001 A 
HETATM   35  C   UNL     1      43.249 -20.457   1.888  1.00  0.00     0.013 A 
ENDBRANCH  26  30
ENDBRANCH   2  22
TORSDOF 4
ENDMDL
