MODEL 1
REMARK VINA RESULT:      -8.7      0.000      0.000
REMARK  6 active torsions:
REMARK  status: ('A' for Active; 'I' for Inactive)
REMARK    1  A    between atoms: C_5  and  C_6 
REMARK    2  A    between atoms: C_11  and  C_12 
REMARK       I    between atoms: C_12  and  N_13 
REMARK    3  A    between atoms: N_13  and  C_14 
REMARK    4  A    between atoms: C_16  and  C_17 
REMARK    5  A    between atoms: C_17  and  O_18 
REMARK    6  A    between atoms: C_25  and  C_26 
ROOT
HETATM    1  C   UNL     1      41.224 -16.888   2.700  1.00  0.00     0.118 C 
HETATM    2  N   UNL     1      40.354 -16.406   3.767  1.00  0.00    -0.366 N 
HETATM    3  C   UNL     1      40.447 -15.163   4.280  1.00  0.00     0.123 A 
HETATM    4  N   UNL     1      41.346 -14.251   3.806  1.00  0.00    -0.240 N 
HETATM    5  N   UNL     1      41.260 -13.040   4.393  1.00  0.00    -0.165 NA
HETATM    6  C   UNL     1      40.287 -13.210   5.319  1.00  0.00     0.148 A 
HETATM    7  C   UNL     1      39.759 -14.528   5.278  1.00  0.00     0.089 A 
HETATM    8  C   UNL     1      42.278 -14.514   2.727  1.00  0.00     0.221 C 
HETATM    9  C   UNL     1      41.807 -15.717   1.889  1.00  0.00     0.066 C 
HETATM   10  H   UNL     1      39.764 -17.113   4.202  1.00  0.00     0.161 HD
ENDROOT
BRANCH   6  11
HETATM   11  C   UNL     1      39.862 -12.128   6.226  1.00  0.00     0.276 C 
HETATM   12  N   UNL     1      40.873 -11.741   7.084  1.00  0.00    -0.322 N 
HETATM   13  H   UNL     1      41.731 -12.276   6.967  1.00  0.00     0.169 HD
HETATM   14  O   UNL     1      38.723 -11.675   6.183  1.00  0.00    -0.266 OA
BRANCH  12  15
HETATM   15  C   UNL     1      40.843 -10.744   8.074  1.00  0.00     0.035 A 
HETATM   16  C   UNL     1      40.425 -10.971   9.388  1.00  0.00     0.039 A 
HETATM   17  C   UNL     1      40.413  -9.933  10.340  1.00  0.00    -0.028 A 
HETATM   18  C   UNL     1      40.841  -8.657   9.950  1.00  0.00     0.010 A 
HETATM   19  C   UNL     1      41.255  -8.421   8.639  1.00  0.00     0.003 A 
HETATM   20  C   UNL     1      41.253  -9.459   7.706  1.00  0.00     0.029 A 
BRANCH  17  21
HETATM   21  C   UNL     1      39.964 -10.231  11.755  1.00  0.00     0.147 C 
HETATM   22  C   UNL     1      38.693  -9.470  12.112  1.00  0.00     0.044 C 
BRANCH  21  23
HETATM   23  O   UNL     1      39.730 -11.629  11.925  1.00  0.00    -0.391 OA
HETATM   24  H   UNL     1      40.402 -12.092  11.398  1.00  0.00     0.210 HD
ENDBRANCH  21  23
ENDBRANCH  17  21
ENDBRANCH  12  15
ENDBRANCH   6  11
BRANCH   8  25
HETATM   25  C   UNL     1      43.683 -14.648   3.267  1.00  0.00     0.409 C 
HETATM   26  F   UNL     1      44.348 -13.482   3.361  1.00  0.00    -0.169 F 
HETATM   27  F   UNL     1      43.655 -15.197   4.509  1.00  0.00    -0.169 F 
HETATM   28  F   UNL     1      44.434 -15.480   2.507  1.00  0.00    -0.169 F 
ENDBRANCH   8  25
BRANCH   1  29
HETATM   29  C   UNL     1      42.239 -17.906   3.185  1.00  0.00    -0.035 A 
HETATM   30  C   UNL     1      42.372 -18.132   4.566  1.00  0.00     0.010 A 
HETATM   31  C   UNL     1      43.313 -19.037   5.063  1.00  0.00     0.007 A 
HETATM   32  C   UNL     1      44.152 -19.738   4.192  1.00  0.00    -0.062 A 
HETATM   33  C   UNL     1      45.145 -20.733   4.711  1.00  0.00     0.048 C 
HETATM   34  C   UNL     1      44.018 -19.532   2.816  1.00  0.00     0.007 A 
HETATM   35  C   UNL     1      43.081 -18.619   2.320  1.00  0.00     0.010 A 
ENDBRANCH   1  29
TORSDOF 6
ENDMDL
MODEL 2
REMARK VINA RESULT:      -8.7      6.481      9.514
REMARK  6 active torsions:
REMARK  status: ('A' for Active; 'I' for Inactive)
REMARK    1  A    between atoms: C_5  and  C_6 
REMARK    2  A    between atoms: C_11  and  C_12 
REMARK       I    between atoms: C_12  and  N_13 
REMARK    3  A    between atoms: N_13  and  C_14 
REMARK    4  A    between atoms: C_16  and  C_17 
REMARK    5  A    between atoms: C_17  and  O_18 
REMARK    6  A    between atoms: C_25  and  C_26 
ROOT
HETATM    1  C   UNL     1      39.175 -12.680  -1.480  1.00  0.00     0.118 C 
HETATM    2  N   UNL     1      38.961 -13.403  -0.233  1.00  0.00    -0.366 N 
HETATM    3  C   UNL     1      39.792 -14.371   0.203  1.00  0.00     0.123 A 
HETATM    4  N   UNL     1      40.920 -14.718  -0.486  1.00  0.00    -0.240 N 
HETATM    5  N   UNL     1      41.665 -15.661   0.124  1.00  0.00    -0.165 NA
HETATM    6  C   UNL     1      40.947 -15.961   1.232  1.00  0.00     0.148 A 
HETATM    7  C   UNL     1      39.766 -15.174   1.310  1.00  0.00     0.089 A 
HETATM    8  C   UNL     1      41.336 -14.099  -1.730  1.00  0.00     0.221 C 
HETATM    9  C   UNL     1      40.653 -12.730  -1.905  1.00  0.00     0.066 C 
HETATM   10  H   UNL     1      38.066 -13.232   0.224  1.00  0.00     0.161 HD
ENDROOT
BRANCH   6  11
HETATM   11  C   UNL     1      41.383 -16.978   2.206  1.00  0.00     0.276 C 
HETATM   12  N   UNL     1      42.485 -17.684   1.762  1.00  0.00    -0.322 N 
HETATM   13  H   UNL     1      42.798 -17.406   0.835  1.00  0.00     0.169 HD
HETATM   14  O   UNL     1      40.786 -17.139   3.265  1.00  0.00    -0.266 OA
BRANCH  12  15
HETATM   15  C   UNL     1      43.179 -18.716   2.415  1.00  0.00     0.035 A 
HETATM   16  C   UNL     1      43.618 -18.638   3.740  1.00  0.00     0.039 A 
HETATM   17  C   UNL     1      44.313 -19.703   4.344  1.00  0.00    -0.028 A 
HETATM   18  C   UNL     1      44.550 -20.863   3.594  1.00  0.00     0.010 A 
HETATM   19  C   UNL     1      44.119 -20.949   2.271  1.00  0.00     0.003 A 
HETATM   20  C   UNL     1      43.440 -19.879   1.684  1.00  0.00     0.029 A 
BRANCH  17  21
HETATM   21  C   UNL     1      44.756 -19.575   5.786  1.00  0.00     0.147 C 
HETATM   22  C   UNL     1      45.075 -18.129   6.147  1.00  0.00     0.044 C 
BRANCH  21  23
HETATM   23  O   UNL     1      43.746 -20.061   6.669  1.00  0.00    -0.391 OA
HETATM   24  H   UNL     1      43.704 -21.023   6.543  1.00  0.00     0.210 HD
ENDBRANCH  21  23
ENDBRANCH  17  21
ENDBRANCH  12  15
ENDBRANCH   6  11
BRANCH   8  25
HETATM   25  C   UNL     1      41.123 -15.050  -2.885  1.00  0.00     0.409 C 
HETATM   26  F   UNL     1      40.266 -16.052  -2.621  1.00  0.00    -0.169 F 
HETATM   27  F   UNL     1      40.638 -14.377  -3.960  1.00  0.00    -0.169 F 
HETATM   28  F   UNL     1      42.287 -15.612  -3.290  1.00  0.00    -0.169 F 
ENDBRANCH   8  25
BRANCH   1  29
HETATM   29  C   UNL     1      38.180 -13.065  -2.559  1.00  0.00    -0.035 A 
HETATM   30  C   UNL     1      37.663 -12.063  -3.399  1.00  0.00     0.010 A 
HETATM   31  C   UNL     1      36.722 -12.362  -4.388  1.00  0.00     0.007 A 
HETATM   32  C   UNL     1      36.269 -13.672  -4.561  1.00  0.00    -0.062 A 
HETATM   33  C   UNL     1      35.281 -14.011  -5.637  1.00  0.00     0.048 C 
HETATM   34  C   UNL     1      36.787 -14.679  -3.741  1.00  0.00     0.007 A 
HETATM   35  C   UNL     1      37.722 -14.376  -2.746  1.00  0.00     0.010 A 
ENDBRANCH   1  29
TORSDOF 6
ENDMDL
MODEL 3
REMARK VINA RESULT:      -8.6      5.503      8.658
REMARK  6 active torsions:
REMARK  status: ('A' for Active; 'I' for Inactive)
REMARK    1  A    between atoms: C_5  and  C_6 
REMARK    2  A    between atoms: C_11  and  C_12 
REMARK       I    between atoms: C_12  and  N_13 
REMARK    3  A    between atoms: N_13  and  C_14 
REMARK    4  A    between atoms: C_16  and  C_17 
REMARK    5  A    between atoms: C_17  and  O_18 
REMARK    6  A    between atoms: C_25  and  C_26 
ROOT
HETATM    1  C   UNL     1      39.701 -14.428  -2.248  1.00  0.00     0.118 C 
HETATM    2  N   UNL     1      40.571 -15.418  -1.625  1.00  0.00    -0.366 N 
HETATM    3  C   UNL     1      40.695 -15.544  -0.288  1.00  0.00     0.123 A 
HETATM    4  N   UNL     1      39.982 -14.767   0.580  1.00  0.00    -0.240 N 
HETATM    5  N   UNL     1      40.185 -15.069   1.878  1.00  0.00    -0.165 NA
HETATM    6  C   UNL     1      41.112 -16.054   1.829  1.00  0.00     0.148 A 
HETATM    7  C   UNL     1      41.456 -16.374   0.489  1.00  0.00     0.089 A 
HETATM    8  C   UNL     1      39.037 -13.747   0.169  1.00  0.00     0.221 C 
HETATM    9  C   UNL     1      38.586 -13.984  -1.284  1.00  0.00     0.066 C 
HETATM   10  H   UNL     1      41.190 -15.919  -2.261  1.00  0.00     0.161 HD
ENDROOT
BRANCH   6  11
HETATM   11  C   UNL     1      41.656 -16.688   3.045  1.00  0.00     0.276 C 
HETATM   12  N   UNL     1      42.531 -17.715   2.748  1.00  0.00    -0.322 N 
HETATM   13  H   UNL     1      42.639 -17.880   1.749  1.00  0.00     0.169 HD
HETATM   14  O   UNL     1      41.320 -16.310   4.162  1.00  0.00    -0.266 OA
BRANCH  12  15
HETATM   15  C   UNL     1      43.244 -18.537   3.637  1.00  0.00     0.035 A 
HETATM   16  C   UNL     1      43.303 -18.318   5.016  1.00  0.00     0.039 A 
HETATM   17  C   UNL     1      44.037 -19.174   5.860  1.00  0.00    -0.028 A 
HETATM   18  C   UNL     1      44.704 -20.267   5.295  1.00  0.00     0.010 A 
HETATM   19  C   UNL     1      44.655 -20.490   3.919  1.00  0.00     0.003 A 
HETATM   20  C   UNL     1      43.931 -19.627   3.094  1.00  0.00     0.029 A 
BRANCH  17  21
HETATM   21  C   UNL     1      44.058 -18.902   7.350  1.00  0.00     0.147 C 
HETATM   22  C   UNL     1      43.205 -17.692   7.712  1.00  0.00     0.044 C 
BRANCH  21  23
HETATM   23  O   UNL     1      43.585 -20.036   8.076  1.00  0.00    -0.391 OA
HETATM   24  H   UNL     1      42.674 -19.836   8.346  1.00  0.00     0.210 HD
ENDBRANCH  21  23
ENDBRANCH  17  21
ENDBRANCH  12  15
ENDBRANCH   6  11
BRANCH   8  25
HETATM   25  C   UNL     1      39.605 -12.371   0.425  1.00  0.00     0.409 C 
HETATM   26  F   UNL     1      39.348 -11.891   1.655  1.00  0.00    -0.169 F 
HETATM   27  F   UNL     1      40.955 -12.388   0.273  1.00  0.00    -0.169 F 
HETATM   28  F   UNL     1      39.140 -11.464  -0.467  1.00  0.00    -0.169 F 
ENDBRANCH   8  25
BRANCH   1  29
HETATM   29  C   UNL     1      40.473 -13.299  -2.905  1.00  0.00    -0.035 A 
HETATM   30  C   UNL     1      39.770 -12.329  -3.639  1.00  0.00     0.010 A 
HETATM   31  C   UNL     1      40.438 -11.286  -4.288  1.00  0.00     0.007 A 
HETATM   32  C   UNL     1      41.831 -11.191  -4.224  1.00  0.00    -0.062 A 
HETATM   33  C   UNL     1      42.557 -10.061  -4.891  1.00  0.00     0.048 C 
HETATM   34  C   UNL     1      42.539 -12.142  -3.485  1.00  0.00     0.007 A 
HETATM   35  C   UNL     1      41.869 -13.189  -2.843  1.00  0.00     0.010 A 
ENDBRANCH   1  29
TORSDOF 6
ENDMDL
MODEL 4
REMARK VINA RESULT:      -8.5      5.493      8.476
REMARK  6 active torsions:
REMARK  status: ('A' for Active; 'I' for Inactive)
REMARK    1  A    between atoms: C_5  and  C_6 
REMARK    2  A    between atoms: C_11  and  C_12 
REMARK       I    between atoms: C_12  and  N_13 
REMARK    3  A    between atoms: N_13  and  C_14 
REMARK    4  A    between atoms: C_16  and  C_17 
REMARK    5  A    between atoms: C_17  and  O_18 
REMARK    6  A    between atoms: C_25  and  C_26 
ROOT
HETATM    1  C   UNL     1      43.970 -16.771   2.219  1.00  0.00     0.118 C 
HETATM    2  N   UNL     1      43.169 -16.450   1.044  1.00  0.00    -0.366 N 
HETATM    3  C   UNL     1      41.961 -15.855   1.123  1.00  0.00     0.123 A 
HETATM    4  N   UNL     1      41.418 -15.479   2.318  1.00  0.00    -0.240 N 
HETATM    5  N   UNL     1      40.234 -14.845   2.206  1.00  0.00    -0.165 NA
HETATM    6  C   UNL     1      39.992 -14.864   0.875  1.00  0.00     0.148 A 
HETATM    7  C   UNL     1      41.052 -15.492   0.167  1.00  0.00     0.089 A 
HETATM    8  C   UNL     1      42.064 -15.674   3.602  1.00  0.00     0.221 C 
HETATM    9  C   UNL     1      43.578 -15.887   3.417  1.00  0.00     0.066 C 
HETATM   10  H   UNL     1      43.512 -16.830   0.163  1.00  0.00     0.161 HD
ENDROOT
BRANCH   6  11
HETATM   11  C   UNL     1      38.772 -14.285   0.284  1.00  0.00     0.276 C 
HETATM   12  N   UNL     1      39.004 -13.752  -0.969  1.00  0.00    -0.322 N 
HETATM   13  H   UNL     1      39.974 -13.824  -1.268  1.00  0.00     0.169 HD
HETATM   14  O   UNL     1      37.707 -14.295   0.891  1.00  0.00    -0.266 OA
BRANCH  12  15
HETATM   15  C   UNL     1      38.089 -13.127  -1.834  1.00  0.00     0.035 A 
HETATM   16  C   UNL     1      37.500 -13.764  -2.930  1.00  0.00     0.039 A 
HETATM   17  C   UNL     1      36.590 -13.088  -3.766  1.00  0.00    -0.028 A 
HETATM   18  C   UNL     1      36.269 -11.756  -3.472  1.00  0.00     0.010 A 
HETATM   19  C   UNL     1      36.855 -11.112  -2.383  1.00  0.00     0.003 A 
HETATM   20  C   UNL     1      37.762 -11.794  -1.570  1.00  0.00     0.029 A 
BRANCH  17  21
HETATM   21  C   UNL     1      35.970 -13.825  -4.933  1.00  0.00     0.147 C 
HETATM   22  C   UNL     1      35.591 -12.871  -6.061  1.00  0.00     0.044 C 
BRANCH  21  23
HETATM   23  O   UNL     1      36.868 -14.810  -5.442  1.00  0.00    -0.391 OA
HETATM   24  H   UNL     1      37.753 -14.575  -5.119  1.00  0.00     0.210 HD
ENDBRANCH  21  23
ENDBRANCH  17  21
ENDBRANCH  12  15
ENDBRANCH   6  11
BRANCH   8  25
HETATM   25  C   UNL     1      41.374 -16.773   4.375  1.00  0.00     0.409 C 
HETATM   26  F   UNL     1      40.852 -17.743   3.603  1.00  0.00    -0.169 F 
HETATM   27  F   UNL     1      42.250 -17.364   5.228  1.00  0.00    -0.169 F 
HETATM   28  F   UNL     1      40.370 -16.289   5.146  1.00  0.00    -0.169 F 
ENDBRANCH   8  25
BRANCH   1  29
HETATM   29  C   UNL     1      44.021 -18.260   2.506  1.00  0.00    -0.035 A 
HETATM   30  C   UNL     1      44.575 -18.701   3.720  1.00  0.00     0.010 A 
HETATM   31  C   UNL     1      44.671 -20.064   4.018  1.00  0.00     0.007 A 
HETATM   32  C   UNL     1      44.221 -21.022   3.105  1.00  0.00    -0.062 A 
HETATM   33  C   UNL     1      44.292 -22.485   3.425  1.00  0.00     0.048 C 
HETATM   34  C   UNL     1      43.655 -20.593   1.902  1.00  0.00     0.007 A 
HETATM   35  C   UNL     1      43.566 -19.230   1.602  1.00  0.00     0.010 A 
ENDBRANCH   1  29
TORSDOF 6
ENDMDL
MODEL 5
REMARK VINA RESULT:      -8.5      5.426      8.990
REMARK  6 active torsions:
REMARK  status: ('A' for Active; 'I' for Inactive)
REMARK    1  A    between atoms: C_5  and  C_6 
REMARK    2  A    between atoms: C_11  and  C_12 
REMARK       I    between atoms: C_12  and  N_13 
REMARK    3  A    between atoms: N_13  and  C_14 
REMARK    4  A    between atoms: C_16  and  C_17 
REMARK    5  A    between atoms: C_17  and  O_18 
REMARK    6  A    between atoms: C_25  and  C_26 
ROOT
HETATM    1  C   UNL     1      41.203 -16.513   4.551  1.00  0.00     0.118 C 
HETATM    2  N   UNL     1      40.425 -15.613   3.708  1.00  0.00    -0.366 N 
HETATM    3  C   UNL     1      40.576 -15.554   2.369  1.00  0.00     0.123 A 
HETATM    4  N   UNL     1      41.450 -16.365   1.704  1.00  0.00    -0.240 N 
HETATM    5  N   UNL     1      41.427 -16.213   0.365  1.00  0.00    -0.165 NA
HETATM    6  C   UNL     1      40.526 -15.220   0.177  1.00  0.00     0.148 A 
HETATM    7  C   UNL     1      39.977 -14.782   1.412  1.00  0.00     0.089 A 
HETATM    8  C   UNL     1      42.292 -17.354   2.348  1.00  0.00     0.221 C 
HETATM    9  C   UNL     1      41.740 -17.707   3.741  1.00  0.00     0.066 C 
HETATM   10  H   UNL     1      39.859 -14.928   4.206  1.00  0.00     0.161 HD
ENDROOT
BRANCH   6  11
HETATM   11  C   UNL     1      40.188 -14.701  -1.161  1.00  0.00     0.276 C 
HETATM   12  N   UNL     1      38.981 -14.030  -1.169  1.00  0.00    -0.322 N 
HETATM   13  H   UNL     1      38.515 -14.023  -0.264  1.00  0.00     0.169 HD
HETATM   14  O   UNL     1      40.929 -14.889  -2.120  1.00  0.00    -0.266 OA
BRANCH  12  15
HETATM   15  C   UNL     1      38.341 -13.399  -2.249  1.00  0.00     0.035 A 
HETATM   16  C   UNL     1      37.377 -14.019  -3.048  1.00  0.00     0.039 A 
HETATM   17  C   UNL     1      36.769 -13.339  -4.121  1.00  0.00    -0.028 A 
HETATM   18  C   UNL     1      37.140 -12.012  -4.372  1.00  0.00     0.010 A 
HETATM   19  C   UNL     1      38.105 -11.386  -3.584  1.00  0.00     0.003 A 
HETATM   20  C   UNL     1      38.705 -12.078  -2.529  1.00  0.00     0.029 A 
BRANCH  17  21
HETATM   21  C   UNL     1      35.720 -14.050  -4.949  1.00  0.00     0.147 C 
HETATM   22  C   UNL     1      34.500 -13.168  -5.185  1.00  0.00     0.044 C 
BRANCH  21  23
HETATM   23  O   UNL     1      36.256 -14.446  -6.211  1.00  0.00    -0.391 OA
HETATM   24  H   UNL     1      35.829 -13.891  -6.883  1.00  0.00     0.210 HD
ENDBRANCH  21  23
ENDBRANCH  17  21
ENDBRANCH  12  15
ENDBRANCH   6  11
BRANCH   8  25
HETATM   25  C   UNL     1      43.732 -16.895   2.350  1.00  0.00     0.409 C 
HETATM   26  F   UNL     1      43.886 -15.569   2.513  1.00  0.00    -0.169 F 
HETATM   27  F   UNL     1      44.415 -17.506   3.352  1.00  0.00    -0.169 F 
HETATM   28  F   UNL     1      44.367 -17.236   1.203  1.00  0.00    -0.169 F 
ENDBRANCH   8  25
BRANCH   1  29
HETATM   29  C   UNL     1      42.237 -15.785   5.390  1.00  0.00    -0.035 A 
HETATM   30  C   UNL     1      42.348 -14.389   5.274  1.00  0.00     0.010 A 
HETATM   31  C   UNL     1      43.305 -13.676   6.002  1.00  0.00     0.007 A 
HETATM   32  C   UNL     1      44.180 -14.343   6.863  1.00  0.00    -0.062 A 
HETATM   33  C   UNL     1      45.191 -13.587   7.672  1.00  0.00     0.048 C 
HETATM   34  C   UNL     1      44.069 -15.729   6.997  1.00  0.00     0.007 A 
HETATM   35  C   UNL     1      43.116 -16.442   6.262  1.00  0.00     0.010 A 
ENDBRANCH   1  29
TORSDOF 6
ENDMDL
MODEL 6
REMARK VINA RESULT:      -8.4      5.262      6.948
REMARK  6 active torsions:
REMARK  status: ('A' for Active; 'I' for Inactive)
REMARK    1  A    between atoms: C_5  and  C_6 
REMARK    2  A    between atoms: C_11  and  C_12 
REMARK       I    between atoms: C_12  and  N_13 
REMARK    3  A    between atoms: N_13  and  C_14 
REMARK    4  A    between atoms: C_16  and  C_17 
REMARK    5  A    between atoms: C_17  and  O_18 
REMARK    6  A    between atoms: C_25  and  C_26 
ROOT
HETATM    1  C   UNL     1      43.668 -16.357   2.540  1.00  0.00     0.118 C 
HETATM    2  N   UNL     1      42.787 -16.024   1.428  1.00  0.00    -0.366 N 
HETATM    3  C   UNL     1      41.539 -15.546   1.602  1.00  0.00     0.123 A 
HETATM    4  N   UNL     1      41.023 -15.307   2.844  1.00  0.00    -0.240 N 
HETATM    5  N   UNL     1      39.785 -14.775   2.830  1.00  0.00    -0.165 NA
HETATM    6  C   UNL     1      39.483 -14.718   1.512  1.00  0.00     0.148 A 
HETATM    7  C   UNL     1      40.557 -15.197   0.715  1.00  0.00     0.089 A 
HETATM    8  C   UNL     1      41.744 -15.537   4.081  1.00  0.00     0.221 C 
HETATM    9  C   UNL     1      43.260 -15.601   3.818  1.00  0.00     0.066 C 
HETATM   10  H   UNL     1      43.119 -16.307   0.507  1.00  0.00     0.161 HD
ENDROOT
BRANCH   6  11
HETATM   11  C   UNL     1      38.190 -14.208   1.018  1.00  0.00     0.276 C 
HETATM   12  N   UNL     1      38.323 -12.994   0.373  1.00  0.00    -0.322 N 
HETATM   13  H   UNL     1      39.278 -12.641   0.365  1.00  0.00     0.169 HD
HETATM   14  O   UNL     1      37.151 -14.831   1.203  1.00  0.00    -0.266 OA
BRANCH  12  15
HETATM   15  C   UNL     1      37.322 -12.213  -0.229  1.00  0.00     0.035 A 
HETATM   16  C   UNL     1      36.276 -11.613   0.478  1.00  0.00     0.039 A 
HETATM   17  C   UNL     1      35.298 -10.842  -0.179  1.00  0.00    -0.028 A 
HETATM   18  C   UNL     1      35.395 -10.673  -1.566  1.00  0.00     0.010 A 
HETATM   19  C   UNL     1      36.432 -11.271  -2.280  1.00  0.00     0.003 A 
HETATM   20  C   UNL     1      37.389 -12.040  -1.615  1.00  0.00     0.029 A 
BRANCH  17  21
HETATM   21  C   UNL     1      34.192 -10.202   0.634  1.00  0.00     0.147 C 
HETATM   22  C   UNL     1      32.845 -10.309  -0.071  1.00  0.00     0.044 C 
BRANCH  21  23
HETATM   23  O   UNL     1      34.093 -10.813   1.919  1.00  0.00    -0.391 OA
HETATM   24  H   UNL     1      33.146 -10.916   2.108  1.00  0.00     0.210 HD
ENDBRANCH  21  23
ENDBRANCH  17  21
ENDBRANCH  12  15
ENDBRANCH   6  11
BRANCH   8  25
HETATM   25  C   UNL     1      41.189 -16.746   4.796  1.00  0.00     0.409 C 
HETATM   26  F   UNL     1      40.770 -17.725   3.974  1.00  0.00    -0.169 F 
HETATM   27  F   UNL     1      42.133 -17.281   5.612  1.00  0.00    -0.169 F 
HETATM   28  F   UNL     1      40.145 -16.419   5.596  1.00  0.00    -0.169 F 
ENDBRANCH   8  25
BRANCH   1  29
HETATM   29  C   UNL     1      43.860 -17.853   2.710  1.00  0.00    -0.035 A 
HETATM   30  C   UNL     1      43.493 -18.711   1.659  1.00  0.00     0.010 A 
HETATM   31  C   UNL     1      43.622 -20.097   1.778  1.00  0.00     0.007 A 
HETATM   32  C   UNL     1      44.116 -20.664   2.956  1.00  0.00    -0.062 A 
HETATM   33  C   UNL     1      44.287 -22.148   3.086  1.00  0.00     0.048 C 
HETATM   34  C   UNL     1      44.497 -19.819   4.002  1.00  0.00     0.007 A 
HETATM   35  C   UNL     1      44.361 -18.432   3.884  1.00  0.00     0.010 A 
ENDBRANCH   1  29
TORSDOF 6
ENDMDL
MODEL 7
REMARK VINA RESULT:      -8.4      6.659     10.148
REMARK  6 active torsions:
REMARK  status: ('A' for Active; 'I' for Inactive)
REMARK    1  A    between atoms: C_5  and  C_6 
REMARK    2  A    between atoms: C_11  and  C_12 
REMARK       I    between atoms: C_12  and  N_13 
REMARK    3  A    between atoms: N_13  and  C_14 
REMARK    4  A    between atoms: C_16  and  C_17 
REMARK    5  A    between atoms: C_17  and  O_18 
REMARK    6  A    between atoms: C_25  and  C_26 
ROOT
HETATM    1  C   UNL     1      40.805 -12.207  -2.186  1.00  0.00     0.118 C 
HETATM    2  N   UNL     1      40.926 -12.558  -0.777  1.00  0.00    -0.366 N 
HETATM    3  C   UNL     1      41.109 -13.824  -0.352  1.00  0.00     0.123 A 
HETATM    4  N   UNL     1      41.229 -14.869  -1.223  1.00  0.00    -0.240 N 
HETATM    5  N   UNL     1      41.468 -16.054  -0.628  1.00  0.00    -0.165 NA
HETATM    6  C   UNL     1      41.450 -15.752   0.691  1.00  0.00     0.148 A 
HETATM    7  C   UNL     1      41.224 -14.365   0.900  1.00  0.00     0.089 A 
HETATM    8  C   UNL     1      41.174 -14.734  -2.666  1.00  0.00     0.221 C 
HETATM    9  C   UNL     1      41.454 -13.278  -3.083  1.00  0.00     0.066 C 
HETATM   10  H   UNL     1      40.722 -11.806  -0.120  1.00  0.00     0.161 HD
ENDROOT
BRANCH   6  11
HETATM   11  C   UNL     1      41.653 -16.770   1.739  1.00  0.00     0.276 C 
HETATM   12  N   UNL     1      42.952 -17.239   1.764  1.00  0.00    -0.322 N 
HETATM   13  H   UNL     1      43.546 -16.826   1.047  1.00  0.00     0.169 HD
HETATM   14  O   UNL     1      40.730 -17.127   2.463  1.00  0.00    -0.266 OA
BRANCH  12  15
HETATM   15  C   UNL     1      43.516 -18.198   2.621  1.00  0.00     0.035 A 
HETATM   16  C   UNL     1      43.810 -19.508   2.232  1.00  0.00     0.039 A 
HETATM   17  C   UNL     1      44.373 -20.430   3.135  1.00  0.00    -0.028 A 
HETATM   18  C   UNL     1      44.649 -20.008   4.442  1.00  0.00     0.010 A 
HETATM   19  C   UNL     1      44.355 -18.705   4.841  1.00  0.00     0.003 A 
HETATM   20  C   UNL     1      43.788 -17.806   3.935  1.00  0.00     0.029 A 
BRANCH  17  21
HETATM   21  C   UNL     1      44.686 -21.833   2.661  1.00  0.00     0.147 C 
HETATM   22  C   UNL     1      44.621 -22.838   3.805  1.00  0.00     0.044 C 
BRANCH  21  23
HETATM   23  O   UNL     1      43.775 -22.235   1.639  1.00  0.00    -0.391 OA
HETATM   24  H   UNL     1      44.294 -22.340   0.826  1.00  0.00     0.210 HD
ENDBRANCH  21  23
ENDBRANCH  17  21
ENDBRANCH  12  15
ENDBRANCH   6  11
BRANCH   8  25
HETATM   25  C   UNL     1      39.872 -15.290  -3.195  1.00  0.00     0.409 C 
HETATM   26  F   UNL     1      38.820 -15.092  -2.381  1.00  0.00    -0.169 F 
HETATM   27  F   UNL     1      39.571 -14.718  -4.390  1.00  0.00    -0.169 F 
HETATM   28  F   UNL     1      39.956 -16.622  -3.429  1.00  0.00    -0.169 F 
ENDBRANCH   8  25
BRANCH   1  29
HETATM   29  C   UNL     1      39.392 -11.813  -2.574  1.00  0.00    -0.035 A 
HETATM   30  C   UNL     1      38.377 -11.871  -1.603  1.00  0.00     0.010 A 
HETATM   31  C   UNL     1      37.054 -11.546  -1.918  1.00  0.00     0.007 A 
HETATM   32  C   UNL     1      36.711 -11.159  -3.216  1.00  0.00    -0.062 A 
HETATM   33  C   UNL     1      35.301 -10.780  -3.559  1.00  0.00     0.048 C 
HETATM   34  C   UNL     1      37.714 -11.083  -4.185  1.00  0.00     0.007 A 
HETATM   35  C   UNL     1      39.036 -11.416  -3.870  1.00  0.00     0.010 A 
ENDBRANCH   1  29
TORSDOF 6
ENDMDL
MODEL 8
REMARK VINA RESULT:      -8.3      1.872      2.234
REMARK  6 active torsions:
REMARK  status: ('A' for Active; 'I' for Inactive)
REMARK    1  A    between atoms: C_5  and  C_6 
REMARK    2  A    between atoms: C_11  and  C_12 
REMARK       I    between atoms: C_12  and  N_13 
REMARK    3  A    between atoms: N_13  and  C_14 
REMARK    4  A    between atoms: C_16  and  C_17 
REMARK    5  A    between atoms: C_17  and  O_18 
REMARK    6  A    between atoms: C_25  and  C_26 
ROOT
HETATM    1  C   UNL     1      40.119 -16.210   3.318  1.00  0.00     0.118 C 
HETATM    2  N   UNL     1      40.156 -15.611   4.647  1.00  0.00    -0.366 N 
HETATM    3  C   UNL     1      40.509 -14.327   4.861  1.00  0.00     0.123 A 
HETATM    4  N   UNL     1      40.826 -13.485   3.833  1.00  0.00    -0.240 N 
HETATM    5  N   UNL     1      41.096 -12.223   4.224  1.00  0.00    -0.165 NA
HETATM    6  C   UNL     1      40.992 -12.283   5.572  1.00  0.00     0.148 A 
HETATM    7  C   UNL     1      40.630 -13.587   6.005  1.00  0.00     0.089 A 
HETATM    8  C   UNL     1      40.818 -13.869   2.435  1.00  0.00     0.221 C 
HETATM    9  C   UNL     1      39.964 -15.134   2.229  1.00  0.00     0.066 C 
HETATM   10  H   UNL     1      40.035 -16.260   5.423  1.00  0.00     0.161 HD
ENDROOT
BRANCH   6  11
HETATM   11  C   UNL     1      41.228 -11.111   6.436  1.00  0.00     0.276 C 
HETATM   12  N   UNL     1      41.085 -11.416   7.776  1.00  0.00    -0.322 N 
HETATM   13  H   UNL     1      40.821 -12.385   7.945  1.00  0.00     0.169 HD
HETATM   14  O   UNL     1      41.502 -10.016   5.958  1.00  0.00    -0.266 OA
BRANCH  12  15
HETATM   15  C   UNL     1      41.239 -10.567   8.884  1.00  0.00     0.035 A 
HETATM   16  C   UNL     1      42.343 -10.601   9.740  1.00  0.00     0.039 A 
HETATM   17  C   UNL     1      42.444  -9.726  10.839  1.00  0.00    -0.028 A 
HETATM   18  C   UNL     1      41.415  -8.801  11.058  1.00  0.00     0.010 A 
HETATM   19  C   UNL     1      40.307  -8.763  10.212  1.00  0.00     0.003 A 
HETATM   20  C   UNL     1      40.219  -9.644   9.133  1.00  0.00     0.029 A 
BRANCH  17  21
HETATM   21  C   UNL     1      43.667  -9.794  11.729  1.00  0.00     0.147 C 
HETATM   22  C   UNL     1      43.299  -9.634  13.199  1.00  0.00     0.044 C 
BRANCH  21  23
HETATM   23  O   UNL     1      44.349 -11.035  11.554  1.00  0.00    -0.391 OA
HETATM   24  H   UNL     1      45.300 -10.839  11.583  1.00  0.00     0.210 HD
ENDBRANCH  21  23
ENDBRANCH  17  21
ENDBRANCH  12  15
ENDBRANCH   6  11
BRANCH   8  25
HETATM   25  C   UNL     1      42.232 -13.984   1.915  1.00  0.00     0.409 C 
HETATM   26  F   UNL     1      43.102 -14.503   2.799  1.00  0.00    -0.169 F 
HETATM   27  F   UNL     1      42.259 -14.773   0.810  1.00  0.00    -0.169 F 
HETATM   28  F   UNL     1      42.721 -12.781   1.527  1.00  0.00    -0.169 F 
ENDBRANCH   8  25
BRANCH   1  29
HETATM   29  C   UNL     1      41.244 -17.201   3.090  1.00  0.00    -0.035 A 
HETATM   30  C   UNL     1      42.000 -17.641   4.191  1.00  0.00     0.010 A 
HETATM   31  C   UNL     1      43.065 -18.531   4.029  1.00  0.00     0.007 A 
HETATM   32  C   UNL     1      43.408 -19.000   2.758  1.00  0.00    -0.062 A 
HETATM   33  C   UNL     1      44.530 -19.977   2.574  1.00  0.00     0.048 C 
HETATM   34  C   UNL     1      42.655 -18.581   1.658  1.00  0.00     0.007 A 
HETATM   35  C   UNL     1      41.594 -17.685   1.821  1.00  0.00     0.010 A 
ENDBRANCH   1  29
TORSDOF 6
ENDMDL
MODEL 9
REMARK VINA RESULT:      -8.3      5.518      8.327
REMARK  6 active torsions:
REMARK  status: ('A' for Active; 'I' for Inactive)
REMARK    1  A    between atoms: C_5  and  C_6 
REMARK    2  A    between atoms: C_11  and  C_12 
REMARK       I    between atoms: C_12  and  N_13 
REMARK    3  A    between atoms: N_13  and  C_14 
REMARK    4  A    between atoms: C_16  and  C_17 
REMARK    5  A    between atoms: C_17  and  O_18 
REMARK    6  A    between atoms: C_25  and  C_26 
ROOT
HETATM    1  C   UNL     1      43.956 -16.712   2.204  1.00  0.00     0.118 C 
HETATM    2  N   UNL     1      43.203 -16.449   0.984  1.00  0.00    -0.366 N 
HETATM    3  C   UNL     1      41.987 -15.866   0.988  1.00  0.00     0.123 A 
HETATM    4  N   UNL     1      41.389 -15.449   2.142  1.00  0.00    -0.240 N 
HETATM    5  N   UNL     1      40.204 -14.835   1.954  1.00  0.00    -0.165 NA
HETATM    6  C   UNL     1      40.020 -14.910   0.616  1.00  0.00     0.148 A 
HETATM    7  C   UNL     1      41.116 -15.553  -0.020  1.00  0.00     0.089 A 
HETATM    8  C   UNL     1      41.981 -15.584   3.459  1.00  0.00     0.221 C 
HETATM    9  C   UNL     1      43.504 -15.786   3.347  1.00  0.00     0.066 C 
HETATM   10  H   UNL     1      43.588 -16.860   0.135  1.00  0.00     0.161 HD
ENDROOT
BRANCH   6  11
HETATM   11  C   UNL     1      38.820 -14.370  -0.050  1.00  0.00     0.276 C 
HETATM   12  N   UNL     1      38.954 -14.347  -1.425  1.00  0.00    -0.322 N 
HETATM   13  H   UNL     1      39.859 -14.681  -1.750  1.00  0.00     0.169 HD
HETATM   14  O   UNL     1      37.852 -13.990   0.599  1.00  0.00    -0.266 OA
BRANCH  12  15
HETATM   15  C   UNL     1      38.025 -13.911  -2.384  1.00  0.00     0.035 A 
HETATM   16  C   UNL     1      37.568 -12.594  -2.478  1.00  0.00     0.039 A 
HETATM   17  C   UNL     1      36.632 -12.213  -3.459  1.00  0.00    -0.028 A 
HETATM   18  C   UNL     1      36.169 -13.181  -4.358  1.00  0.00     0.010 A 
HETATM   19  C   UNL     1      36.615 -14.500  -4.269  1.00  0.00     0.003 A 
HETATM   20  C   UNL     1      37.536 -14.863  -3.285  1.00  0.00     0.029 A 
BRANCH  17  21
HETATM   21  C   UNL     1      36.179 -10.770  -3.528  1.00  0.00     0.147 C 
HETATM   22  C   UNL     1      34.739 -10.612  -3.054  1.00  0.00     0.044 C 
BRANCH  21  23
HETATM   23  O   UNL     1      37.022  -9.938  -2.732  1.00  0.00    -0.391 OA
HETATM   24  H   UNL     1      37.422 -10.509  -2.056  1.00  0.00     0.210 HD
ENDBRANCH  21  23
ENDBRANCH  17  21
ENDBRANCH  12  15
ENDBRANCH   6  11
BRANCH   8  25
HETATM   25  C   UNL     1      41.270 -16.660   4.246  1.00  0.00     0.409 C 
HETATM   26  F   UNL     1      40.794 -17.668   3.493  1.00  0.00    -0.169 F 
HETATM   27  F   UNL     1      42.114 -17.204   5.161  1.00  0.00    -0.169 F 
HETATM   28  F   UNL     1      40.228 -16.157   4.951  1.00  0.00    -0.169 F 
ENDBRANCH   8  25
BRANCH   1  29
HETATM   29  C   UNL     1      44.010 -18.188   2.553  1.00  0.00    -0.035 A 
HETATM   30  C   UNL     1      44.472 -18.571   3.824  1.00  0.00     0.010 A 
HETATM   31  C   UNL     1      44.569 -19.919   4.183  1.00  0.00     0.007 A 
HETATM   32  C   UNL     1      44.211 -20.920   3.276  1.00  0.00    -0.062 A 
HETATM   33  C   UNL     1      44.282 -22.368   3.659  1.00  0.00     0.048 C 
HETATM   34  C   UNL     1      43.736 -20.550   2.016  1.00  0.00     0.007 A 
HETATM   35  C   UNL     1      43.647 -19.201   1.655  1.00  0.00     0.010 A 
ENDBRANCH   1  29
TORSDOF 6
ENDMDL
MODEL 10
REMARK VINA RESULT:      -8.2      5.240      8.727
REMARK  6 active torsions:
REMARK  status: ('A' for Active; 'I' for Inactive)
REMARK    1  A    between atoms: C_5  and  C_6 
REMARK    2  A    between atoms: C_11  and  C_12 
REMARK       I    between atoms: C_12  and  N_13 
REMARK    3  A    between atoms: N_13  and  C_14 
REMARK    4  A    between atoms: C_16  and  C_17 
REMARK    5  A    between atoms: C_17  and  O_18 
REMARK    6  A    between atoms: C_25  and  C_26 
ROOT
HETATM    1  C   UNL     1      41.124 -16.378   4.420  1.00  0.00     0.118 C 
HETATM    2  N   UNL     1      40.428 -15.453   3.534  1.00  0.00    -0.366 N 
HETATM    3  C   UNL     1      40.633 -15.424   2.202  1.00  0.00     0.123 A 
HETATM    4  N   UNL     1      41.489 -16.290   1.583  1.00  0.00    -0.240 N 
HETATM    5  N   UNL     1      41.526 -16.160   0.242  1.00  0.00    -0.165 NA
HETATM    6  C   UNL     1      40.686 -15.125   0.005  1.00  0.00     0.148 A 
HETATM    7  C   UNL     1      40.113 -14.638   1.210  1.00  0.00     0.089 A 
HETATM    8  C   UNL     1      42.252 -17.311   2.274  1.00  0.00     0.221 C 
HETATM    9  C   UNL     1      41.629 -17.612   3.650  1.00  0.00     0.066 C 
HETATM   10  H   UNL     1      39.880 -14.731   3.999  1.00  0.00     0.161 HD
ENDROOT
BRANCH   6  11
HETATM   11  C   UNL     1      40.428 -14.611  -1.354  1.00  0.00     0.276 C 
HETATM   12  N   UNL     1      40.232 -13.244  -1.363  1.00  0.00    -0.322 N 
HETATM   13  H   UNL     1      40.275 -12.821  -0.438  1.00  0.00     0.169 HD
HETATM   14  O   UNL     1      40.391 -15.365  -2.320  1.00  0.00    -0.266 OA
BRANCH  12  15
HETATM   15  C   UNL     1      39.971 -12.409  -2.463  1.00  0.00     0.035 A 
HETATM   16  C   UNL     1      40.957 -11.680  -3.134  1.00  0.00     0.039 A 
HETATM   17  C   UNL     1      40.637 -10.856  -4.230  1.00  0.00    -0.028 A 
HETATM   18  C   UNL     1      39.304 -10.785  -4.652  1.00  0.00     0.010 A 
HETATM   19  C   UNL     1      38.313 -11.505  -3.986  1.00  0.00     0.003 A 
HETATM   20  C   UNL     1      38.645 -12.311  -2.895  1.00  0.00     0.029 A 
BRANCH  17  21
HETATM   21  C   UNL     1      41.743 -10.096  -4.932  1.00  0.00     0.147 C 
HETATM   22  C   UNL     1      42.433  -9.115  -3.991  1.00  0.00     0.044 C 
BRANCH  21  23
HETATM   23  O   UNL     1      42.718 -10.996  -5.458  1.00  0.00    -0.391 OA
HETATM   24  H   UNL     1      42.661 -10.937  -6.425  1.00  0.00     0.210 HD
ENDBRANCH  21  23
ENDBRANCH  17  21
ENDBRANCH  12  15
ENDBRANCH   6  11
BRANCH   8  25
HETATM   25  C   UNL     1      43.713 -16.928   2.327  1.00  0.00     0.409 C 
HETATM   26  F   UNL     1      43.930 -15.624   2.573  1.00  0.00    -0.169 F 
HETATM   27  F   UNL     1      44.346 -17.633   3.299  1.00  0.00    -0.169 F 
HETATM   28  F   UNL     1      44.351 -17.230   1.170  1.00  0.00    -0.169 F 
ENDBRANCH   8  25
BRANCH   1  29
HETATM   29  C   UNL     1      42.162 -15.691   5.288  1.00  0.00    -0.035 A 
HETATM   30  C   UNL     1      42.233 -14.288   5.283  1.00  0.00     0.010 A 
HETATM   31  C   UNL     1      43.191 -13.609   6.042  1.00  0.00     0.007 A 
HETATM   32  C   UNL     1      44.107 -14.318   6.824  1.00  0.00    -0.062 A 
HETATM   33  C   UNL     1      45.120 -13.601   7.665  1.00  0.00     0.048 C 
HETATM   34  C   UNL     1      44.036 -15.713   6.848  1.00  0.00     0.007 A 
HETATM   35  C   UNL     1      43.082 -16.391   6.081  1.00  0.00     0.010 A 
ENDBRANCH   1  29
TORSDOF 6
ENDMDL
