MODEL 1
REMARK VINA RESULT:      -9.3      0.000      0.000
REMARK  7 active torsions:
REMARK  status: ('A' for Active; 'I' for Inactive)
REMARK    1  A    between atoms: C_9  and  C_10 
REMARK       I    between atoms: C_10  and  N_11 
REMARK    2  A    between atoms: N_11  and  C_12 
REMARK    3  A    between atoms: C_12  and  C_13 
REMARK    4  A    between atoms: C_12  and  C_22 
REMARK       I    between atoms: C_13  and  N_14 
REMARK    5  A    between atoms: N_14  and  C_15 
REMARK    6  A    between atoms: C_15  and  C_16 
REMARK    7  A    between atoms: C_22  and  C_23 
ROOT
HETATM    1  C   UNL     1      39.867 -15.107   2.990  1.00  0.00     0.180 C 
ENDROOT
BRANCH   1   2
HETATM    2  N   UNL     1      41.235 -15.412   2.517  1.00  0.00    -0.346 N 
HETATM    3  C   UNL     1      41.548 -16.542   1.819  1.00  0.00     0.249 C 
HETATM    4  O   UNL     1      40.738 -17.448   1.613  1.00  0.00    -0.271 OA
HETATM    5  H   UNL     1      41.868 -14.616   2.585  1.00  0.00     0.163 HD
BRANCH   3   6
HETATM    6  C   UNL     1      43.020 -16.730   1.389  1.00  0.00     0.281 C 
HETATM    7  N   UNL     1      43.960 -16.290   2.500  1.00  0.00    -0.058 N 
HETATM    8  C   UNL     1      43.951 -17.198   3.684  1.00  0.00     0.272 C 
HETATM    9  H   UNL     1      44.917 -16.196   2.146  1.00  0.00     0.278 HD
HETATM   10  H   UNL     1      43.641 -15.366   2.824  1.00  0.00     0.278 HD
HETATM   11  C   UNL     1      44.047 -18.650   3.318  1.00  0.00    -0.026 A 
HETATM   12  C   UNL     1      43.746 -19.098   2.020  1.00  0.00    -0.048 A 
HETATM   13  C   UNL     1      44.390 -19.586   4.306  1.00  0.00     0.009 A 
HETATM   14  C   UNL     1      43.824 -20.467   1.725  1.00  0.00     0.008 A 
HETATM   15  C   UNL     1      43.418 -18.129   0.912  1.00  0.00     0.082 C 
HETATM   16  C   UNL     1      44.177 -21.384   2.713  1.00  0.00     0.001 A 
HETATM   17  C   UNL     1      44.459 -20.945   4.003  1.00  0.00     0.001 A 
ENDBRANCH   3   6
ENDBRANCH   1   2
BRANCH   1  18
HETATM   18  C   UNL     1      39.269 -14.204   1.888  1.00  0.00     0.241 C 
HETATM   19  N   UNL     1      39.215 -14.728   0.628  1.00  0.00    -0.353 N 
HETATM   20  H   UNL     1      39.324 -15.727   0.480  1.00  0.00     0.162 HD
HETATM   21  O   UNL     1      38.920 -13.049   2.158  1.00  0.00    -0.271 OA
BRANCH  19  22
HETATM   22  C   UNL     1      38.737 -13.978  -0.515  1.00  0.00     0.187 C 
BRANCH  22  23
HETATM   23  C   UNL     1      39.696 -14.112  -1.639  1.00  0.00     0.070 A 
HETATM   24  O   UNL     1      39.616 -13.183  -2.635  1.00  0.00    -0.325 OA
HETATM   25  C   UNL     1      40.558 -13.508  -3.557  1.00  0.00     0.142 A 
HETATM   26  C   UNL     1      41.233 -14.644  -3.177  1.00  0.00     0.027 A 
HETATM   27  C   UNL     1      40.677 -15.037  -1.935  1.00  0.00     0.036 A 
ENDBRANCH  22  23
ENDBRANCH  19  22
ENDBRANCH   1  18
BRANCH   1  28
HETATM   28  C   UNL     1      39.915 -14.430   4.364  1.00  0.00     0.075 C 
BRANCH  28  29
HETATM   29  C   UNL     1      41.279 -14.338   4.980  1.00  0.00    -0.028 A 
HETATM   30  C   UNL     1      41.891 -15.310   5.838  1.00  0.00    -0.002 A 
HETATM   31  C   UNL     1      43.138 -14.812   6.214  1.00  0.00     0.042 A 
HETATM   32  C   UNL     1      41.494 -16.565   6.343  1.00  0.00     0.014 A 
HETATM   33  C   UNL     1      44.007 -15.502   7.069  1.00  0.00     0.030 A 
HETATM   34  N   UNL     1      43.285 -13.586   5.611  1.00  0.00    -0.365 N 
HETATM   35  C   UNL     1      43.585 -16.740   7.559  1.00  0.00     0.002 A 
HETATM   36  C   UNL     1      42.347 -17.267   7.204  1.00  0.00     0.001 A 
HETATM   37  H   UNL     1      44.094 -12.989   5.721  1.00  0.00     0.165 HD
HETATM   38  C   UNL     1      42.168 -13.284   4.876  1.00  0.00     0.096 A 
ENDBRANCH  28  29
ENDBRANCH   1  28
TORSDOF 7
ENDMDL
MODEL 2
REMARK VINA RESULT:      -9.0      3.158      6.834
REMARK  7 active torsions:
REMARK  status: ('A' for Active; 'I' for Inactive)
REMARK    1  A    between atoms: C_9  and  C_10 
REMARK       I    between atoms: C_10  and  N_11 
REMARK    2  A    between atoms: N_11  and  C_12 
REMARK    3  A    between atoms: C_12  and  C_13 
REMARK    4  A    between atoms: C_12  and  C_22 
REMARK       I    between atoms: C_13  and  N_14 
REMARK    5  A    between atoms: N_14  and  C_15 
REMARK    6  A    between atoms: C_15  and  C_16 
REMARK    7  A    between atoms: C_22  and  C_23 
ROOT
HETATM    1  C   UNL     1      41.462 -13.102   5.082  1.00  0.00     0.180 C 
ENDROOT
BRANCH   1   2
HETATM    2  N   UNL     1      41.168 -14.444   5.631  1.00  0.00    -0.346 N 
HETATM    3  C   UNL     1      42.128 -15.266   6.145  1.00  0.00     0.249 C 
HETATM    4  O   UNL     1      43.331 -15.000   6.101  1.00  0.00    -0.271 OA
HETATM    5  H   UNL     1      40.172 -14.608   5.773  1.00  0.00     0.163 HD
BRANCH   3   6
HETATM    6  C   UNL     1      41.676 -16.641   6.684  1.00  0.00     0.281 C 
HETATM    7  N   UNL     1      40.721 -17.310   5.708  1.00  0.00    -0.058 N 
HETATM    8  C   UNL     1      41.377 -17.764   4.447  1.00  0.00     0.272 C 
HETATM    9  H   UNL     1      40.246 -18.101   6.153  1.00  0.00     0.278 HD
HETATM   10  H   UNL     1      40.011 -16.610   5.446  1.00  0.00     0.278 HD
HETATM   11  C   UNL     1      42.658 -18.509   4.682  1.00  0.00    -0.026 A 
HETATM   12  C   UNL     1      43.353 -18.404   5.900  1.00  0.00    -0.048 A 
HETATM   13  C   UNL     1      43.203 -19.282   3.644  1.00  0.00     0.009 A 
HETATM   14  C   UNL     1      44.560 -19.098   6.070  1.00  0.00     0.008 A 
HETATM   15  C   UNL     1      42.787 -17.625   7.061  1.00  0.00     0.082 C 
HETATM   16  C   UNL     1      45.084 -19.870   5.035  1.00  0.00     0.001 A 
HETATM   17  C   UNL     1      44.407 -19.961   3.823  1.00  0.00     0.001 A 
ENDBRANCH   3   6
ENDBRANCH   1   2
BRANCH   1  18
HETATM   18  C   UNL     1      41.075 -12.127   6.215  1.00  0.00     0.241 C 
HETATM   19  N   UNL     1      42.076 -11.740   7.060  1.00  0.00    -0.353 N 
HETATM   20  H   UNL     1      43.048 -11.885   6.807  1.00  0.00     0.162 HD
HETATM   21  O   UNL     1      39.897 -11.778   6.355  1.00  0.00    -0.271 OA
BRANCH  19  22
HETATM   22  C   UNL     1      41.851 -10.879   8.203  1.00  0.00     0.187 C 
BRANCH  22  23
HETATM   23  C   UNL     1      43.037 -10.907   9.092  1.00  0.00     0.070 A 
HETATM   24  O   UNL     1      44.207 -11.358   8.552  1.00  0.00    -0.325 OA
HETATM   25  C   UNL     1      45.140 -11.320   9.537  1.00  0.00     0.142 A 
HETATM   26  C   UNL     1      44.585 -10.867  10.710  1.00  0.00     0.027 A 
HETATM   27  C   UNL     1      43.224 -10.599  10.424  1.00  0.00     0.036 A 
ENDBRANCH  22  23
ENDBRANCH  19  22
ENDBRANCH   1  18
BRANCH   1  28
HETATM   28  C   UNL     1      40.670 -12.870   3.790  1.00  0.00     0.075 C 
BRANCH  28  29
HETATM   29  C   UNL     1      40.471 -14.088   2.938  1.00  0.00    -0.028 A 
HETATM   30  C   UNL     1      41.502 -14.941   2.422  1.00  0.00    -0.002 A 
HETATM   31  C   UNL     1      40.883 -15.926   1.652  1.00  0.00     0.042 A 
HETATM   32  C   UNL     1      42.908 -14.959   2.526  1.00  0.00     0.014 A 
HETATM   33  C   UNL     1      41.598 -16.927   0.981  1.00  0.00     0.030 A 
HETATM   34  N   UNL     1      39.531 -15.687   1.696  1.00  0.00    -0.365 N 
HETATM   35  C   UNL     1      42.990 -16.918   1.097  1.00  0.00     0.002 A 
HETATM   36  C   UNL     1      43.639 -15.949   1.857  1.00  0.00     0.001 A 
HETATM   37  H   UNL     1      38.837 -16.243   1.212  1.00  0.00     0.165 HD
HETATM   38  C   UNL     1      39.272 -14.576   2.456  1.00  0.00     0.096 A 
ENDBRANCH  28  29
ENDBRANCH   1  28
TORSDOF 7
ENDMDL
MODEL 3
REMARK VINA RESULT:      -8.9      2.017      7.243
REMARK  7 active torsions:
REMARK  status: ('A' for Active; 'I' for Inactive)
REMARK    1  A    between atoms: C_9  and  C_10 
REMARK       I    between atoms: C_10  and  N_11 
REMARK    2  A    between atoms: N_11  and  C_12 
REMARK    3  A    between atoms: C_12  and  C_13 
REMARK    4  A    between atoms: C_12  and  C_22 
REMARK       I    between atoms: C_13  and  N_14 
REMARK    5  A    between atoms: N_14  and  C_15 
REMARK    6  A    between atoms: C_15  and  C_16 
REMARK    7  A    between atoms: C_22  and  C_23 
ROOT
HETATM    1  C   UNL     1      42.461 -17.046   1.587  1.00  0.00     0.180 C 
ENDROOT
BRANCH   1   2
HETATM    2  N   UNL     1      42.358 -15.895   0.664  1.00  0.00    -0.346 N 
HETATM    3  C   UNL     1      41.177 -15.276   0.374  1.00  0.00     0.249 C 
HETATM    4  O   UNL     1      40.088 -15.687   0.778  1.00  0.00    -0.271 OA
HETATM    5  H   UNL     1      43.263 -15.489   0.429  1.00  0.00     0.163 HD
BRANCH   3   6
HETATM    6  C   UNL     1      41.220 -14.084  -0.609  1.00  0.00     0.281 C 
HETATM    7  N   UNL     1      42.031 -14.441  -1.845  1.00  0.00    -0.058 N 
HETATM    8  C   UNL     1      41.365 -15.442  -2.728  1.00  0.00     0.272 C 
HETATM    9  H   UNL     1      42.253 -13.599  -2.385  1.00  0.00     0.278 HD
HETATM   10  H   UNL     1      42.914 -14.862  -1.521  1.00  0.00     0.278 HD
HETATM   11  C   UNL     1      39.921 -15.130  -2.994  1.00  0.00    -0.026 A 
HETATM   12  C   UNL     1      39.198 -14.253  -2.165  1.00  0.00    -0.048 A 
HETATM   13  C   UNL     1      39.265 -15.769  -4.057  1.00  0.00     0.009 A 
HETATM   14  C   UNL     1      37.844 -14.007  -2.434  1.00  0.00     0.008 A 
HETATM   15  C   UNL     1      39.869 -13.506  -1.039  1.00  0.00     0.082 C 
HETATM   16  C   UNL     1      37.207 -14.641  -3.499  1.00  0.00     0.001 A 
HETATM   17  C   UNL     1      37.916 -15.521  -4.310  1.00  0.00     0.001 A 
ENDBRANCH   3   6
ENDBRANCH   1   2
BRANCH   1  18
HETATM   18  C   UNL     1      41.801 -16.554   2.894  1.00  0.00     0.241 C 
HETATM   19  N   UNL     1      42.210 -15.340   3.368  1.00  0.00    -0.353 N 
HETATM   20  H   UNL     1      42.722 -14.699   2.770  1.00  0.00     0.162 HD
HETATM   21  O   UNL     1      40.988 -17.274   3.485  1.00  0.00    -0.271 OA
BRANCH  19  22
HETATM   22  C   UNL     1      41.725 -14.778   4.612  1.00  0.00     0.187 C 
BRANCH  22  23
HETATM   23  C   UNL     1      42.574 -15.241   5.736  1.00  0.00     0.070 A 
HETATM   24  O   UNL     1      43.771 -14.609   5.910  1.00  0.00    -0.325 OA
HETATM   25  C   UNL     1      44.384 -15.202   6.966  1.00  0.00     0.142 A 
HETATM   26  C   UNL     1      43.606 -16.219   7.465  1.00  0.00     0.027 A 
HETATM   27  C   UNL     1      42.434 -16.247   6.671  1.00  0.00     0.036 A 
ENDBRANCH  22  23
ENDBRANCH  19  22
ENDBRANCH   1  18
BRANCH   1  28
HETATM   28  C   UNL     1      43.927 -17.456   1.768  1.00  0.00     0.075 C 
BRANCH  28  29
HETATM   29  C   UNL     1      44.189 -18.395   2.907  1.00  0.00    -0.028 A 
HETATM   30  C   UNL     1      44.277 -19.824   2.825  1.00  0.00    -0.002 A 
HETATM   31  C   UNL     1      44.491 -20.305   4.117  1.00  0.00     0.042 A 
HETATM   32  C   UNL     1      44.181 -20.758   1.773  1.00  0.00     0.014 A 
HETATM   33  C   UNL     1      44.612 -21.669   4.410  1.00  0.00     0.030 A 
HETATM   34  N   UNL     1      44.533 -19.217   4.954  1.00  0.00    -0.365 N 
HETATM   35  C   UNL     1      44.507 -22.572   3.349  1.00  0.00     0.002 A 
HETATM   36  C   UNL     1      44.294 -22.126   2.048  1.00  0.00     0.001 A 
HETATM   37  H   UNL     1      44.662 -19.272   5.956  1.00  0.00     0.165 HD
HETATM   38  C   UNL     1      44.339 -18.063   4.240  1.00  0.00     0.096 A 
ENDBRANCH  28  29
ENDBRANCH   1  28
TORSDOF 7
ENDMDL
MODEL 4
REMARK VINA RESULT:      -8.9      2.307      6.784
REMARK  7 active torsions:
REMARK  status: ('A' for Active; 'I' for Inactive)
REMARK    1  A    between atoms: C_9  and  C_10 
REMARK       I    between atoms: C_10  and  N_11 
REMARK    2  A    between atoms: N_11  and  C_12 
REMARK    3  A    between atoms: C_12  and  C_13 
REMARK    4  A    between atoms: C_12  and  C_22 
REMARK       I    between atoms: C_13  and  N_14 
REMARK    5  A    between atoms: N_14  and  C_15 
REMARK    6  A    between atoms: C_15  and  C_16 
REMARK    7  A    between atoms: C_22  and  C_23 
ROOT
HETATM    1  C   UNL     1      41.932 -16.705   3.572  1.00  0.00     0.180 C 
ENDROOT
BRANCH   1   2
HETATM    2  N   UNL     1      41.675 -15.753   2.468  1.00  0.00    -0.346 N 
HETATM    3  C   UNL     1      41.142 -16.128   1.270  1.00  0.00     0.249 C 
HETATM    4  O   UNL     1      40.925 -17.304   0.972  1.00  0.00    -0.271 OA
HETATM    5  H   UNL     1      41.744 -14.779   2.757  1.00  0.00     0.163 HD
BRANCH   3   6
HETATM    6  C   UNL     1      40.929 -15.026   0.208  1.00  0.00     0.281 C 
HETATM    7  N   UNL     1      39.450 -14.869  -0.108  1.00  0.00    -0.058 N 
HETATM    8  C   UNL     1      38.662 -14.267   1.007  1.00  0.00     0.272 C 
HETATM    9  H   UNL     1      39.320 -14.314  -0.960  1.00  0.00     0.278 HD
HETATM   10  H   UNL     1      39.070 -15.813  -0.274  1.00  0.00     0.278 HD
HETATM   11  C   UNL     1      39.309 -13.051   1.601  1.00  0.00    -0.026 A 
HETATM   12  C   UNL     1      40.677 -12.786   1.414  1.00  0.00    -0.048 A 
HETATM   13  C   UNL     1      38.546 -12.191   2.406  1.00  0.00     0.009 A 
HETATM   14  C   UNL     1      41.250 -11.651   2.006  1.00  0.00     0.008 A 
HETATM   15  C   UNL     1      41.529 -13.653   0.520  1.00  0.00     0.082 C 
HETATM   16  C   UNL     1      40.478 -10.800   2.795  1.00  0.00     0.001 A 
HETATM   17  C   UNL     1      39.128 -11.069   2.995  1.00  0.00     0.001 A 
ENDBRANCH   3   6
ENDBRANCH   1   2
BRANCH   1  18
HETATM   18  C   UNL     1      41.052 -16.195   4.734  1.00  0.00     0.241 C 
HETATM   19  N   UNL     1      40.353 -15.042   4.515  1.00  0.00    -0.353 N 
HETATM   20  H   UNL     1      40.225 -14.689   3.572  1.00  0.00     0.162 HD
HETATM   21  O   UNL     1      41.049 -16.794   5.815  1.00  0.00    -0.271 OA
BRANCH  19  22
HETATM   22  C   UNL     1      39.536 -14.413   5.532  1.00  0.00     0.187 C 
BRANCH  22  23
HETATM   23  C   UNL     1      40.128 -13.108   5.913  1.00  0.00     0.070 A 
HETATM   24  O   UNL     1      39.276 -12.160   6.402  1.00  0.00    -0.325 OA
HETATM   25  C   UNL     1      40.018 -11.054   6.661  1.00  0.00     0.142 A 
HETATM   26  C   UNL     1      41.335 -11.269   6.330  1.00  0.00     0.027 A 
HETATM   27  C   UNL     1      41.409 -12.598   5.847  1.00  0.00     0.036 A 
ENDBRANCH  22  23
ENDBRANCH  19  22
ENDBRANCH   1  18
BRANCH   1  28
HETATM   28  C   UNL     1      43.426 -16.735   3.913  1.00  0.00     0.075 C 
BRANCH  28  29
HETATM   29  C   UNL     1      43.953 -18.073   4.339  1.00  0.00    -0.028 A 
HETATM   30  C   UNL     1      43.992 -19.264   3.541  1.00  0.00    -0.002 A 
HETATM   31  C   UNL     1      44.521 -20.282   4.334  1.00  0.00     0.042 A 
HETATM   32  C   UNL     1      43.612 -19.575   2.219  1.00  0.00     0.014 A 
HETATM   33  C   UNL     1      44.688 -21.594   3.874  1.00  0.00     0.030 A 
HETATM   34  N   UNL     1      44.796 -19.738   5.565  1.00  0.00    -0.365 N 
HETATM   35  C   UNL     1      44.298 -21.876   2.563  1.00  0.00     0.002 A 
HETATM   36  C   UNL     1      43.767 -20.883   1.745  1.00  0.00     0.001 A 
HETATM   37  H   UNL     1      45.177 -20.256   6.346  1.00  0.00     0.165 HD
HETATM   38  C   UNL     1      44.446 -18.412   5.585  1.00  0.00     0.096 A 
ENDBRANCH  28  29
ENDBRANCH   1  28
TORSDOF 7
ENDMDL
MODEL 5
REMARK VINA RESULT:      -8.7      2.081      6.690
REMARK  7 active torsions:
REMARK  status: ('A' for Active; 'I' for Inactive)
REMARK    1  A    between atoms: C_9  and  C_10 
REMARK       I    between atoms: C_10  and  N_11 
REMARK    2  A    between atoms: N_11  and  C_12 
REMARK    3  A    between atoms: C_12  and  C_13 
REMARK    4  A    between atoms: C_12  and  C_22 
REMARK       I    between atoms: C_13  and  N_14 
REMARK    5  A    between atoms: N_14  and  C_15 
REMARK    6  A    between atoms: C_15  and  C_16 
REMARK    7  A    between atoms: C_22  and  C_23 
ROOT
HETATM    1  C   UNL     1      42.358 -16.392   2.367  1.00  0.00     0.180 C 
ENDROOT
BRANCH   1   2
HETATM    2  N   UNL     1      42.204 -15.305   1.375  1.00  0.00    -0.346 N 
HETATM    3  C   UNL     1      40.992 -14.890   0.906  1.00  0.00     0.249 C 
HETATM    4  O   UNL     1      39.934 -15.454   1.192  1.00  0.00    -0.271 OA
HETATM    5  H   UNL     1      43.059 -14.769   1.233  1.00  0.00     0.163 HD
BRANCH   3   6
HETATM    6  C   UNL     1      40.982 -13.743  -0.129  1.00  0.00     0.281 C 
HETATM    7  N   UNL     1      41.972 -14.025  -1.248  1.00  0.00    -0.058 N 
HETATM    8  C   UNL     1      41.558 -15.144  -2.144  1.00  0.00     0.272 C 
HETATM    9  H   UNL     1      42.137 -13.181  -1.805  1.00  0.00     0.278 HD
HETATM   10  H   UNL     1      42.862 -14.303  -0.807  1.00  0.00     0.278 HD
HETATM   11  C   UNL     1      40.125 -15.052  -2.582  1.00  0.00    -0.026 A 
HETATM   12  C   UNL     1      39.197 -14.258  -1.885  1.00  0.00    -0.048 A 
HETATM   13  C   UNL     1      39.691 -15.818  -3.675  1.00  0.00     0.009 A 
HETATM   14  C   UNL     1      37.862 -14.219  -2.312  1.00  0.00     0.008 A 
HETATM   15  C   UNL     1      39.623 -13.381  -0.734  1.00  0.00     0.082 C 
HETATM   16  C   UNL     1      37.447 -14.976  -3.406  1.00  0.00     0.001 A 
HETATM   17  C   UNL     1      38.360 -15.776  -4.086  1.00  0.00     0.001 A 
ENDBRANCH   3   6
ENDBRANCH   1   2
BRANCH   1  18
HETATM   18  C   UNL     1      42.074 -15.717   3.727  1.00  0.00     0.241 C 
HETATM   19  N   UNL     1      40.844 -15.939   4.277  1.00  0.00    -0.353 N 
HETATM   20  H   UNL     1      40.256 -16.695   3.938  1.00  0.00     0.162 HD
HETATM   21  O   UNL     1      42.921 -14.975   4.237  1.00  0.00    -0.271 OA
BRANCH  19  22
HETATM   22  C   UNL     1      40.415 -15.325   5.516  1.00  0.00     0.187 C 
BRANCH  22  23
HETATM   23  C   UNL     1      39.900 -13.960   5.248  1.00  0.00     0.070 A 
HETATM   24  O   UNL     1      39.644 -13.639   3.946  1.00  0.00    -0.325 OA
HETATM   25  C   UNL     1      39.210 -12.353   3.932  1.00  0.00     0.142 A 
HETATM   26  C   UNL     1      39.198 -11.835   5.205  1.00  0.00     0.027 A 
HETATM   27  C   UNL     1      39.644 -12.873   6.059  1.00  0.00     0.036 A 
ENDBRANCH  22  23
ENDBRANCH  19  22
ENDBRANCH   1  18
BRANCH   1  28
HETATM   28  C   UNL     1      43.761 -17.002   2.276  1.00  0.00     0.075 C 
BRANCH  28  29
HETATM   29  C   UNL     1      44.027 -18.128   3.230  1.00  0.00    -0.028 A 
HETATM   30  C   UNL     1      44.112 -19.520   2.898  1.00  0.00    -0.002 A 
HETATM   31  C   UNL     1      44.332 -20.221   4.084  1.00  0.00     0.042 A 
HETATM   32  C   UNL     1      44.007 -20.254   1.698  1.00  0.00     0.014 A 
HETATM   33  C   UNL     1      44.453 -21.615   4.131  1.00  0.00     0.030 A 
HETATM   34  N   UNL     1      44.382 -19.297   5.099  1.00  0.00    -0.365 N 
HETATM   35  C   UNL     1      44.339 -22.317   2.929  1.00  0.00     0.002 A 
HETATM   36  C   UNL     1      44.119 -21.649   1.728  1.00  0.00     0.001 A 
HETATM   37  H   UNL     1      44.517 -19.528   6.075  1.00  0.00     0.165 HD
HETATM   38  C   UNL     1      44.186 -18.035   4.600  1.00  0.00     0.096 A 
ENDBRANCH  28  29
ENDBRANCH   1  28
TORSDOF 7
ENDMDL
MODEL 6
REMARK VINA RESULT:      -8.7      3.764      8.396
REMARK  7 active torsions:
REMARK  status: ('A' for Active; 'I' for Inactive)
REMARK    1  A    between atoms: C_9  and  C_10 
REMARK       I    between atoms: C_10  and  N_11 
REMARK    2  A    between atoms: N_11  and  C_12 
REMARK    3  A    between atoms: C_12  and  C_13 
REMARK    4  A    between atoms: C_12  and  C_22 
REMARK       I    between atoms: C_13  and  N_14 
REMARK    5  A    between atoms: N_14  and  C_15 
REMARK    6  A    between atoms: C_15  and  C_16 
REMARK    7  A    between atoms: C_22  and  C_23 
ROOT
HETATM    1  C   UNL     1      41.134 -13.569   5.247  1.00  0.00     0.180 C 
ENDROOT
BRANCH   1   2
HETATM    2  N   UNL     1      41.183 -12.217   5.846  1.00  0.00    -0.346 N 
HETATM    3  C   UNL     1      40.115 -11.638   6.467  1.00  0.00     0.249 C 
HETATM    4  O   UNL     1      38.995 -12.152   6.492  1.00  0.00    -0.271 OA
HETATM    5  H   UNL     1      42.130 -11.850   5.927  1.00  0.00     0.163 HD
BRANCH   3   6
HETATM    6  C   UNL     1      40.310 -10.220   7.047  1.00  0.00     0.281 C 
HETATM    7  N   UNL     1      39.202  -9.890   8.034  1.00  0.00    -0.058 N 
HETATM    8  C   UNL     1      39.282 -10.668   9.304  1.00  0.00     0.272 C 
HETATM    9  H   UNL     1      39.194  -8.887   8.245  1.00  0.00     0.278 HD
HETATM   10  H   UNL     1      38.308 -10.134   7.584  1.00  0.00     0.278 HD
HETATM   11  C   UNL     1      40.661 -10.697   9.895  1.00  0.00    -0.026 A 
HETATM   12  C   UNL     1      41.795 -10.396   9.120  1.00  0.00    -0.048 A 
HETATM   13  C   UNL     1      40.827 -11.086  11.233  1.00  0.00     0.009 A 
HETATM   14  C   UNL     1      43.068 -10.458   9.704  1.00  0.00     0.008 A 
HETATM   15  C   UNL     1      41.667  -9.927   7.692  1.00  0.00     0.082 C 
HETATM   16  C   UNL     1      43.218 -10.836  11.037  1.00  0.00     0.001 A 
HETATM   17  C   UNL     1      42.098 -11.150  11.801  1.00  0.00     0.001 A 
ENDBRANCH   3   6
ENDBRANCH   1   2
BRANCH   1  18
HETATM   18  C   UNL     1      42.370 -14.292   5.824  1.00  0.00     0.241 C 
HETATM   19  N   UNL     1      42.149 -15.494   6.434  1.00  0.00    -0.353 N 
HETATM   20  H   UNL     1      41.274 -15.990   6.293  1.00  0.00     0.162 HD
HETATM   21  O   UNL     1      43.482 -13.755   5.769  1.00  0.00    -0.271 OA
BRANCH  19  22
HETATM   22  C   UNL     1      43.201 -16.257   7.074  1.00  0.00     0.187 C 
BRANCH  22  23
HETATM   23  C   UNL     1      43.555 -17.425   6.232  1.00  0.00     0.070 A 
HETATM   24  O   UNL     1      44.854 -17.844   6.269  1.00  0.00    -0.325 OA
HETATM   25  C   UNL     1      44.956 -18.896   5.418  1.00  0.00     0.142 A 
HETATM   26  C   UNL     1      43.745 -19.151   4.820  1.00  0.00     0.027 A 
HETATM   27  C   UNL     1      42.837 -18.200   5.345  1.00  0.00     0.036 A 
ENDBRANCH  22  23
ENDBRANCH  19  22
ENDBRANCH   1  18
BRANCH   1  28
HETATM   28  C   UNL     1      41.149 -13.476   3.717  1.00  0.00     0.075 C 
BRANCH  28  29
HETATM   29  C   UNL     1      40.841 -14.755   2.999  1.00  0.00    -0.028 A 
HETATM   30  C   UNL     1      41.798 -15.706   2.510  1.00  0.00    -0.002 A 
HETATM   31  C   UNL     1      41.088 -16.725   1.874  1.00  0.00     0.042 A 
HETATM   32  C   UNL     1      43.205 -15.788   2.536  1.00  0.00     0.014 A 
HETATM   33  C   UNL     1      41.713 -17.819   1.264  1.00  0.00     0.030 A 
HETATM   34  N   UNL     1      39.754 -16.412   1.971  1.00  0.00    -0.365 N 
HETATM   35  C   UNL     1      43.108 -17.873   1.299  1.00  0.00     0.002 A 
HETATM   36  C   UNL     1      43.847 -16.873   1.925  1.00  0.00     0.001 A 
HETATM   37  H   UNL     1      39.007 -16.973   1.582  1.00  0.00     0.165 HD
HETATM   38  C   UNL     1      39.593 -15.223   2.633  1.00  0.00     0.096 A 
ENDBRANCH  28  29
ENDBRANCH   1  28
TORSDOF 7
ENDMDL
MODEL 7
REMARK VINA RESULT:      -8.6      2.196      6.084
REMARK  7 active torsions:
REMARK  status: ('A' for Active; 'I' for Inactive)
REMARK    1  A    between atoms: C_9  and  C_10 
REMARK       I    between atoms: C_10  and  N_11 
REMARK    2  A    between atoms: N_11  and  C_12 
REMARK    3  A    between atoms: C_12  and  C_13 
REMARK    4  A    between atoms: C_12  and  C_22 
REMARK       I    between atoms: C_13  and  N_14 
REMARK    5  A    between atoms: N_14  and  C_15 
REMARK    6  A    between atoms: C_15  and  C_16 
REMARK    7  A    between atoms: C_22  and  C_23 
ROOT
HETATM    1  C   UNL     1      42.216 -15.806   2.309  1.00  0.00     0.180 C 
ENDROOT
BRANCH   1   2
HETATM    2  N   UNL     1      41.414 -14.604   2.628  1.00  0.00    -0.346 N 
HETATM    3  C   UNL     1      41.970 -13.395   2.928  1.00  0.00     0.249 C 
HETATM    4  O   UNL     1      43.185 -13.229   3.056  1.00  0.00    -0.271 OA
HETATM    5  H   UNL     1      40.425 -14.714   2.407  1.00  0.00     0.163 HD
BRANCH   3   6
HETATM    6  C   UNL     1      41.010 -12.226   3.242  1.00  0.00     0.281 C 
HETATM    7  N   UNL     1      41.439 -10.969   2.501  1.00  0.00    -0.058 N 
HETATM    8  C   UNL     1      41.232 -11.045   1.026  1.00  0.00     0.272 C 
HETATM    9  H   UNL     1      40.954 -10.148   2.875  1.00  0.00     0.278 HD
HETATM   10  H   UNL     1      42.450 -10.851   2.660  1.00  0.00     0.278 HD
HETATM   11  C   UNL     1      39.878 -11.567   0.644  1.00  0.00    -0.026 A 
HETATM   12  C   UNL     1      39.089 -12.290   1.556  1.00  0.00    -0.048 A 
HETATM   13  C   UNL     1      39.414 -11.378  -0.667  1.00  0.00     0.009 A 
HETATM   14  C   UNL     1      37.839 -12.782   1.151  1.00  0.00     0.008 A 
HETATM   15  C   UNL     1      39.521 -12.480   2.988  1.00  0.00     0.082 C 
HETATM   16  C   UNL     1      37.386 -12.577  -0.151  1.00  0.00     0.001 A 
HETATM   17  C   UNL     1      38.173 -11.877  -1.059  1.00  0.00     0.001 A 
ENDBRANCH   3   6
ENDBRANCH   1   2
BRANCH   1  18
HETATM   18  C   UNL     1      41.991 -16.030   0.797  1.00  0.00     0.241 C 
HETATM   19  N   UNL     1      41.219 -15.109   0.148  1.00  0.00    -0.353 N 
HETATM   20  H   UNL     1      41.021 -14.210   0.576  1.00  0.00     0.162 HD
HETATM   21  O   UNL     1      42.455 -17.035   0.246  1.00  0.00    -0.271 OA
BRANCH  19  22
HETATM   22  C   UNL     1      40.873 -15.221  -1.253  1.00  0.00     0.187 C 
BRANCH  22  23
HETATM   23  C   UNL     1      41.443 -14.077  -2.004  1.00  0.00     0.070 A 
HETATM   24  O   UNL     1      42.358 -13.302  -1.352  1.00  0.00    -0.325 OA
HETATM   25  C   UNL     1      42.724 -12.314  -2.208  1.00  0.00     0.142 A 
HETATM   26  C   UNL     1      42.044 -12.430  -3.397  1.00  0.00     0.027 A 
HETATM   27  C   UNL     1      41.215 -13.571  -3.268  1.00  0.00     0.036 A 
ENDBRANCH  22  23
ENDBRANCH  19  22
ENDBRANCH   1  18
BRANCH   1  28
HETATM   28  C   UNL     1      41.766 -16.992   3.169  1.00  0.00     0.075 C 
BRANCH  28  29
HETATM   29  C   UNL     1      42.877 -17.837   3.717  1.00  0.00    -0.028 A 
HETATM   30  C   UNL     1      43.341 -19.083   3.178  1.00  0.00    -0.002 A 
HETATM   31  C   UNL     1      44.355 -19.549   4.015  1.00  0.00     0.042 A 
HETATM   32  C   UNL     1      42.983 -19.867   2.062  1.00  0.00     0.014 A 
HETATM   33  C   UNL     1      45.029 -20.757   3.793  1.00  0.00     0.030 A 
HETATM   34  N   UNL     1      44.506 -18.627   5.022  1.00  0.00    -0.365 N 
HETATM   35  C   UNL     1      44.650 -21.516   2.683  1.00  0.00     0.002 A 
HETATM   36  C   UNL     1      43.641 -21.080   1.828  1.00  0.00     0.001 A 
HETATM   37  H   UNL     1      45.167 -18.717   5.783  1.00  0.00     0.165 HD
HETATM   38  C   UNL     1      43.613 -17.600   4.862  1.00  0.00     0.096 A 
ENDBRANCH  28  29
ENDBRANCH   1  28
TORSDOF 7
ENDMDL
MODEL 8
REMARK VINA RESULT:      -8.4      4.034      8.761
REMARK  7 active torsions:
REMARK  status: ('A' for Active; 'I' for Inactive)
REMARK    1  A    between atoms: C_9  and  C_10 
REMARK       I    between atoms: C_10  and  N_11 
REMARK    2  A    between atoms: N_11  and  C_12 
REMARK    3  A    between atoms: C_12  and  C_13 
REMARK    4  A    between atoms: C_12  and  C_22 
REMARK       I    between atoms: C_13  and  N_14 
REMARK    5  A    between atoms: N_14  and  C_15 
REMARK    6  A    between atoms: C_15  and  C_16 
REMARK    7  A    between atoms: C_22  and  C_23 
ROOT
HETATM    1  C   UNL     1      40.908 -13.646   5.124  1.00  0.00     0.180 C 
ENDROOT
BRANCH   1   2
HETATM    2  N   UNL     1      41.016 -12.287   5.697  1.00  0.00    -0.346 N 
HETATM    3  C   UNL     1      40.006 -11.690   6.394  1.00  0.00     0.249 C 
HETATM    4  O   UNL     1      38.888 -12.193   6.516  1.00  0.00    -0.271 OA
HETATM    5  H   UNL     1      41.969 -11.927   5.697  1.00  0.00     0.163 HD
BRANCH   3   6
HETATM    6  C   UNL     1      40.258 -10.265   6.935  1.00  0.00     0.281 C 
HETATM    7  N   UNL     1      39.131  -9.839   7.863  1.00  0.00    -0.058 N 
HETATM    8  C   UNL     1      39.114 -10.576   9.159  1.00  0.00     0.272 C 
HETATM    9  H   UNL     1      39.172  -8.831   8.040  1.00  0.00     0.278 HD
HETATM   10  H   UNL     1      38.244 -10.049   7.382  1.00  0.00     0.278 HD
HETATM   11  C   UNL     1      40.463 -10.662   9.810  1.00  0.00    -0.026 A 
HETATM   12  C   UNL     1      41.644 -10.452   9.075  1.00  0.00    -0.048 A 
HETATM   13  C   UNL     1      40.551 -11.013  11.166  1.00  0.00     0.009 A 
HETATM   14  C   UNL     1      42.886 -10.565   9.716  1.00  0.00     0.008 A 
HETATM   15  C   UNL     1      41.602 -10.027   7.629  1.00  0.00     0.082 C 
HETATM   16  C   UNL     1      42.958 -10.904  11.066  1.00  0.00     0.001 A 
HETATM   17  C   UNL     1      41.792 -11.128  11.790  1.00  0.00     0.001 A 
ENDBRANCH   3   6
ENDBRANCH   1   2
BRANCH   1  18
HETATM   18  C   UNL     1      42.021 -14.452   5.830  1.00  0.00     0.241 C 
HETATM   19  N   UNL     1      43.251 -13.863   5.907  1.00  0.00    -0.353 N 
HETATM   20  H   UNL     1      43.357 -12.868   5.738  1.00  0.00     0.162 HD
HETATM   21  O   UNL     1      41.789 -15.594   6.243  1.00  0.00    -0.271 OA
BRANCH  19  22
HETATM   22  C   UNL     1      44.403 -14.523   6.486  1.00  0.00     0.187 C 
BRANCH  22  23
HETATM   23  C   UNL     1      45.192 -13.549   7.278  1.00  0.00     0.070 A 
HETATM   24  O   UNL     1      46.375 -13.129   6.744  1.00  0.00    -0.325 OA
HETATM   25  C   UNL     1      46.932 -12.271   7.637  1.00  0.00     0.142 A 
HETATM   26  C   UNL     1      46.132 -12.145   8.748  1.00  0.00     0.027 A 
HETATM   27  C   UNL     1      45.005 -12.972   8.518  1.00  0.00     0.036 A 
ENDBRANCH  22  23
ENDBRANCH  19  22
ENDBRANCH   1  18
BRANCH   1  28
HETATM   28  C   UNL     1      41.073 -13.598   3.601  1.00  0.00     0.075 C 
BRANCH  28  29
HETATM   29  C   UNL     1      40.833 -14.898   2.894  1.00  0.00    -0.028 A 
HETATM   30  C   UNL     1      41.835 -15.831   2.469  1.00  0.00    -0.002 A 
HETATM   31  C   UNL     1      41.183 -16.880   1.820  1.00  0.00     0.042 A 
HETATM   32  C   UNL     1      43.242 -15.876   2.563  1.00  0.00     0.014 A 
HETATM   33  C   UNL     1      41.865 -17.969   1.261  1.00  0.00     0.030 A 
HETATM   34  N   UNL     1      39.838 -16.601   1.847  1.00  0.00    -0.365 N 
HETATM   35  C   UNL     1      43.257 -17.984   1.364  1.00  0.00     0.002 A 
HETATM   36  C   UNL     1      43.939 -16.954   2.005  1.00  0.00     0.001 A 
HETATM   37  H   UNL     1      39.126 -17.189   1.434  1.00  0.00     0.165 HD
HETATM   38  C   UNL     1      39.616 -15.405   2.479  1.00  0.00     0.096 A 
ENDBRANCH  28  29
ENDBRANCH   1  28
TORSDOF 7
ENDMDL
MODEL 9
REMARK VINA RESULT:      -8.3      2.396      6.975
REMARK  7 active torsions:
REMARK  status: ('A' for Active; 'I' for Inactive)
REMARK    1  A    between atoms: C_9  and  C_10 
REMARK       I    between atoms: C_10  and  N_11 
REMARK    2  A    between atoms: N_11  and  C_12 
REMARK    3  A    between atoms: C_12  and  C_13 
REMARK    4  A    between atoms: C_12  and  C_22 
REMARK       I    between atoms: C_13  and  N_14 
REMARK    5  A    between atoms: N_14  and  C_15 
REMARK    6  A    between atoms: C_15  and  C_16 
REMARK    7  A    between atoms: C_22  and  C_23 
ROOT
HETATM    1  C   UNL     1      42.114 -16.253   2.666  1.00  0.00     0.180 C 
ENDROOT
BRANCH   1   2
HETATM    2  N   UNL     1      41.368 -15.589   1.575  1.00  0.00    -0.346 N 
HETATM    3  C   UNL     1      40.157 -14.987   1.758  1.00  0.00     0.249 C 
HETATM    4  O   UNL     1      39.540 -15.035   2.824  1.00  0.00    -0.271 OA
HETATM    5  H   UNL     1      41.928 -15.449   0.735  1.00  0.00     0.163 HD
BRANCH   3   6
HETATM    6  C   UNL     1      39.492 -14.333   0.527  1.00  0.00     0.281 C 
HETATM    7  N   UNL     1      38.858 -13.004   0.907  1.00  0.00    -0.058 N 
HETATM    8  C   UNL     1      39.851 -11.937   1.224  1.00  0.00     0.272 C 
HETATM    9  H   UNL     1      38.229 -12.680   0.165  1.00  0.00     0.278 HD
HETATM   10  H   UNL     1      38.301 -13.163   1.759  1.00  0.00     0.278 HD
HETATM   11  C   UNL     1      40.957 -11.839   0.215  1.00  0.00    -0.026 A 
HETATM   12  C   UNL     1      41.241 -12.899  -0.664  1.00  0.00    -0.048 A 
HETATM   13  C   UNL     1      41.760 -10.688   0.185  1.00  0.00     0.009 A 
HETATM   14  C   UNL     1      42.299 -12.777  -1.576  1.00  0.00     0.008 A 
HETATM   15  C   UNL     1      40.380 -14.137  -0.704  1.00  0.00     0.082 C 
HETATM   16  C   UNL     1      43.082 -11.624  -1.602  1.00  0.00     0.001 A 
HETATM   17  C   UNL     1      42.813 -10.581  -0.722  1.00  0.00     0.001 A 
ENDBRANCH   3   6
ENDBRANCH   1   2
BRANCH   1  18
HETATM   18  C   UNL     1      42.762 -15.092   3.453  1.00  0.00     0.241 C 
HETATM   19  N   UNL     1      42.189 -14.767   4.650  1.00  0.00    -0.353 N 
HETATM   20  H   UNL     1      41.543 -15.407   5.102  1.00  0.00     0.162 HD
HETATM   21  O   UNL     1      43.716 -14.474   2.968  1.00  0.00    -0.271 OA
BRANCH  19  22
HETATM   22  C   UNL     1      42.649 -13.665   5.468  1.00  0.00     0.187 C 
BRANCH  22  23
HETATM   23  C   UNL     1      41.488 -12.880   5.951  1.00  0.00     0.070 A 
HETATM   24  O   UNL     1      40.262 -13.475   5.874  1.00  0.00    -0.325 OA
HETATM   25  C   UNL     1      39.355 -12.580   6.343  1.00  0.00     0.142 A 
HETATM   26  C   UNL     1      39.977 -11.410   6.705  1.00  0.00     0.027 A 
HETATM   27  C   UNL     1      41.358 -11.601   6.453  1.00  0.00     0.036 A 
ENDBRANCH  22  23
ENDBRANCH  19  22
ENDBRANCH   1  18
BRANCH   1  28
HETATM   28  C   UNL     1      43.138 -17.237   2.090  1.00  0.00     0.075 C 
BRANCH  28  29
HETATM   29  C   UNL     1      43.709 -18.211   3.078  1.00  0.00    -0.028 A 
HETATM   30  C   UNL     1      43.923 -19.612   2.862  1.00  0.00    -0.002 A 
HETATM   31  C   UNL     1      44.430 -20.146   4.046  1.00  0.00     0.042 A 
HETATM   32  C   UNL     1      43.718 -20.482   1.771  1.00  0.00     0.014 A 
HETATM   33  C   UNL     1      44.743 -21.503   4.196  1.00  0.00     0.030 A 
HETATM   34  N   UNL     1      44.524 -19.115   4.949  1.00  0.00    -0.365 N 
HETATM   35  C   UNL     1      44.525 -22.343   3.102  1.00  0.00     0.002 A 
HETATM   36  C   UNL     1      44.019 -21.843   1.905  1.00  0.00     0.001 A 
HETATM   37  H   UNL     1      44.851 -19.218   5.901  1.00  0.00     0.165 HD
HETATM   38  C   UNL     1      44.081 -17.948   4.382  1.00  0.00     0.096 A 
ENDBRANCH  28  29
ENDBRANCH   1  28
TORSDOF 7
ENDMDL
MODEL 10
REMARK VINA RESULT:      -8.3      2.392      7.221
REMARK  7 active torsions:
REMARK  status: ('A' for Active; 'I' for Inactive)
REMARK    1  A    between atoms: C_9  and  C_10 
REMARK       I    between atoms: C_10  and  N_11 
REMARK    2  A    between atoms: N_11  and  C_12 
REMARK    3  A    between atoms: C_12  and  C_13 
REMARK    4  A    between atoms: C_12  and  C_22 
REMARK       I    between atoms: C_13  and  N_14 
REMARK    5  A    between atoms: N_14  and  C_15 
REMARK    6  A    between atoms: C_15  and  C_16 
REMARK    7  A    between atoms: C_22  and  C_23 
ROOT
HETATM    1  C   UNL     1      41.045 -17.084   2.155  1.00  0.00     0.180 C 
ENDROOT
BRANCH   1   2
HETATM    2  N   UNL     1      40.402 -16.180   1.176  1.00  0.00    -0.346 N 
HETATM    3  C   UNL     1      41.107 -15.429   0.281  1.00  0.00     0.249 C 
HETATM    4  O   UNL     1      42.337 -15.366   0.282  1.00  0.00    -0.271 OA
HETATM    5  H   UNL     1      39.396 -16.323   1.101  1.00  0.00     0.163 HD
BRANCH   3   6
HETATM    6  C   UNL     1      40.303 -14.528  -0.682  1.00  0.00     0.281 C 
HETATM    7  N   UNL     1      39.449 -13.541   0.098  1.00  0.00    -0.058 N 
HETATM    8  C   UNL     1      40.241 -12.483   0.790  1.00  0.00     0.272 C 
HETATM    9  H   UNL     1      38.753 -13.104  -0.515  1.00  0.00     0.278 HD
HETATM   10  H   UNL     1      38.952 -14.074   0.826  1.00  0.00     0.278 HD
HETATM   11  C   UNL     1      41.285 -11.855  -0.086  1.00  0.00    -0.026 A 
HETATM   12  C   UNL     1      41.733 -12.489  -1.258  1.00  0.00    -0.048 A 
HETATM   13  C   UNL     1      41.865 -10.638   0.303  1.00  0.00     0.009 A 
HETATM   14  C   UNL     1      42.727 -11.879  -2.037  1.00  0.00     0.008 A 
HETATM   15  C   UNL     1      41.109 -13.773  -1.743  1.00  0.00     0.082 C 
HETATM   16  C   UNL     1      43.288 -10.665  -1.645  1.00  0.00     0.001 A 
HETATM   17  C   UNL     1      42.858 -10.045  -0.477  1.00  0.00     0.001 A 
ENDBRANCH   3   6
ENDBRANCH   1   2
BRANCH   1  18
HETATM   18  C   UNL     1      41.102 -16.262   3.462  1.00  0.00     0.241 C 
HETATM   19  N   UNL     1      40.676 -16.887   4.599  1.00  0.00    -0.353 N 
HETATM   20  H   UNL     1      40.571 -17.896   4.624  1.00  0.00     0.162 HD
HETATM   21  O   UNL     1      41.467 -15.081   3.433  1.00  0.00    -0.271 OA
BRANCH  19  22
HETATM   22  C   UNL     1      40.616 -16.223   5.885  1.00  0.00     0.187 C 
BRANCH  22  23
HETATM   23  C   UNL     1      41.911 -16.377   6.590  1.00  0.00     0.070 A 
HETATM   24  O   UNL     1      42.824 -15.374   6.435  1.00  0.00    -0.325 OA
HETATM   25  C   UNL     1      43.929 -15.730   7.139  1.00  0.00     0.142 A 
HETATM   26  C   UNL     1      43.748 -16.957   7.731  1.00  0.00     0.027 A 
HETATM   27  C   UNL     1      42.443 -17.378   7.378  1.00  0.00     0.036 A 
ENDBRANCH  22  23
ENDBRANCH  19  22
ENDBRANCH   1  18
BRANCH   1  28
HETATM   28  C   UNL     1      42.427 -17.518   1.654  1.00  0.00     0.075 C 
BRANCH  28  29
HETATM   29  C   UNL     1      43.261 -18.262   2.654  1.00  0.00    -0.028 A 
HETATM   30  C   UNL     1      43.612 -19.651   2.600  1.00  0.00    -0.002 A 
HETATM   31  C   UNL     1      44.360 -19.939   3.742  1.00  0.00     0.042 A 
HETATM   32  C   UNL     1      43.351 -20.698   1.692  1.00  0.00     0.014 A 
HETATM   33  C   UNL     1      44.859 -21.217   4.022  1.00  0.00     0.030 A 
HETATM   34  N   UNL     1      44.463 -18.774   4.464  1.00  0.00    -0.365 N 
HETATM   35  C   UNL     1      44.581 -22.236   3.108  1.00  0.00     0.002 A 
HETATM   36  C   UNL     1      43.837 -21.984   1.959  1.00  0.00     0.001 A 
HETATM   37  H   UNL     1      44.943 -18.693   5.351  1.00  0.00     0.165 HD
HETATM   38  C   UNL     1      43.795 -17.762   3.826  1.00  0.00     0.096 A 
ENDBRANCH  28  29
ENDBRANCH   1  28
TORSDOF 7
ENDMDL
