MODEL 1
REMARK VINA RESULT:      -8.7      0.000      0.000
REMARK  6 active torsions:
REMARK  status: ('A' for Active; 'I' for Inactive)
REMARK    1  A    between atoms: O_2  and  C_3 
REMARK    2  A    between atoms: C_8  and  C_9 
REMARK    3  A    between atoms: C_9  and  N_10 
REMARK    4  A    between atoms: N_13  and  C_26 
REMARK    5  A    between atoms: N_18  and  C_22 
REMARK    6  A    between atoms: C_29  and  C_32 
ROOT
HETATM    1  N   UNL     1      40.780 -14.459   1.406  1.00  0.00    -0.318 N 
HETATM    2  C   UNL     1      41.202 -15.800   1.363  1.00  0.00     0.326 C 
HETATM    3  O   UNL     1      40.873 -16.584   0.490  1.00  0.00    -0.247 OA
HETATM    4  N   UNL     1      42.036 -16.009   2.484  1.00  0.00    -0.297 N 
HETATM    5  C   UNL     1      42.286 -14.751   3.149  1.00  0.00     0.165 C 
HETATM    6  C   UNL     1      41.119 -13.838   2.686  1.00  0.00     0.057 C 
HETATM    7  C   UNL     1      41.554 -12.372   2.550  1.00  0.00     0.060 C 
HETATM    8  C   UNL     1      41.782 -11.695   3.894  1.00  0.00     0.238 C 
HETATM    9  N   UNL     1      40.588 -11.835   4.795  1.00  0.00    -0.063 N 
HETATM   10  H   UNL     1      40.843 -11.452   5.725  1.00  0.00     0.280 HD
HETATM   11  C   UNL     1      40.148 -13.256   4.990  1.00  0.00     0.238 C 
HETATM   12  C   UNL     1      39.923 -13.963   3.660  1.00  0.00     0.060 C 
ENDROOT
BRANCH   4  13
HETATM   13  C   UNL     1      42.656 -17.234   2.850  1.00  0.00     0.039 A 
HETATM   14  C   UNL     1      43.364 -18.003   1.920  1.00  0.00     0.030 A 
HETATM   15  C   UNL     1      43.941 -19.232   2.273  1.00  0.00     0.014 A 
HETATM   16  C   UNL     1      43.826 -19.734   3.571  1.00  0.00    -0.023 A 
HETATM   17  C   UNL     1      43.135 -18.964   4.512  1.00  0.00     0.014 A 
HETATM   18  C   UNL     1      42.558 -17.733   4.156  1.00  0.00     0.030 A 
BRANCH  16  19
HETATM   19  C   UNL     1      44.406 -21.013   3.944  1.00  0.00     0.010 A 
HETATM   20  C   UNL     1      45.002 -21.446   5.152  1.00  0.00     0.152 A 
HETATM   21  N   UNL     1      45.400 -22.720   5.108  1.00  0.00    -0.187 NA
HETATM   22  N   UNL     1      45.074 -23.110   3.867  1.00  0.00    -0.289 N 
HETATM   23  H   UNL     1      45.288 -24.062   3.589  1.00  0.00     0.188 HD
HETATM   24  C   UNL     1      44.469 -22.130   3.134  1.00  0.00     0.123 A 
ENDBRANCH  16  19
ENDBRANCH   4  13
BRANCH   1  25
HETATM   25  C   UNL     1      39.848 -13.931   0.415  1.00  0.00     0.167 C 
BRANCH  25  26
HETATM   26  C   UNL     1      40.472 -13.708  -0.940  1.00  0.00    -0.035 A 
HETATM   27  C   UNL     1      41.525 -12.805  -1.129  1.00  0.00     0.051 A 
HETATM   28  C   UNL     1      42.118 -12.677  -2.382  1.00  0.00     0.119 A 
HETATM   29  C   UNL     1      41.707 -13.452  -3.462  1.00  0.00     0.079 A 
HETATM   30  F   UNL     1      43.106 -11.789  -2.551  1.00  0.00    -0.206 F 
HETATM   31  C   UNL     1      40.686 -14.380  -3.283  1.00  0.00     0.071 A 
HETATM   32  C   UNL     1      40.066 -14.494  -2.031  1.00  0.00     0.045 A 
BRANCH  31  33
HETATM   33  O   UNL     1      40.194 -15.216  -4.246  1.00  0.00    -0.356 OA
HETATM   34  C   UNL     1      39.027 -15.955  -3.891  1.00  0.00     0.210 C 
ENDBRANCH  31  33
ENDBRANCH  25  26
ENDBRANCH   1  25
BRANCH   9  35
HETATM   35  C   UNL     1      39.427 -10.976   4.296  1.00  0.00     0.235 C 
HETATM   36  C   UNL     1      38.869  -9.988   5.361  1.00  0.00     0.203 C 
HETATM   37  O   UNL     1      39.813  -8.979   4.908  1.00  0.00    -0.387 OA
HETATM   38  C   UNL     1      39.873  -9.649   3.618  1.00  0.00     0.203 C 
ENDBRANCH   9  35
TORSDOF 6
ENDMDL
MODEL 2
REMARK VINA RESULT:      -8.7      2.366      5.605
REMARK  6 active torsions:
REMARK  status: ('A' for Active; 'I' for Inactive)
REMARK    1  A    between atoms: O_2  and  C_3 
REMARK    2  A    between atoms: C_8  and  C_9 
REMARK    3  A    between atoms: C_9  and  N_10 
REMARK    4  A    between atoms: N_13  and  C_26 
REMARK    5  A    between atoms: N_18  and  C_22 
REMARK    6  A    between atoms: C_29  and  C_32 
ROOT
HETATM    1  N   UNL     1      41.217 -13.143   1.549  1.00  0.00    -0.318 N 
HETATM    2  C   UNL     1      42.124 -14.089   2.061  1.00  0.00     0.326 C 
HETATM    3  O   UNL     1      43.132 -13.792   2.677  1.00  0.00    -0.247 OA
HETATM    4  N   UNL     1      41.627 -15.367   1.723  1.00  0.00    -0.297 N 
HETATM    5  C   UNL     1      40.310 -15.242   1.142  1.00  0.00     0.165 C 
HETATM    6  C   UNL     1      40.250 -13.771   0.648  1.00  0.00     0.057 C 
HETATM    7  C   UNL     1      38.839 -13.180   0.770  1.00  0.00     0.060 C 
HETATM    8  C   UNL     1      37.869 -13.748  -0.256  1.00  0.00     0.238 C 
HETATM    9  N   UNL     1      38.403 -13.618  -1.655  1.00  0.00    -0.063 N 
HETATM   10  H   UNL     1      37.752 -14.116  -2.292  1.00  0.00     0.280 HD
HETATM   11  C   UNL     1      39.767 -14.217  -1.833  1.00  0.00     0.238 C 
HETATM   12  C   UNL     1      40.757 -13.676  -0.811  1.00  0.00     0.060 C 
ENDROOT
BRANCH   4  13
HETATM   13  C   UNL     1      42.248 -16.612   2.015  1.00  0.00     0.039 A 
HETATM   14  C   UNL     1      43.074 -17.254   1.086  1.00  0.00     0.030 A 
HETATM   15  C   UNL     1      43.652 -18.502   1.361  1.00  0.00     0.014 A 
HETATM   16  C   UNL     1      43.421 -19.151   2.574  1.00  0.00    -0.023 A 
HETATM   17  C   UNL     1      42.609 -18.509   3.515  1.00  0.00     0.014 A 
HETATM   18  C   UNL     1      42.030 -17.259   3.239  1.00  0.00     0.030 A 
BRANCH  16  19
HETATM   19  C   UNL     1      44.002 -20.451   2.863  1.00  0.00     0.010 A 
HETATM   20  C   UNL     1      44.062 -21.635   2.089  1.00  0.00     0.152 A 
HETATM   21  N   UNL     1      44.711 -22.627   2.704  1.00  0.00    -0.187 NA
HETATM   22  N   UNL     1      45.061 -22.090   3.882  1.00  0.00    -0.289 N 
HETATM   23  H   UNL     1      45.573 -22.668   4.542  1.00  0.00     0.188 HD
HETATM   24  C   UNL     1      44.669 -20.790   4.023  1.00  0.00     0.123 A 
ENDBRANCH  16  19
ENDBRANCH   4  13
BRANCH   1  25
HETATM   25  C   UNL     1      41.471 -11.713   1.674  1.00  0.00     0.167 C 
BRANCH  25  26
HETATM   26  C   UNL     1      40.664 -11.050   2.764  1.00  0.00    -0.035 A 
HETATM   27  C   UNL     1      40.418  -9.672   2.767  1.00  0.00     0.051 A 
HETATM   28  C   UNL     1      39.613  -9.110   3.754  1.00  0.00     0.119 A 
HETATM   29  C   UNL     1      39.014  -9.892   4.735  1.00  0.00     0.079 A 
HETATM   30  F   UNL     1      39.411  -7.786   3.756  1.00  0.00    -0.206 F 
HETATM   31  C   UNL     1      39.219 -11.268   4.726  1.00  0.00     0.071 A 
HETATM   32  C   UNL     1      40.051 -11.837   3.752  1.00  0.00     0.045 A 
BRANCH  31  33
HETATM   33  O   UNL     1      38.682 -12.158   5.615  1.00  0.00    -0.356 OA
HETATM   34  C   UNL     1      39.436 -12.378   6.806  1.00  0.00     0.210 C 
ENDBRANCH  31  33
ENDBRANCH  25  26
ENDBRANCH   1  25
BRANCH   9  35
HETATM   35  C   UNL     1      38.393 -12.159  -2.107  1.00  0.00     0.235 C 
HETATM   36  C   UNL     1      38.864 -11.950  -3.576  1.00  0.00     0.203 C 
HETATM   37  O   UNL     1      37.491 -12.103  -4.030  1.00  0.00    -0.387 OA
HETATM   38  C   UNL     1      37.035 -11.696  -2.709  1.00  0.00     0.203 C 
ENDBRANCH   9  35
TORSDOF 6
ENDMDL
MODEL 3
REMARK VINA RESULT:      -8.7      3.737      8.223
REMARK  6 active torsions:
REMARK  status: ('A' for Active; 'I' for Inactive)
REMARK    1  A    between atoms: O_2  and  C_3 
REMARK    2  A    between atoms: C_8  and  C_9 
REMARK    3  A    between atoms: C_9  and  N_10 
REMARK    4  A    between atoms: N_13  and  C_26 
REMARK    5  A    between atoms: N_18  and  C_22 
REMARK    6  A    between atoms: C_29  and  C_32 
ROOT
HETATM    1  N   UNL     1      40.840 -16.286   3.918  1.00  0.00    -0.318 N 
HETATM    2  C   UNL     1      40.166 -16.312   2.684  1.00  0.00     0.326 C 
HETATM    3  O   UNL     1      39.717 -17.327   2.181  1.00  0.00    -0.247 OA
HETATM    4  N   UNL     1      40.130 -14.985   2.201  1.00  0.00    -0.297 N 
HETATM    5  C   UNL     1      40.631 -14.083   3.213  1.00  0.00     0.165 C 
HETATM    6  C   UNL     1      41.480 -14.991   4.144  1.00  0.00     0.057 C 
HETATM    7  C   UNL     1      41.417 -14.532   5.608  1.00  0.00     0.060 C 
HETATM    8  C   UNL     1      42.195 -13.248   5.860  1.00  0.00     0.238 C 
HETATM    9  N   UNL     1      43.613 -13.354   5.375  1.00  0.00    -0.063 N 
HETATM   10  H   UNL     1      44.054 -12.420   5.475  1.00  0.00     0.280 HD
HETATM   11  C   UNL     1      43.725 -13.762   3.935  1.00  0.00     0.238 C 
HETATM   12  C   UNL     1      42.947 -15.040   3.650  1.00  0.00     0.060 C 
ENDROOT
BRANCH   4  13
HETATM   13  C   UNL     1      39.571 -14.557   0.967  1.00  0.00     0.039 A 
HETATM   14  C   UNL     1      40.335 -14.506  -0.204  1.00  0.00     0.030 A 
HETATM   15  C   UNL     1      39.793 -14.043  -1.413  1.00  0.00     0.014 A 
HETATM   16  C   UNL     1      38.467 -13.614  -1.489  1.00  0.00    -0.023 A 
HETATM   17  C   UNL     1      37.691 -13.677  -0.327  1.00  0.00     0.014 A 
HETATM   18  C   UNL     1      38.235 -14.140   0.883  1.00  0.00     0.030 A 
BRANCH  16  19
HETATM   19  C   UNL     1      37.901 -13.118  -2.732  1.00  0.00     0.010 A 
HETATM   20  C   UNL     1      37.750 -11.800  -3.224  1.00  0.00     0.152 A 
HETATM   21  N   UNL     1      37.193 -11.758  -4.437  1.00  0.00    -0.187 NA
HETATM   22  N   UNL     1      36.972 -13.049  -4.727  1.00  0.00    -0.289 N 
HETATM   23  H   UNL     1      36.540 -13.276  -5.617  1.00  0.00     0.188 HD
HETATM   24  C   UNL     1      37.385 -13.902  -3.744  1.00  0.00     0.123 A 
ENDBRANCH  16  19
ENDBRANCH   4  13
BRANCH   1  25
HETATM   25  C   UNL     1      41.104 -17.515   4.657  1.00  0.00     0.167 C 
BRANCH  25  26
HETATM   26  C   UNL     1      42.447 -18.127   4.348  1.00  0.00    -0.035 A 
HETATM   27  C   UNL     1      43.510 -18.077   5.258  1.00  0.00     0.051 A 
HETATM   28  C   UNL     1      44.713 -18.712   4.961  1.00  0.00     0.119 A 
HETATM   29  C   UNL     1      44.883 -19.431   3.783  1.00  0.00     0.079 A 
HETATM   30  F   UNL     1      45.727 -18.630   5.832  1.00  0.00    -0.206 F 
HETATM   31  C   UNL     1      43.825 -19.521   2.884  1.00  0.00     0.071 A 
HETATM   32  C   UNL     1      42.621 -18.861   3.162  1.00  0.00     0.045 A 
BRANCH  31  33
HETATM   33  O   UNL     1      43.845 -20.204   1.699  1.00  0.00    -0.356 OA
HETATM   34  C   UNL     1      43.889 -21.626   1.802  1.00  0.00     0.210 C 
ENDBRANCH  31  33
ENDBRANCH  25  26
ENDBRANCH   1  25
BRANCH   9  35
HETATM   35  C   UNL     1      44.423 -14.295   6.265  1.00  0.00     0.235 C 
HETATM   36  C   UNL     1      45.847 -13.769   6.608  1.00  0.00     0.203 C 
HETATM   37  O   UNL     1      45.310 -13.110   7.788  1.00  0.00    -0.387 OA
HETATM   38  C   UNL     1      44.208 -14.060   7.788  1.00  0.00     0.203 C 
ENDBRANCH   9  35
TORSDOF 6
ENDMDL
MODEL 4
REMARK VINA RESULT:      -8.7      2.709      5.944
REMARK  6 active torsions:
REMARK  status: ('A' for Active; 'I' for Inactive)
REMARK    1  A    between atoms: O_2  and  C_3 
REMARK    2  A    between atoms: C_8  and  C_9 
REMARK    3  A    between atoms: C_9  and  N_10 
REMARK    4  A    between atoms: N_13  and  C_26 
REMARK    5  A    between atoms: N_18  and  C_22 
REMARK    6  A    between atoms: C_29  and  C_32 
ROOT
HETATM    1  N   UNL     1      41.184 -13.486   2.690  1.00  0.00    -0.318 N 
HETATM    2  C   UNL     1      42.114 -14.460   3.096  1.00  0.00     0.326 C 
HETATM    3  O   UNL     1      43.121 -14.208   3.733  1.00  0.00    -0.247 OA
HETATM    4  N   UNL     1      41.639 -15.707   2.631  1.00  0.00    -0.297 N 
HETATM    5  C   UNL     1      40.315 -15.549   2.074  1.00  0.00     0.165 C 
HETATM    6  C   UNL     1      40.223 -14.037   1.735  1.00  0.00     0.057 C 
HETATM    7  C   UNL     1      38.801 -13.491   1.926  1.00  0.00     0.060 C 
HETATM    8  C   UNL     1      37.833 -13.969   0.853  1.00  0.00     0.238 C 
HETATM    9  N   UNL     1      38.353 -13.686  -0.529  1.00  0.00    -0.063 N 
HETATM   10  H   UNL     1      37.707 -14.129  -1.209  1.00  0.00     0.280 HD
HETATM   11  C   UNL     1      39.727 -14.236  -0.776  1.00  0.00     0.238 C 
HETATM   12  C   UNL     1      40.715 -13.782   0.290  1.00  0.00     0.060 C 
ENDROOT
BRANCH   4  13
HETATM   13  C   UNL     1      42.286 -16.962   2.790  1.00  0.00     0.039 A 
HETATM   14  C   UNL     1      42.815 -17.657   1.696  1.00  0.00     0.030 A 
HETATM   15  C   UNL     1      43.416 -18.915   1.849  1.00  0.00     0.014 A 
HETATM   16  C   UNL     1      43.507 -19.521   3.103  1.00  0.00    -0.023 A 
HETATM   17  C   UNL     1      42.996 -18.827   4.204  1.00  0.00     0.014 A 
HETATM   18  C   UNL     1      42.394 -17.567   4.049  1.00  0.00     0.030 A 
BRANCH  16  19
HETATM   19  C   UNL     1      44.114 -20.831   3.270  1.00  0.00     0.010 A 
HETATM   20  C   UNL     1      44.222 -21.926   2.380  1.00  0.00     0.152 A 
HETATM   21  N   UNL     1      44.881 -22.961   2.906  1.00  0.00    -0.187 NA
HETATM   22  N   UNL     1      45.190 -22.543   4.143  1.00  0.00    -0.289 N 
HETATM   23  H   UNL     1      45.699 -23.174   4.752  1.00  0.00     0.188 HD
HETATM   24  C   UNL     1      44.761 -21.273   4.407  1.00  0.00     0.123 A 
ENDBRANCH  16  19
ENDBRANCH   4  13
BRANCH   1  25
HETATM   25  C   UNL     1      41.411 -12.071   2.959  1.00  0.00     0.167 C 
BRANCH  25  26
HETATM   26  C   UNL     1      40.992 -11.647   4.345  1.00  0.00    -0.035 A 
HETATM   27  C   UNL     1      40.152 -12.438   5.138  1.00  0.00     0.051 A 
HETATM   28  C   UNL     1      39.844 -12.043   6.437  1.00  0.00     0.119 A 
HETATM   29  C   UNL     1      40.375 -10.882   6.988  1.00  0.00     0.079 A 
HETATM   30  F   UNL     1      39.018 -12.799   7.171  1.00  0.00    -0.206 F 
HETATM   31  C   UNL     1      41.239 -10.102   6.226  1.00  0.00     0.071 A 
HETATM   32  C   UNL     1      41.532 -10.479   4.909  1.00  0.00     0.045 A 
BRANCH  31  33
HETATM   33  O   UNL     1      41.846  -8.949   6.642  1.00  0.00    -0.356 OA
HETATM   34  C   UNL     1      41.798  -7.856   5.727  1.00  0.00     0.210 C 
ENDBRANCH  31  33
ENDBRANCH  25  26
ENDBRANCH   1  25
BRANCH   9  35
HETATM   35  C   UNL     1      38.311 -12.189  -0.829  1.00  0.00     0.235 C 
HETATM   36  C   UNL     1      38.136 -11.852  -2.338  1.00  0.00     0.203 C 
HETATM   37  O   UNL     1      36.692 -11.860  -2.163  1.00  0.00    -0.387 OA
HETATM   38  C   UNL     1      36.885 -11.572  -0.750  1.00  0.00     0.203 C 
ENDBRANCH   9  35
TORSDOF 6
ENDMDL
MODEL 5
REMARK VINA RESULT:      -8.6      3.175      4.607
REMARK  6 active torsions:
REMARK  status: ('A' for Active; 'I' for Inactive)
REMARK    1  A    between atoms: O_2  and  C_3 
REMARK    2  A    between atoms: C_8  and  C_9 
REMARK    3  A    between atoms: C_9  and  N_10 
REMARK    4  A    between atoms: N_13  and  C_26 
REMARK    5  A    between atoms: N_18  and  C_22 
REMARK    6  A    between atoms: C_29  and  C_32 
ROOT
HETATM    1  N   UNL     1      39.762 -13.234  -0.563  1.00  0.00    -0.318 N 
HETATM    2  C   UNL     1      39.929 -14.296   0.345  1.00  0.00     0.326 C 
HETATM    3  O   UNL     1      39.032 -14.735   1.043  1.00  0.00    -0.247 OA
HETATM    4  N   UNL     1      41.277 -14.707   0.261  1.00  0.00    -0.297 N 
HETATM    5  C   UNL     1      41.932 -14.019  -0.828  1.00  0.00     0.165 C 
HETATM    6  C   UNL     1      41.052 -12.762  -1.067  1.00  0.00     0.057 C 
HETATM    7  C   UNL     1      41.011 -12.361  -2.548  1.00  0.00     0.060 C 
HETATM    8  C   UNL     1      42.319 -11.752  -3.033  1.00  0.00     0.238 C 
HETATM    9  N   UNL     1      42.754 -10.607  -2.162  1.00  0.00    -0.063 N 
HETATM   10  H   UNL     1      43.696 -10.308  -2.476  1.00  0.00     0.280 HD
HETATM   11  C   UNL     1      42.846 -10.962  -0.708  1.00  0.00     0.238 C 
HETATM   12  C   UNL     1      41.554 -11.585  -0.196  1.00  0.00     0.060 C 
ENDROOT
BRANCH   4  13
HETATM   13  C   UNL     1      41.891 -15.733   1.030  1.00  0.00     0.039 A 
HETATM   14  C   UNL     1      42.852 -15.442   2.004  1.00  0.00     0.030 A 
HETATM   15  C   UNL     1      43.486 -16.459   2.734  1.00  0.00     0.014 A 
HETATM   16  C   UNL     1      43.181 -17.802   2.510  1.00  0.00    -0.023 A 
HETATM   17  C   UNL     1      42.209 -18.102   1.550  1.00  0.00     0.014 A 
HETATM   18  C   UNL     1      41.574 -17.082   0.820  1.00  0.00     0.030 A 
BRANCH  16  19
HETATM   19  C   UNL     1      43.843 -18.864   3.249  1.00  0.00     0.010 A 
HETATM   20  C   UNL     1      44.097 -19.015   4.633  1.00  0.00     0.152 A 
HETATM   21  N   UNL     1      44.721 -20.159   4.926  1.00  0.00    -0.187 NA
HETATM   22  N   UNL     1      44.882 -20.745   3.730  1.00  0.00    -0.289 N 
HETATM   23  H   UNL     1      45.348 -21.646   3.694  1.00  0.00     0.188 HD
HETATM   24  C   UNL     1      44.367 -20.016   2.697  1.00  0.00     0.123 A 
ENDBRANCH  16  19
ENDBRANCH   4  13
BRANCH   1  25
HETATM   25  C   UNL     1      38.488 -12.535  -0.677  1.00  0.00     0.167 C 
BRANCH  25  26
HETATM   26  C   UNL     1      37.735 -12.858  -1.944  1.00  0.00    -0.035 A 
HETATM   27  C   UNL     1      36.920 -11.914  -2.581  1.00  0.00     0.051 A 
HETATM   28  C   UNL     1      36.296 -12.231  -3.784  1.00  0.00     0.119 A 
HETATM   29  C   UNL     1      36.483 -13.465  -4.396  1.00  0.00     0.079 A 
HETATM   30  F   UNL     1      35.499 -11.324  -4.365  1.00  0.00    -0.206 F 
HETATM   31  C   UNL     1      37.317 -14.402  -3.795  1.00  0.00     0.071 A 
HETATM   32  C   UNL     1      37.927 -14.101  -2.570  1.00  0.00     0.045 A 
BRANCH  31  33
HETATM   33  O   UNL     1      37.605 -15.645  -4.290  1.00  0.00    -0.356 OA
HETATM   34  C   UNL     1      38.968 -16.051  -4.196  1.00  0.00     0.210 C 
ENDBRANCH  31  33
ENDBRANCH  25  26
ENDBRANCH   1  25
BRANCH   9  35
HETATM   35  C   UNL     1      41.845  -9.396  -2.364  1.00  0.00     0.235 C 
HETATM   36  C   UNL     1      42.261  -8.148  -1.532  1.00  0.00     0.203 C 
HETATM   37  O   UNL     1      43.101  -7.705  -2.633  1.00  0.00    -0.387 OA
HETATM   38  C   UNL     1      42.272  -8.478  -3.545  1.00  0.00     0.203 C 
ENDBRANCH   9  35
TORSDOF 6
ENDMDL
MODEL 6
REMARK VINA RESULT:      -8.4      3.485      8.573
REMARK  6 active torsions:
REMARK  status: ('A' for Active; 'I' for Inactive)
REMARK    1  A    between atoms: O_2  and  C_3 
REMARK    2  A    between atoms: C_8  and  C_9 
REMARK    3  A    between atoms: C_9  and  N_10 
REMARK    4  A    between atoms: N_13  and  C_26 
REMARK    5  A    between atoms: N_18  and  C_22 
REMARK    6  A    between atoms: C_29  and  C_32 
ROOT
HETATM    1  N   UNL     1      40.917 -15.277   3.809  1.00  0.00    -0.318 N 
HETATM    2  C   UNL     1      40.720 -14.792   5.115  1.00  0.00     0.326 C 
HETATM    3  O   UNL     1      40.459 -15.505   6.068  1.00  0.00    -0.247 OA
HETATM    4  N   UNL     1      40.886 -13.390   5.067  1.00  0.00    -0.297 N 
HETATM    5  C   UNL     1      41.360 -12.998   3.759  1.00  0.00     0.165 C 
HETATM    6  C   UNL     1      40.960 -14.183   2.839  1.00  0.00     0.057 C 
HETATM    7  C   UNL     1      41.983 -14.411   1.717  1.00  0.00     0.060 C 
HETATM    8  C   UNL     1      41.934 -13.333   0.644  1.00  0.00     0.238 C 
HETATM    9  N   UNL     1      40.546 -13.157   0.097  1.00  0.00    -0.063 N 
HETATM   10  H   UNL     1      40.557 -12.342  -0.545  1.00  0.00     0.280 HD
HETATM   11  C   UNL     1      39.515 -12.892   1.155  1.00  0.00     0.238 C 
HETATM   12  C   UNL     1      39.548 -13.950   2.250  1.00  0.00     0.060 C 
ENDROOT
BRANCH   4  13
HETATM   13  C   UNL     1      40.743 -12.491   6.158  1.00  0.00     0.039 A 
HETATM   14  C   UNL     1      41.818 -11.721   6.617  1.00  0.00     0.030 A 
HETATM   15  C   UNL     1      41.686 -10.864   7.720  1.00  0.00     0.014 A 
HETATM   16  C   UNL     1      40.474 -10.752   8.403  1.00  0.00    -0.023 A 
HETATM   17  C   UNL     1      39.390 -11.505   7.940  1.00  0.00     0.014 A 
HETATM   18  C   UNL     1      39.524 -12.363   6.835  1.00  0.00     0.030 A 
BRANCH  16  19
HETATM   19  C   UNL     1      40.330  -9.879   9.556  1.00  0.00     0.010 A 
HETATM   20  C   UNL     1      39.249  -9.691  10.450  1.00  0.00     0.152 A 
HETATM   21  N   UNL     1      39.517  -8.802  11.410  1.00  0.00    -0.187 NA
HETATM   22  N   UNL     1      40.769  -8.406  11.133  1.00  0.00    -0.289 N 
HETATM   23  H   UNL     1      41.199  -7.712  11.735  1.00  0.00     0.188 HD
HETATM   24  C   UNL     1      41.302  -9.026  10.040  1.00  0.00     0.123 A 
ENDBRANCH  16  19
ENDBRANCH   4  13
BRANCH   1  25
HETATM   25  C   UNL     1      40.754 -16.693   3.500  1.00  0.00     0.167 C 
BRANCH  25  26
HETATM   26  C   UNL     1      42.042 -17.476   3.562  1.00  0.00    -0.035 A 
HETATM   27  C   UNL     1      42.934 -17.347   4.632  1.00  0.00     0.051 A 
HETATM   28  C   UNL     1      44.079 -18.137   4.684  1.00  0.00     0.119 A 
HETATM   29  C   UNL     1      44.352 -19.085   3.704  1.00  0.00     0.079 A 
HETATM   30  F   UNL     1      44.935 -17.981   5.702  1.00  0.00    -0.206 F 
HETATM   31  C   UNL     1      43.458 -19.251   2.652  1.00  0.00     0.071 A 
HETATM   32  C   UNL     1      42.318 -18.440   2.578  1.00  0.00     0.045 A 
BRANCH  31  33
HETATM   33  O   UNL     1      43.589 -20.152   1.631  1.00  0.00    -0.356 OA
HETATM   34  C   UNL     1      43.983 -21.469   2.011  1.00  0.00     0.210 C 
ENDBRANCH  31  33
ENDBRANCH  25  26
ENDBRANCH   1  25
BRANCH   9  35
HETATM   35  C   UNL     1      40.142 -14.356  -0.759  1.00  0.00     0.235 C 
HETATM   36  C   UNL     1      39.123 -14.014  -1.884  1.00  0.00     0.203 C 
HETATM   37  O   UNL     1      40.227 -13.737  -2.788  1.00  0.00    -0.387 OA
HETATM   38  C   UNL     1      41.075 -14.600  -1.980  1.00  0.00     0.203 C 
ENDBRANCH   9  35
TORSDOF 6
ENDMDL
MODEL 7
REMARK VINA RESULT:      -8.3      3.881      8.913
REMARK  6 active torsions:
REMARK  status: ('A' for Active; 'I' for Inactive)
REMARK    1  A    between atoms: O_2  and  C_3 
REMARK    2  A    between atoms: C_8  and  C_9 
REMARK    3  A    between atoms: C_9  and  N_10 
REMARK    4  A    between atoms: N_13  and  C_26 
REMARK    5  A    between atoms: N_18  and  C_22 
REMARK    6  A    between atoms: C_29  and  C_32 
ROOT
HETATM    1  N   UNL     1      42.448 -16.711   2.047  1.00  0.00    -0.318 N 
HETATM    2  C   UNL     1      41.827 -15.964   1.029  1.00  0.00     0.326 C 
HETATM    3  O   UNL     1      42.298 -15.817  -0.085  1.00  0.00    -0.247 OA
HETATM    4  N   UNL     1      40.616 -15.466   1.559  1.00  0.00    -0.297 N 
HETATM    5  C   UNL     1      40.382 -16.038   2.866  1.00  0.00     0.165 C 
HETATM    6  C   UNL     1      41.787 -16.503   3.334  1.00  0.00     0.057 C 
HETATM    7  C   UNL     1      41.717 -17.775   4.190  1.00  0.00     0.060 C 
HETATM    8  C   UNL     1      41.144 -17.525   5.578  1.00  0.00     0.238 C 
HETATM    9  N   UNL     1      41.875 -16.421   6.289  1.00  0.00    -0.063 N 
HETATM   10  H   UNL     1      41.374 -16.227   7.176  1.00  0.00     0.280 HD
HETATM   11  C   UNL     1      41.936 -15.142   5.507  1.00  0.00     0.238 C 
HETATM   12  C   UNL     1      42.496 -15.364   4.108  1.00  0.00     0.060 C 
ENDROOT
BRANCH   4  13
HETATM   13  C   UNL     1      39.685 -14.631   0.884  1.00  0.00     0.039 A 
HETATM   14  C   UNL     1      39.889 -14.230  -0.441  1.00  0.00     0.030 A 
HETATM   15  C   UNL     1      38.990 -13.373  -1.093  1.00  0.00     0.014 A 
HETATM   16  C   UNL     1      37.858 -12.886  -0.439  1.00  0.00    -0.023 A 
HETATM   17  C   UNL     1      37.637 -13.294   0.880  1.00  0.00     0.014 A 
HETATM   18  C   UNL     1      38.539 -14.153   1.532  1.00  0.00     0.030 A 
BRANCH  16  19
HETATM   19  C   UNL     1      36.929 -11.984  -1.100  1.00  0.00     0.010 A 
HETATM   20  C   UNL     1      36.745 -11.680  -2.469  1.00  0.00     0.152 A 
HETATM   21  N   UNL     1      35.758 -10.804  -2.680  1.00  0.00    -0.187 NA
HETATM   22  N   UNL     1      35.310 -10.532  -1.445  1.00  0.00    -0.289 N 
HETATM   23  H   UNL     1      34.546  -9.872  -1.344  1.00  0.00     0.188 HD
HETATM   24  C   UNL     1      35.970 -11.218  -0.467  1.00  0.00     0.123 A 
ENDBRANCH  16  19
ENDBRANCH   4  13
BRANCH   1  25
HETATM   25  C   UNL     1      43.760 -17.315   1.842  1.00  0.00     0.167 C 
BRANCH  25  26
HETATM   26  C   UNL     1      43.850 -18.740   2.330  1.00  0.00    -0.035 A 
HETATM   27  C   UNL     1      43.582 -19.827   1.489  1.00  0.00     0.051 A 
HETATM   28  C   UNL     1      43.742 -21.127   1.959  1.00  0.00     0.119 A 
HETATM   29  C   UNL     1      44.193 -21.382   3.249  1.00  0.00     0.079 A 
HETATM   30  F   UNL     1      43.455 -22.155   1.149  1.00  0.00    -0.206 F 
HETATM   31  C   UNL     1      44.498 -20.314   4.086  1.00  0.00     0.071 A 
HETATM   32  C   UNL     1      44.313 -19.002   3.629  1.00  0.00     0.045 A 
BRANCH  31  33
HETATM   33  O   UNL     1      44.965 -20.415   5.368  1.00  0.00    -0.356 OA
HETATM   34  C   UNL     1      43.979 -20.641   6.373  1.00  0.00     0.210 C 
ENDBRANCH  31  33
ENDBRANCH  25  26
ENDBRANCH   1  25
BRANCH   9  35
HETATM   35  C   UNL     1      43.278 -16.871   6.694  1.00  0.00     0.235 C 
HETATM   36  C   UNL     1      44.173 -15.726   7.249  1.00  0.00     0.203 C 
HETATM   37  O   UNL     1      43.691 -16.011   8.591  1.00  0.00    -0.387 OA
HETATM   38  C   UNL     1      43.379 -17.367   8.165  1.00  0.00     0.203 C 
ENDBRANCH   9  35
TORSDOF 6
ENDMDL
MODEL 8
REMARK VINA RESULT:      -8.3      3.725      8.069
REMARK  6 active torsions:
REMARK  status: ('A' for Active; 'I' for Inactive)
REMARK    1  A    between atoms: O_2  and  C_3 
REMARK    2  A    between atoms: C_8  and  C_9 
REMARK    3  A    between atoms: C_9  and  N_10 
REMARK    4  A    between atoms: N_13  and  C_26 
REMARK    5  A    between atoms: N_18  and  C_22 
REMARK    6  A    between atoms: C_29  and  C_32 
ROOT
HETATM    1  N   UNL     1      41.926 -13.873   4.024  1.00  0.00    -0.318 N 
HETATM    2  C   UNL     1      41.688 -14.141   2.664  1.00  0.00     0.326 C 
HETATM    3  O   UNL     1      42.505 -14.660   1.925  1.00  0.00    -0.247 OA
HETATM    4  N   UNL     1      40.376 -13.702   2.377  1.00  0.00    -0.297 N 
HETATM    5  C   UNL     1      39.714 -13.310   3.601  1.00  0.00     0.165 C 
HETATM    6  C   UNL     1      40.877 -13.025   4.588  1.00  0.00     0.057 C 
HETATM    7  C   UNL     1      40.510 -13.397   6.032  1.00  0.00     0.060 C 
HETATM    8  C   UNL     1      39.511 -12.433   6.656  1.00  0.00     0.238 C 
HETATM    9  N   UNL     1      39.976 -11.008   6.555  1.00  0.00    -0.063 N 
HETATM   10  H   UNL     1      39.211 -10.398   6.896  1.00  0.00     0.280 HD
HETATM   11  C   UNL     1      40.310 -10.586   5.155  1.00  0.00     0.238 C 
HETATM   12  C   UNL     1      41.301 -11.539   4.499  1.00  0.00     0.060 C 
ENDROOT
BRANCH   4  13
HETATM   13  C   UNL     1      39.734 -13.750   1.111  1.00  0.00     0.039 A 
HETATM   14  C   UNL     1      38.345 -13.878   0.999  1.00  0.00     0.030 A 
HETATM   15  C   UNL     1      37.716 -13.967  -0.252  1.00  0.00     0.014 A 
HETATM   16  C   UNL     1      38.458 -13.932  -1.434  1.00  0.00    -0.023 A 
HETATM   17  C   UNL     1      39.845 -13.787  -1.332  1.00  0.00     0.014 A 
HETATM   18  C   UNL     1      40.474 -13.699  -0.078  1.00  0.00     0.030 A 
BRANCH  16  19
HETATM   19  C   UNL     1      37.818 -14.039  -2.735  1.00  0.00     0.010 A 
HETATM   20  C   UNL     1      37.406 -15.171  -3.477  1.00  0.00     0.152 A 
HETATM   21  N   UNL     1      36.828 -14.850  -4.637  1.00  0.00    -0.187 NA
HETATM   22  N   UNL     1      36.876 -13.509  -4.653  1.00  0.00    -0.289 N 
HETATM   23  H   UNL     1      36.493 -13.022  -5.457  1.00  0.00     0.188 HD
HETATM   24  C   UNL     1      37.451 -12.976  -3.535  1.00  0.00     0.123 A 
ENDBRANCH  16  19
ENDBRANCH   4  13
BRANCH   1  25
HETATM   25  C   UNL     1      43.223 -14.152   4.630  1.00  0.00     0.167 C 
BRANCH  25  26
HETATM   26  C   UNL     1      43.297 -15.499   5.304  1.00  0.00    -0.035 A 
HETATM   27  C   UNL     1      43.225 -15.634   6.696  1.00  0.00     0.051 A 
HETATM   28  C   UNL     1      43.229 -16.900   7.275  1.00  0.00     0.119 A 
HETATM   29  C   UNL     1      43.275 -18.053   6.499  1.00  0.00     0.079 A 
HETATM   30  F   UNL     1      43.187 -17.009   8.609  1.00  0.00    -0.206 F 
HETATM   31  C   UNL     1      43.310 -17.938   5.113  1.00  0.00     0.071 A 
HETATM   32  C   UNL     1      43.334 -16.667   4.524  1.00  0.00     0.045 A 
BRANCH  31  33
HETATM   33  O   UNL     1      43.340 -18.981   4.229  1.00  0.00    -0.356 OA
HETATM   34  C   UNL     1      44.432 -19.887   4.372  1.00  0.00     0.210 C 
ENDBRANCH  31  33
ENDBRANCH  25  26
ENDBRANCH   1  25
BRANCH   9  35
HETATM   35  C   UNL     1      41.158 -10.755   7.489  1.00  0.00     0.235 C 
HETATM   36  C   UNL     1      41.515  -9.251   7.663  1.00  0.00     0.203 C 
HETATM   37  O   UNL     1      40.602  -9.174   8.792  1.00  0.00    -0.387 OA
HETATM   38  C   UNL     1      40.757 -10.607   8.985  1.00  0.00     0.203 C 
ENDBRANCH   9  35
TORSDOF 6
ENDMDL
MODEL 9
REMARK VINA RESULT:      -8.3      1.646      2.123
REMARK  6 active torsions:
REMARK  status: ('A' for Active; 'I' for Inactive)
REMARK    1  A    between atoms: O_2  and  C_3 
REMARK    2  A    between atoms: C_8  and  C_9 
REMARK    3  A    between atoms: C_9  and  N_10 
REMARK    4  A    between atoms: N_13  and  C_26 
REMARK    5  A    between atoms: N_18  and  C_22 
REMARK    6  A    between atoms: C_29  and  C_32 
ROOT
HETATM    1  N   UNL     1      40.096 -14.507   2.430  1.00  0.00    -0.318 N 
HETATM    2  C   UNL     1      40.481 -15.857   2.332  1.00  0.00     0.326 C 
HETATM    3  O   UNL     1      39.900 -16.677   1.644  1.00  0.00    -0.247 OA
HETATM    4  N   UNL     1      41.618 -16.025   3.153  1.00  0.00    -0.297 N 
HETATM    5  C   UNL     1      42.062 -14.739   3.643  1.00  0.00     0.165 C 
HETATM    6  C   UNL     1      40.811 -13.829   3.510  1.00  0.00     0.057 C 
HETATM    7  C   UNL     1      41.187 -12.380   3.170  1.00  0.00     0.060 C 
HETATM    8  C   UNL     1      41.816 -11.641   4.342  1.00  0.00     0.238 C 
HETATM    9  N   UNL     1      40.955 -11.714   5.571  1.00  0.00    -0.063 N 
HETATM   10  H   UNL     1      41.484 -11.290   6.356  1.00  0.00     0.280 HD
HETATM   11  C   UNL     1      40.593 -13.115   5.967  1.00  0.00     0.238 C 
HETATM   12  C   UNL     1      39.970 -13.884   4.809  1.00  0.00     0.060 C 
ENDROOT
BRANCH   4  13
HETATM   13  C   UNL     1      42.318 -17.241   3.378  1.00  0.00     0.039 A 
HETATM   14  C   UNL     1      42.804 -18.012   2.316  1.00  0.00     0.030 A 
HETATM   15  C   UNL     1      43.459 -19.233   2.537  1.00  0.00     0.014 A 
HETATM   16  C   UNL     1      43.647 -19.724   3.830  1.00  0.00    -0.023 A 
HETATM   17  C   UNL     1      43.180 -18.951   4.898  1.00  0.00     0.014 A 
HETATM   18  C   UNL     1      42.524 -17.729   4.675  1.00  0.00     0.030 A 
BRANCH  16  19
HETATM   19  C   UNL     1      44.311 -20.994   4.070  1.00  0.00     0.010 A 
HETATM   20  C   UNL     1      44.955 -21.503   5.223  1.00  0.00     0.152 A 
HETATM   21  N   UNL     1      45.428 -22.740   5.051  1.00  0.00    -0.187 NA
HETATM   22  N   UNL     1      45.101 -23.029   3.783  1.00  0.00    -0.289 N 
HETATM   23  H   UNL     1      45.366 -23.936   3.411  1.00  0.00     0.188 HD
HETATM   24  C   UNL     1      44.424 -22.023   3.156  1.00  0.00     0.123 A 
ENDBRANCH  16  19
ENDBRANCH   4  13
BRANCH   1  25
HETATM   25  C   UNL     1      38.907 -14.013   1.744  1.00  0.00     0.167 C 
BRANCH  25  26
HETATM   26  C   UNL     1      39.121 -13.759   0.273  1.00  0.00    -0.035 A 
HETATM   27  C   UNL     1      38.079 -13.869  -0.656  1.00  0.00     0.051 A 
HETATM   28  C   UNL     1      38.303 -13.560  -1.994  1.00  0.00     0.119 A 
HETATM   29  C   UNL     1      39.542 -13.112  -2.439  1.00  0.00     0.079 A 
HETATM   30  F   UNL     1      37.301 -13.697  -2.873  1.00  0.00    -0.206 F 
HETATM   31  C   UNL     1      40.579 -12.963  -1.523  1.00  0.00     0.071 A 
HETATM   32  C   UNL     1      40.369 -13.298  -0.179  1.00  0.00     0.045 A 
BRANCH  31  33
HETATM   33  O   UNL     1      41.839 -12.518  -1.814  1.00  0.00    -0.356 OA
HETATM   34  C   UNL     1      42.483 -11.760  -0.792  1.00  0.00     0.210 C 
ENDBRANCH  31  33
ENDBRANCH  25  26
ENDBRANCH   1  25
BRANCH   9  35
HETATM   35  C   UNL     1      39.699 -10.861   5.406  1.00  0.00     0.235 C 
HETATM   36  C   UNL     1      39.328 -10.031   6.669  1.00  0.00     0.203 C 
HETATM   37  O   UNL     1      40.143  -8.932   6.177  1.00  0.00    -0.387 OA
HETATM   38  C   UNL     1      39.974  -9.443   4.825  1.00  0.00     0.203 C 
ENDBRANCH   9  35
TORSDOF 6
ENDMDL
MODEL 10
REMARK VINA RESULT:      -7.9      2.589      4.361
REMARK  6 active torsions:
REMARK  status: ('A' for Active; 'I' for Inactive)
REMARK    1  A    between atoms: O_2  and  C_3 
REMARK    2  A    between atoms: C_8  and  C_9 
REMARK    3  A    between atoms: C_9  and  N_10 
REMARK    4  A    between atoms: N_13  and  C_26 
REMARK    5  A    between atoms: N_18  and  C_22 
REMARK    6  A    between atoms: C_29  and  C_32 
ROOT
HETATM    1  N   UNL     1      41.003 -13.187   2.113  1.00  0.00    -0.318 N 
HETATM    2  C   UNL     1      41.963 -14.148   2.478  1.00  0.00     0.326 C 
HETATM    3  O   UNL     1      43.020 -13.875   3.017  1.00  0.00    -0.247 OA
HETATM    4  N   UNL     1      41.450 -15.410   2.106  1.00  0.00    -0.297 N 
HETATM    5  C   UNL     1      40.083 -15.269   1.656  1.00  0.00     0.165 C 
HETATM    6  C   UNL     1      39.964 -13.772   1.266  1.00  0.00     0.057 C 
HETATM    7  C   UNL     1      38.564 -13.212   1.553  1.00  0.00     0.060 C 
HETATM    8  C   UNL     1      37.509 -13.729   0.585  1.00  0.00     0.238 C 
HETATM    9  N   UNL     1      37.911 -13.504  -0.845  1.00  0.00    -0.063 N 
HETATM   10  H   UNL     1      37.210 -13.971  -1.451  1.00  0.00     0.280 HD
HETATM   11  C   UNL     1      39.258 -14.069  -1.185  1.00  0.00     0.238 C 
HETATM   12  C   UNL     1      40.334 -13.577  -0.225  1.00  0.00     0.060 C 
ENDROOT
BRANCH   4  13
HETATM   13  C   UNL     1      42.106 -16.661   2.260  1.00  0.00     0.039 A 
HETATM   14  C   UNL     1      42.702 -17.314   1.176  1.00  0.00     0.030 A 
HETATM   15  C   UNL     1      43.314 -18.568   1.322  1.00  0.00     0.014 A 
HETATM   16  C   UNL     1      43.347 -19.212   2.559  1.00  0.00    -0.023 A 
HETATM   17  C   UNL     1      42.768 -18.559   3.653  1.00  0.00     0.014 A 
HETATM   18  C   UNL     1      42.156 -17.303   3.505  1.00  0.00     0.030 A 
BRANCH  16  19
HETATM   19  C   UNL     1      43.964 -20.518   2.719  1.00  0.00     0.010 A 
HETATM   20  C   UNL     1      44.062 -21.614   1.829  1.00  0.00     0.152 A 
HETATM   21  N   UNL     1      44.736 -22.645   2.346  1.00  0.00    -0.187 NA
HETATM   22  N   UNL     1      45.066 -22.221   3.575  1.00  0.00    -0.289 N 
HETATM   23  H   UNL     1      45.591 -22.848   4.177  1.00  0.00     0.188 HD
HETATM   24  C   UNL     1      44.636 -20.954   3.844  1.00  0.00     0.123 A 
ENDBRANCH  16  19
ENDBRANCH   4  13
BRANCH   1  25
HETATM   25  C   UNL     1      41.253 -11.763   2.305  1.00  0.00     0.167 C 
BRANCH  25  26
HETATM   26  C   UNL     1      41.397 -10.997   1.013  1.00  0.00    -0.035 A 
HETATM   27  C   UNL     1      42.472 -11.212   0.142  1.00  0.00     0.051 A 
HETATM   28  C   UNL     1      42.533 -10.532  -1.071  1.00  0.00     0.119 A 
HETATM   29  C   UNL     1      41.529  -9.654  -1.462  1.00  0.00     0.079 A 
HETATM   30  F   UNL     1      43.582 -10.730  -1.879  1.00  0.00    -0.206 F 
HETATM   31  C   UNL     1      40.436  -9.455  -0.625  1.00  0.00     0.071 A 
HETATM   32  C   UNL     1      40.381 -10.114   0.611  1.00  0.00     0.045 A 
BRANCH  31  33
HETATM   33  O   UNL     1      39.371  -8.637  -0.887  1.00  0.00    -0.356 OA
HETATM   34  C   UNL     1      39.519  -7.276  -0.486  1.00  0.00     0.210 C 
ENDBRANCH  31  33
ENDBRANCH  25  26
ENDBRANCH   1  25
BRANCH   9  35
HETATM   35  C   UNL     1      37.845 -12.020  -1.201  1.00  0.00     0.235 C 
HETATM   36  C   UNL     1      37.826 -11.737  -2.731  1.00  0.00     0.203 C 
HETATM   37  O   UNL     1      36.373 -11.801  -2.716  1.00  0.00    -0.387 OA
HETATM   38  C   UNL     1      36.397 -11.460  -1.302  1.00  0.00     0.203 C 
ENDBRANCH   9  35
TORSDOF 6
ENDMDL
