MODEL 1
REMARK VINA RESULT:      -7.3      0.000      0.000
REMARK  5 active torsions:
REMARK  status: ('A' for Active; 'I' for Inactive)
REMARK    1  A    between atoms: C_2  and  C_3 
REMARK    2  A    between atoms: C_3  and  N_4 
REMARK    3  A    between atoms: C_10  and  C_11 
REMARK       I    between atoms: C_11  and  N_12 
REMARK    4  A    between atoms: N_12  and  C_13 
REMARK    5  A    between atoms: C_14  and  O_15 
ROOT
HETATM    1  C   UNL     1      42.917 -17.348   2.187  1.00  0.00     0.256 C 
HETATM    2  N   UNL     1      41.679 -17.329   1.585  1.00  0.00    -0.320 N 
HETATM    3  O   UNL     1      43.594 -16.351   2.425  1.00  0.00    -0.267 OA
HETATM    4  H   UNL     1      41.158 -18.192   1.571  1.00  0.00     0.169 HD
ENDROOT
BRANCH   1   5
HETATM    5  C   UNL     1      43.483 -18.682   2.586  1.00  0.00     0.032 A 
HETATM    6  C   UNL     1      44.116 -18.939   3.808  1.00  0.00     0.017 A 
HETATM    7  C   UNL     1      44.565 -20.232   4.120  1.00  0.00     0.010 A 
HETATM    8  C   UNL     1      44.374 -21.297   3.228  1.00  0.00    -0.033 A 
HETATM    9  C   UNL     1      43.746 -21.040   2.003  1.00  0.00     0.010 A 
HETATM   10  C   UNL     1      43.311 -19.749   1.688  1.00  0.00     0.017 A 
BRANCH   8  11
HETATM   11  C   UNL     1      44.831 -22.685   3.571  1.00  0.00     0.268 C 
BRANCH  11  12
HETATM   12  N   UNL     1      45.155 -22.812   5.008  1.00  0.00    -0.075 N 
HETATM   13  H   UNL     1      45.369 -23.787   5.252  1.00  0.00     0.274 HD
HETATM   14  H   UNL     1      45.984 -22.252   5.245  1.00  0.00     0.274 HD
HETATM   15  H   UNL     1      44.377 -22.500   5.599  1.00  0.00     0.274 HD
ENDBRANCH  11  12
ENDBRANCH   8  11
ENDBRANCH   1   5
BRANCH   2  16
HETATM   16  C   UNL     1      40.989 -16.238   0.983  1.00  0.00     0.069 A 
HETATM   17  C   UNL     1      40.057 -15.374   1.580  1.00  0.00     0.092 A 
HETATM   18  C   UNL     1      39.497 -14.310   0.860  1.00  0.00     0.040 A 
HETATM   19  C   UNL     1      39.849 -14.086  -0.468  1.00  0.00     0.022 A 
HETATM   20  C   UNL     1      40.764 -14.934  -1.074  1.00  0.00     0.013 A 
HETATM   21 BR   UNL     1      41.261 -14.646  -2.876  1.00  0.00    -0.051 Br
HETATM   22  C   UNL     1      41.329 -15.997  -0.361  1.00  0.00     0.051 A 
BRANCH  17  23
HETATM   23  O   UNL     1      39.614 -15.442   2.869  1.00  0.00    -0.358 OA
HETATM   24  H   UNL     1      39.119 -16.278   2.993  1.00  0.00     0.218 HD
ENDBRANCH  17  23
ENDBRANCH   2  16
TORSDOF 5
ENDMDL
MODEL 2
REMARK VINA RESULT:      -6.9      2.368      2.779
REMARK  5 active torsions:
REMARK  status: ('A' for Active; 'I' for Inactive)
REMARK    1  A    between atoms: C_2  and  C_3 
REMARK    2  A    between atoms: C_3  and  N_4 
REMARK    3  A    between atoms: C_10  and  C_11 
REMARK       I    between atoms: C_11  and  N_12 
REMARK    4  A    between atoms: N_12  and  C_13 
REMARK    5  A    between atoms: C_14  and  O_15 
ROOT
HETATM    1  C   UNL     1      42.980 -17.069   2.771  1.00  0.00     0.256 C 
HETATM    2  N   UNL     1      41.630 -16.867   2.953  1.00  0.00    -0.320 N 
HETATM    3  O   UNL     1      43.789 -16.185   2.503  1.00  0.00    -0.267 OA
HETATM    4  H   UNL     1      41.089 -17.640   3.308  1.00  0.00     0.169 HD
ENDROOT
BRANCH   1   5
HETATM    5  C   UNL     1      43.504 -18.470   2.912  1.00  0.00     0.032 A 
HETATM    6  C   UNL     1      44.162 -18.958   4.047  1.00  0.00     0.017 A 
HETATM    7  C   UNL     1      44.570 -20.300   4.114  1.00  0.00     0.010 A 
HETATM    8  C   UNL     1      44.311 -21.186   3.058  1.00  0.00    -0.033 A 
HETATM    9  C   UNL     1      43.658 -20.697   1.920  1.00  0.00     0.010 A 
HETATM   10  C   UNL     1      43.265 -19.358   1.850  1.00  0.00     0.017 A 
BRANCH   8  11
HETATM   11  C   UNL     1      44.723 -22.627   3.139  1.00  0.00     0.268 C 
BRANCH  11  12
HETATM   12  N   UNL     1      44.894 -23.067   4.540  1.00  0.00    -0.075 N 
HETATM   13  H   UNL     1      44.036 -22.907   5.083  1.00  0.00     0.274 HD
HETATM   14  H   UNL     1      45.096 -24.074   4.584  1.00  0.00     0.274 HD
HETATM   15  H   UNL     1      45.660 -22.566   5.002  1.00  0.00     0.274 HD
ENDBRANCH  11  12
ENDBRANCH   8  11
ENDBRANCH   1   5
BRANCH   2  16
HETATM   16  C   UNL     1      40.860 -15.688   2.735  1.00  0.00     0.069 A 
HETATM   17  C   UNL     1      40.284 -15.248   1.533  1.00  0.00     0.092 A 
HETATM   18  C   UNL     1      39.508 -14.081   1.492  1.00  0.00     0.040 A 
HETATM   19  C   UNL     1      39.292 -13.329   2.643  1.00  0.00     0.022 A 
HETATM   20  C   UNL     1      39.859 -13.749   3.837  1.00  0.00     0.013 A 
HETATM   21 BR   UNL     1      39.575 -12.746   5.415  1.00  0.00    -0.051 Br
HETATM   22  C   UNL     1      40.632 -14.913   3.887  1.00  0.00     0.051 A 
BRANCH  17  23
HETATM   23  O   UNL     1      40.383 -15.868   0.322  1.00  0.00    -0.358 OA
HETATM   24  H   UNL     1      40.363 -15.192  -0.386  1.00  0.00     0.218 HD
ENDBRANCH  17  23
ENDBRANCH   2  16
TORSDOF 5
ENDMDL
MODEL 3
REMARK VINA RESULT:      -6.9      1.239      1.662
REMARK  5 active torsions:
REMARK  status: ('A' for Active; 'I' for Inactive)
REMARK    1  A    between atoms: C_2  and  C_3 
REMARK    2  A    between atoms: C_3  and  N_4 
REMARK    3  A    between atoms: C_10  and  C_11 
REMARK       I    between atoms: C_11  and  N_12 
REMARK    4  A    between atoms: N_12  and  C_13 
REMARK    5  A    between atoms: C_14  and  O_15 
ROOT
HETATM    1  C   UNL     1      43.678 -17.291   1.918  1.00  0.00     0.256 C 
HETATM    2  N   UNL     1      42.376 -16.851   1.827  1.00  0.00    -0.320 N 
HETATM    3  O   UNL     1      44.642 -16.727   1.407  1.00  0.00    -0.267 OA
HETATM    4  H   UNL     1      41.690 -17.314   2.404  1.00  0.00     0.169 HD
ENDROOT
BRANCH   1   5
HETATM    5  C   UNL     1      43.942 -18.547   2.699  1.00  0.00     0.032 A 
HETATM    6  C   UNL     1      44.068 -19.820   2.130  1.00  0.00     0.017 A 
HETATM    7  C   UNL     1      44.371 -20.932   2.931  1.00  0.00     0.010 A 
HETATM    8  C   UNL     1      44.575 -20.793   4.312  1.00  0.00    -0.033 A 
HETATM    9  C   UNL     1      44.443 -19.520   4.883  1.00  0.00     0.010 A 
HETATM   10  C   UNL     1      44.128 -18.417   4.085  1.00  0.00     0.017 A 
BRANCH   8  11
HETATM   11  C   UNL     1      44.924 -21.976   5.166  1.00  0.00     0.268 C 
BRANCH  11  12
HETATM   12  N   UNL     1      44.874 -23.238   4.396  1.00  0.00    -0.075 N 
HETATM   13  H   UNL     1      45.323 -23.127   3.479  1.00  0.00     0.274 HD
HETATM   14  H   UNL     1      45.375 -23.987   4.890  1.00  0.00     0.274 HD
HETATM   15  H   UNL     1      43.908 -23.547   4.241  1.00  0.00     0.274 HD
ENDBRANCH  11  12
ENDBRANCH   8  11
ENDBRANCH   1   5
BRANCH   2  16
HETATM   16  C   UNL     1      41.836 -15.795   1.040  1.00  0.00     0.069 A 
HETATM   17  C   UNL     1      41.649 -14.454   1.411  1.00  0.00     0.092 A 
HETATM   18  C   UNL     1      41.145 -13.517   0.498  1.00  0.00     0.040 A 
HETATM   19  C   UNL     1      40.815 -13.896  -0.800  1.00  0.00     0.022 A 
HETATM   20  C   UNL     1      40.989 -15.218  -1.181  1.00  0.00     0.013 A 
HETATM   21 BR   UNL     1      40.552 -15.754  -2.941  1.00  0.00    -0.051 Br
HETATM   22  C   UNL     1      41.493 -16.158  -0.276  1.00  0.00     0.051 A 
BRANCH  17  23
HETATM   23  O   UNL     1      41.932 -13.914   2.632  1.00  0.00    -0.358 OA
HETATM   24  H   UNL     1      41.712 -14.566   3.328  1.00  0.00     0.218 HD
ENDBRANCH  17  23
ENDBRANCH   2  16
TORSDOF 5
ENDMDL
MODEL 4
REMARK VINA RESULT:      -6.9      2.006      2.549
REMARK  5 active torsions:
REMARK  status: ('A' for Active; 'I' for Inactive)
REMARK    1  A    between atoms: C_2  and  C_3 
REMARK    2  A    between atoms: C_3  and  N_4 
REMARK    3  A    between atoms: C_10  and  C_11 
REMARK       I    between atoms: C_11  and  N_12 
REMARK    4  A    between atoms: N_12  and  C_13 
REMARK    5  A    between atoms: C_14  and  O_15 
ROOT
HETATM    1  C   UNL     1      43.603 -17.241   2.274  1.00  0.00     0.256 C 
HETATM    2  N   UNL     1      42.531 -16.597   2.848  1.00  0.00    -0.320 N 
HETATM    3  O   UNL     1      44.398 -16.718   1.497  1.00  0.00    -0.267 OA
HETATM    4  H   UNL     1      42.034 -17.085   3.578  1.00  0.00     0.169 HD
ENDROOT
BRANCH   1   5
HETATM    5  C   UNL     1      43.823 -18.686   2.623  1.00  0.00     0.032 A 
HETATM    6  C   UNL     1      43.691 -19.747   1.718  1.00  0.00     0.017 A 
HETATM    7  C   UNL     1      43.971 -21.063   2.118  1.00  0.00     0.010 A 
HETATM    8  C   UNL     1      44.406 -21.345   3.421  1.00  0.00    -0.033 A 
HETATM    9  C   UNL     1      44.533 -20.285   4.328  1.00  0.00     0.010 A 
HETATM   10  C   UNL     1      44.241 -18.977   3.932  1.00  0.00     0.017 A 
BRANCH   8  11
HETATM   11  C   UNL     1      44.730 -22.749   3.842  1.00  0.00     0.268 C 
BRANCH  11  12
HETATM   12  N   UNL     1      45.451 -22.778   5.133  1.00  0.00    -0.075 N 
HETATM   13  H   UNL     1      45.110 -22.040   5.761  1.00  0.00     0.274 HD
HETATM   14  H   UNL     1      45.304 -23.675   5.612  1.00  0.00     0.274 HD
HETATM   15  H   UNL     1      46.460 -22.644   5.005  1.00  0.00     0.274 HD
ENDBRANCH  11  12
ENDBRANCH   8  11
ENDBRANCH   1   5
BRANCH   2  16
HETATM   16  C   UNL     1      42.014 -15.297   2.581  1.00  0.00     0.069 A 
HETATM   17  C   UNL     1      42.672 -14.064   2.719  1.00  0.00     0.092 A 
HETATM   18  C   UNL     1      42.037 -12.866   2.367  1.00  0.00     0.040 A 
HETATM   19  C   UNL     1      40.735 -12.868   1.874  1.00  0.00     0.022 A 
HETATM   20  C   UNL     1      40.069 -14.077   1.738  1.00  0.00     0.013 A 
HETATM   21 BR   UNL     1      38.302 -14.106   1.066  1.00  0.00    -0.051 Br
HETATM   22  C   UNL     1      40.697 -15.278   2.084  1.00  0.00     0.051 A 
BRANCH  17  23
HETATM   23  O   UNL     1      43.947 -13.883   3.170  1.00  0.00    -0.358 OA
HETATM   24  H   UNL     1      44.388 -13.207   2.616  1.00  0.00     0.218 HD
ENDBRANCH  17  23
ENDBRANCH   2  16
TORSDOF 5
ENDMDL
MODEL 5
REMARK VINA RESULT:      -6.6      2.862      3.308
REMARK  5 active torsions:
REMARK  status: ('A' for Active; 'I' for Inactive)
REMARK    1  A    between atoms: C_2  and  C_3 
REMARK    2  A    between atoms: C_3  and  N_4 
REMARK    3  A    between atoms: C_10  and  C_11 
REMARK       I    between atoms: C_11  and  N_12 
REMARK    4  A    between atoms: N_12  and  C_13 
REMARK    5  A    between atoms: C_14  and  O_15 
ROOT
HETATM    1  C   UNL     1      42.489 -16.487   4.553  1.00  0.00     0.256 C 
HETATM    2  N   UNL     1      41.309 -16.091   3.964  1.00  0.00    -0.320 N 
HETATM    3  O   UNL     1      43.055 -15.881   5.458  1.00  0.00    -0.267 OA
HETATM    4  H   UNL     1      40.866 -16.740   3.332  1.00  0.00     0.169 HD
ENDROOT
BRANCH   1   5
HETATM    5  C   UNL     1      43.131 -17.752   4.057  1.00  0.00     0.032 A 
HETATM    6  C   UNL     1      43.987 -18.555   4.819  1.00  0.00     0.017 A 
HETATM    7  C   UNL     1      44.498 -19.753   4.293  1.00  0.00     0.010 A 
HETATM    8  C   UNL     1      44.148 -20.182   3.004  1.00  0.00    -0.033 A 
HETATM    9  C   UNL     1      43.296 -19.375   2.239  1.00  0.00     0.010 A 
HETATM   10  C   UNL     1      42.799 -18.177   2.760  1.00  0.00     0.017 A 
BRANCH   8  11
HETATM   11  C   UNL     1      44.673 -21.474   2.449  1.00  0.00     0.268 C 
BRANCH  11  12
HETATM   12  N   UNL     1      43.819 -21.984   1.355  1.00  0.00    -0.075 N 
HETATM   13  H   UNL     1      42.930 -21.470   1.312  1.00  0.00     0.274 HD
HETATM   14  H   UNL     1      44.282 -21.864   0.445  1.00  0.00     0.274 HD
HETATM   15  H   UNL     1      43.604 -22.980   1.477  1.00  0.00     0.274 HD
ENDBRANCH  11  12
ENDBRANCH   8  11
ENDBRANCH   1   5
BRANCH   2  16
HETATM   16  C   UNL     1      40.581 -14.878   4.134  1.00  0.00     0.069 A 
HETATM   17  C   UNL     1      40.141 -14.301   5.336  1.00  0.00     0.092 A 
HETATM   18  C   UNL     1      39.472 -13.069   5.339  1.00  0.00     0.040 A 
HETATM   19  C   UNL     1      39.226 -12.389   4.150  1.00  0.00     0.022 A 
HETATM   20  C   UNL     1      39.650 -12.949   2.954  1.00  0.00     0.013 A 
HETATM   21 BR   UNL     1      39.331 -12.041   1.326  1.00  0.00    -0.051 Br
HETATM   22  C   UNL     1      40.320 -14.177   2.942  1.00  0.00     0.051 A 
BRANCH  17  23
HETATM   23  O   UNL     1      40.310 -14.822   6.585  1.00  0.00    -0.358 OA
HETATM   24  H   UNL     1      39.842 -14.257   7.233  1.00  0.00     0.218 HD
ENDBRANCH  17  23
ENDBRANCH   2  16
TORSDOF 5
ENDMDL
MODEL 6
REMARK VINA RESULT:      -6.6      2.898      7.366
REMARK  5 active torsions:
REMARK  status: ('A' for Active; 'I' for Inactive)
REMARK    1  A    between atoms: C_2  and  C_3 
REMARK    2  A    between atoms: C_3  and  N_4 
REMARK    3  A    between atoms: C_10  and  C_11 
REMARK       I    between atoms: C_11  and  N_12 
REMARK    4  A    between atoms: N_12  and  C_13 
REMARK    5  A    between atoms: C_14  and  O_15 
ROOT
HETATM    1  C   UNL     1      41.356 -16.367   1.874  1.00  0.00     0.256 C 
HETATM    2  N   UNL     1      42.546 -17.028   1.674  1.00  0.00    -0.320 N 
HETATM    3  O   UNL     1      40.729 -16.362   2.930  1.00  0.00    -0.267 OA
HETATM    4  H   UNL     1      43.039 -16.844   0.813  1.00  0.00     0.169 HD
ENDROOT
BRANCH   1   5
HETATM    5  C   UNL     1      40.780 -15.592   0.722  1.00  0.00     0.032 A 
HETATM    6  C   UNL     1      39.809 -14.592   0.849  1.00  0.00     0.017 A 
HETATM    7  C   UNL     1      39.369 -13.880  -0.278  1.00  0.00     0.010 A 
HETATM    8  C   UNL     1      39.903 -14.137  -1.549  1.00  0.00    -0.033 A 
HETATM    9  C   UNL     1      40.871 -15.142  -1.677  1.00  0.00     0.010 A 
HETATM   10  C   UNL     1      41.298 -15.859  -0.556  1.00  0.00     0.017 A 
BRANCH   8  11
HETATM   11  C   UNL     1      39.452 -13.359  -2.751  1.00  0.00     0.268 C 
BRANCH  11  12
HETATM   12  N   UNL     1      39.032 -14.252  -3.852  1.00  0.00    -0.075 N 
HETATM   13  H   UNL     1      38.418 -14.999  -3.506  1.00  0.00     0.274 HD
HETATM   14  H   UNL     1      38.504 -13.730  -4.563  1.00  0.00     0.274 HD
HETATM   15  H   UNL     1      39.839 -14.691  -4.310  1.00  0.00     0.274 HD
ENDBRANCH  11  12
ENDBRANCH   8  11
ENDBRANCH   1   5
BRANCH   2  16
HETATM   16  C   UNL     1      43.224 -17.941   2.532  1.00  0.00     0.069 A 
HETATM   17  C   UNL     1      43.636 -17.732   3.857  1.00  0.00     0.092 A 
HETATM   18  C   UNL     1      44.255 -18.755   4.589  1.00  0.00     0.040 A 
HETATM   19  C   UNL     1      44.478 -20.004   4.016  1.00  0.00     0.022 A 
HETATM   20  C   UNL     1      44.082 -20.225   2.706  1.00  0.00     0.013 A 
HETATM   21 BR   UNL     1      44.370 -21.915   1.909  1.00  0.00    -0.051 Br
HETATM   22  C   UNL     1      43.462 -19.210   1.970  1.00  0.00     0.051 A 
BRANCH  17  23
HETATM   23  O   UNL     1      43.483 -16.580   4.571  1.00  0.00    -0.358 OA
HETATM   24  H   UNL     1      44.279 -16.438   5.123  1.00  0.00     0.218 HD
ENDBRANCH  17  23
ENDBRANCH   2  16
TORSDOF 5
ENDMDL
MODEL 7
REMARK VINA RESULT:      -6.6      2.391      3.346
REMARK  5 active torsions:
REMARK  status: ('A' for Active; 'I' for Inactive)
REMARK    1  A    between atoms: C_2  and  C_3 
REMARK    2  A    between atoms: C_3  and  N_4 
REMARK    3  A    between atoms: C_10  and  C_11 
REMARK       I    between atoms: C_11  and  N_12 
REMARK    4  A    between atoms: N_12  and  C_13 
REMARK    5  A    between atoms: C_14  and  O_15 
ROOT
HETATM    1  C   UNL     1      41.312 -15.996   0.637  1.00  0.00     0.256 C 
HETATM    2  N   UNL     1      41.711 -15.931  -0.680  1.00  0.00    -0.320 N 
HETATM    3  O   UNL     1      40.370 -15.370   1.112  1.00  0.00    -0.267 OA
HETATM    4  H   UNL     1      42.405 -16.595  -0.987  1.00  0.00     0.169 HD
ENDROOT
BRANCH   1   5
HETATM    5  C   UNL     1      42.082 -16.899   1.559  1.00  0.00     0.032 A 
HETATM    6  C   UNL     1      41.663 -17.258   2.846  1.00  0.00     0.017 A 
HETATM    7  C   UNL     1      42.419 -18.154   3.618  1.00  0.00     0.010 A 
HETATM    8  C   UNL     1      43.597 -18.725   3.114  1.00  0.00    -0.033 A 
HETATM    9  C   UNL     1      44.020 -18.362   1.829  1.00  0.00     0.010 A 
HETATM   10  C   UNL     1      43.272 -17.459   1.067  1.00  0.00     0.017 A 
BRANCH   8  11
HETATM   11  C   UNL     1      44.393 -19.702   3.929  1.00  0.00     0.268 C 
BRANCH  11  12
HETATM   12  N   UNL     1      44.863 -20.839   3.108  1.00  0.00    -0.075 N 
HETATM   13  H   UNL     1      44.501 -20.776   2.149  1.00  0.00     0.274 HD
HETATM   14  H   UNL     1      45.889 -20.843   3.045  1.00  0.00     0.274 HD
HETATM   15  H   UNL     1      44.563 -21.738   3.502  1.00  0.00     0.274 HD
ENDBRANCH  11  12
ENDBRANCH   8  11
ENDBRANCH   1   5
BRANCH   2  16
HETATM   16  C   UNL     1      41.262 -15.060  -1.714  1.00  0.00     0.069 A 
HETATM   17  C   UNL     1      40.379 -15.356  -2.764  1.00  0.00     0.092 A 
HETATM   18  C   UNL     1      39.995 -14.367  -3.681  1.00  0.00     0.040 A 
HETATM   19  C   UNL     1      40.484 -13.068  -3.574  1.00  0.00     0.022 A 
HETATM   20  C   UNL     1      41.361 -12.762  -2.544  1.00  0.00     0.013 A 
HETATM   21 BR   UNL     1      42.034 -11.003  -2.376  1.00  0.00    -0.051 Br
HETATM   22  C   UNL     1      41.747 -13.742  -1.624  1.00  0.00     0.051 A 
BRANCH  17  23
HETATM   23  O   UNL     1      39.799 -16.566  -3.007  1.00  0.00    -0.358 OA
HETATM   24  H   UNL     1      40.223 -17.242  -2.439  1.00  0.00     0.218 HD
ENDBRANCH  17  23
ENDBRANCH   2  16
TORSDOF 5
ENDMDL
MODEL 8
REMARK VINA RESULT:      -6.5      3.192      7.624
REMARK  5 active torsions:
REMARK  status: ('A' for Active; 'I' for Inactive)
REMARK    1  A    between atoms: C_2  and  C_3 
REMARK    2  A    between atoms: C_3  and  N_4 
REMARK    3  A    between atoms: C_10  and  C_11 
REMARK       I    between atoms: C_11  and  N_12 
REMARK    4  A    between atoms: N_12  and  C_13 
REMARK    5  A    between atoms: C_14  and  O_15 
ROOT
HETATM    1  C   UNL     1      41.456 -16.600   3.942  1.00  0.00     0.256 C 
HETATM    2  N   UNL     1      42.536 -17.130   3.273  1.00  0.00    -0.320 N 
HETATM    3  O   UNL     1      41.129 -16.900   5.087  1.00  0.00    -0.267 OA
HETATM    4  H   UNL     1      42.790 -16.705   2.394  1.00  0.00     0.169 HD
ENDROOT
BRANCH   1   5
HETATM    5  C   UNL     1      40.617 -15.581   3.225  1.00  0.00     0.032 A 
HETATM    6  C   UNL     1      39.942 -15.817   2.021  1.00  0.00     0.017 A 
HETATM    7  C   UNL     1      39.133 -14.822   1.450  1.00  0.00     0.010 A 
HETATM    8  C   UNL     1      38.966 -13.578   2.078  1.00  0.00    -0.033 A 
HETATM    9  C   UNL     1      39.646 -13.340   3.280  1.00  0.00     0.010 A 
HETATM   10  C   UNL     1      40.461 -14.327   3.840  1.00  0.00     0.017 A 
BRANCH   8  11
HETATM   11  C   UNL     1      38.082 -12.523   1.482  1.00  0.00     0.268 C 
BRANCH  11  12
HETATM   12  N   UNL     1      38.285 -11.211   2.133  1.00  0.00    -0.075 N 
HETATM   13  H   UNL     1      38.187 -11.287   3.152  1.00  0.00     0.274 HD
HETATM   14  H   UNL     1      39.230 -10.853   1.945  1.00  0.00     0.274 HD
HETATM   15  H   UNL     1      37.607 -10.516   1.800  1.00  0.00     0.274 HD
ENDBRANCH  11  12
ENDBRANCH   8  11
ENDBRANCH   1   5
BRANCH   2  16
HETATM   16  C   UNL     1      43.394 -18.201   3.654  1.00  0.00     0.069 A 
HETATM   17  C   UNL     1      44.142 -18.326   4.835  1.00  0.00     0.092 A 
HETATM   18  C   UNL     1      44.907 -19.474   5.085  1.00  0.00     0.040 A 
HETATM   19  C   UNL     1      44.945 -20.518   4.164  1.00  0.00     0.022 A 
HETATM   20  C   UNL     1      44.215 -20.407   2.990  1.00  0.00     0.013 A 
HETATM   21 BR   UNL     1      44.248 -21.815   1.728  1.00  0.00    -0.051 Br
HETATM   22  C   UNL     1      43.448 -19.266   2.735  1.00  0.00     0.051 A 
BRANCH  17  23
HETATM   23  O   UNL     1      44.206 -17.410   5.843  1.00  0.00    -0.358 OA
HETATM   24  H   UNL     1      43.400 -16.853   5.821  1.00  0.00     0.218 HD
ENDBRANCH  17  23
ENDBRANCH   2  16
TORSDOF 5
ENDMDL
MODEL 9
REMARK VINA RESULT:      -6.4      3.037      3.639
REMARK  5 active torsions:
REMARK  status: ('A' for Active; 'I' for Inactive)
REMARK    1  A    between atoms: C_2  and  C_3 
REMARK    2  A    between atoms: C_3  and  N_4 
REMARK    3  A    between atoms: C_10  and  C_11 
REMARK       I    between atoms: C_11  and  N_12 
REMARK    4  A    between atoms: N_12  and  C_13 
REMARK    5  A    between atoms: C_14  and  O_15 
ROOT
HETATM    1  C   UNL     1      41.087 -16.361   3.071  1.00  0.00     0.256 C 
HETATM    2  N   UNL     1      41.342 -15.272   3.875  1.00  0.00    -0.320 N 
HETATM    3  O   UNL     1      40.096 -16.485   2.358  1.00  0.00    -0.267 OA
HETATM    4  H   UNL     1      42.252 -15.217   4.304  1.00  0.00     0.169 HD
ENDROOT
BRANCH   1   5
HETATM    5  C   UNL     1      42.094 -17.477   3.061  1.00  0.00     0.032 A 
HETATM    6  C   UNL     1      42.794 -17.919   4.189  1.00  0.00     0.017 A 
HETATM    7  C   UNL     1      43.676 -19.008   4.099  1.00  0.00     0.010 A 
HETATM    8  C   UNL     1      43.861 -19.688   2.886  1.00  0.00    -0.033 A 
HETATM    9  C   UNL     1      43.165 -19.242   1.756  1.00  0.00     0.010 A 
HETATM   10  C   UNL     1      42.297 -18.150   1.845  1.00  0.00     0.017 A 
BRANCH   8  11
HETATM   11  C   UNL     1      44.784 -20.868   2.793  1.00  0.00     0.268 C 
BRANCH  11  12
HETATM   12  N   UNL     1      44.252 -21.906   1.885  1.00  0.00    -0.075 N 
HETATM   13  H   UNL     1      44.779 -22.783   1.980  1.00  0.00     0.274 HD
HETATM   14  H   UNL     1      43.271 -22.116   2.107  1.00  0.00     0.274 HD
HETATM   15  H   UNL     1      44.303 -21.610   0.903  1.00  0.00     0.274 HD
ENDBRANCH  11  12
ENDBRANCH   8  11
ENDBRANCH   1   5
BRANCH   2  16
HETATM   16  C   UNL     1      40.500 -14.165   4.182  1.00  0.00     0.069 A 
HETATM   17  C   UNL     1      39.940 -13.829   5.425  1.00  0.00     0.092 A 
HETATM   18  C   UNL     1      39.166 -12.670   5.576  1.00  0.00     0.040 A 
HETATM   19  C   UNL     1      38.931 -11.825   4.495  1.00  0.00     0.022 A 
HETATM   20  C   UNL     1      39.473 -12.146   3.259  1.00  0.00     0.013 A 
HETATM   21 BR   UNL     1      39.172 -11.011   1.777  1.00  0.00    -0.051 Br
HETATM   22  C   UNL     1      40.249 -13.299   3.101  1.00  0.00     0.051 A 
BRANCH  17  23
HETATM   23  O   UNL     1      40.081 -14.534   6.584  1.00  0.00    -0.358 OA
HETATM   24  H   UNL     1      40.299 -13.914   7.310  1.00  0.00     0.218 HD
ENDBRANCH  17  23
ENDBRANCH   2  16
TORSDOF 5
ENDMDL
MODEL 10
REMARK VINA RESULT:      -6.4      2.160      2.491
REMARK  5 active torsions:
REMARK  status: ('A' for Active; 'I' for Inactive)
REMARK    1  A    between atoms: C_2  and  C_3 
REMARK    2  A    between atoms: C_3  and  N_4 
REMARK    3  A    between atoms: C_10  and  C_11 
REMARK       I    between atoms: C_11  and  N_12 
REMARK    4  A    between atoms: N_12  and  C_13 
REMARK    5  A    between atoms: C_14  and  O_15 
ROOT
HETATM    1  C   UNL     1      41.783 -17.255   1.495  1.00  0.00     0.256 C 
HETATM    2  N   UNL     1      42.284 -16.049   1.060  1.00  0.00    -0.320 N 
HETATM    3  O   UNL     1      40.665 -17.685   1.226  1.00  0.00    -0.267 OA
HETATM    4  H   UNL     1      43.262 -15.867   1.225  1.00  0.00     0.169 HD
ENDROOT
BRANCH   1   5
HETATM    5  C   UNL     1      42.665 -18.111   2.359  1.00  0.00     0.032 A 
HETATM    6  C   UNL     1      42.769 -17.989   3.750  1.00  0.00     0.017 A 
HETATM    7  C   UNL     1      43.578 -18.871   4.484  1.00  0.00     0.010 A 
HETATM    8  C   UNL     1      44.283 -19.903   3.849  1.00  0.00    -0.033 A 
HETATM    9  C   UNL     1      44.184 -20.022   2.457  1.00  0.00     0.010 A 
HETATM   10  C   UNL     1      43.389 -19.136   1.725  1.00  0.00     0.017 A 
BRANCH   8  11
HETATM   11  C   UNL     1      45.128 -20.862   4.636  1.00  0.00     0.268 C 
BRANCH  11  12
HETATM   12  N   UNL     1      44.746 -22.266   4.374  1.00  0.00    -0.075 N 
HETATM   13  H   UNL     1      45.028 -22.875   5.151  1.00  0.00     0.274 HD
HETATM   14  H   UNL     1      43.727 -22.354   4.274  1.00  0.00     0.274 HD
HETATM   15  H   UNL     1      45.184 -22.623   3.517  1.00  0.00     0.274 HD
ENDBRANCH  11  12
ENDBRANCH   8  11
ENDBRANCH   1   5
BRANCH   2  16
HETATM   16  C   UNL     1      41.620 -14.996   0.367  1.00  0.00     0.069 A 
HETATM   17  C   UNL     1      40.924 -15.071  -0.850  1.00  0.00     0.092 A 
HETATM   18  C   UNL     1      40.279 -13.946  -1.381  1.00  0.00     0.040 A 
HETATM   19  C   UNL     1      40.315 -12.724  -0.714  1.00  0.00     0.022 A 
HETATM   20  C   UNL     1      41.003 -12.633   0.486  1.00  0.00     0.013 A 
HETATM   21 BR   UNL     1      41.062 -10.985   1.412  1.00  0.00    -0.051 Br
HETATM   22  C   UNL     1      41.647 -13.752   1.024  1.00  0.00     0.051 A 
BRANCH  17  23
HETATM   23  O   UNL     1      40.778 -16.187  -1.621  1.00  0.00    -0.358 OA
HETATM   24  H   UNL     1      40.201 -16.825  -1.154  1.00  0.00     0.218 HD
ENDBRANCH  17  23
ENDBRANCH   2  16
TORSDOF 5
ENDMDL
