MODEL 1
REMARK VINA RESULT:      -8.6      0.000      0.000
REMARK  4 active torsions:
REMARK  status: ('A' for Active; 'I' for Inactive)
REMARK    1  A    between atoms: C_2  and  C_3 
REMARK    2  A    between atoms: C_4  and  C_5 
REMARK       I    between atoms: C_5  and  N_6 
REMARK    3  A    between atoms: N_6  and  C_7 
REMARK    4  A    between atoms: C_14  and  C_15 
REMARK       I    between atoms: C_15  and  N_16 
ROOT
HETATM    1  C   UNL     1      43.836 -14.732   6.729  1.00  0.00     0.035 A 
HETATM    2  C   UNL     1      43.937 -16.129   6.781  1.00  0.00     0.046 A 
HETATM    3  C   UNL     1      43.600 -16.896   5.642  1.00  0.00     0.030 A 
HETATM    4  C   UNL     1      43.178 -16.238   4.493  1.00  0.00     0.063 A 
HETATM    5  N   UNL     1      42.923 -17.226   3.583  1.00  0.00    -0.277 N 
HETATM    6  H   UNL     1      42.594 -17.113   2.631  1.00  0.00     0.189 HD
HETATM    7  N   UNL     1      43.145 -18.470   4.034  1.00  0.00    -0.168 NA
HETATM    8  C   UNL     1      43.567 -18.283   5.306  1.00  0.00     0.156 A 
HETATM    9  C   UNL     1      43.073 -14.850   4.403  1.00  0.00     0.034 A 
HETATM   10  C   UNL     1      43.413 -14.114   5.544  1.00  0.00     0.032 A 
ENDROOT
BRANCH   1  11
HETATM   11  N   UNL     1      44.131 -13.880   7.815  1.00  0.00    -0.327 N 
HETATM   12  C   UNL     1      45.258 -13.107   8.001  1.00  0.00     0.227 C 
HETATM   13  O   UNL     1      46.211 -13.005   7.243  1.00  0.00    -0.273 OA
HETATM   14  H   UNL     1      43.450 -13.873   8.558  1.00  0.00     0.169 HD
BRANCH  12  15
HETATM   15  C   UNL     1      45.318 -12.339   9.283  1.00  0.00     0.087 A 
HETATM   16  C   UNL     1      44.474 -11.080   9.422  1.00  0.00     0.032 A 
HETATM   17  C   UNL     1      45.982 -11.005   9.493  1.00  0.00     0.025 A 
BRANCH  16  18
HETATM   18  C   UNL     1      43.641 -10.866  10.661  1.00  0.00    -0.053 A 
HETATM   19  C   UNL     1      44.185 -10.261  11.807  1.00  0.00     0.009 A 
HETATM   20  C   UNL     1      43.409 -10.033  12.949  1.00  0.00     0.024 A 
HETATM   21  C   UNL     1      42.069 -10.406  12.958  1.00  0.00     0.034 A 
HETATM   22  C   UNL     1      41.500 -11.002  11.837  1.00  0.00     0.024 A 
HETATM   23 CL   UNL     1      41.111 -10.124  14.358  1.00  0.00    -0.084 Cl
HETATM   24  C   UNL     1      42.282 -11.224  10.699  1.00  0.00     0.009 A 
ENDBRANCH  16  18
ENDBRANCH  12  15
ENDBRANCH   1  11
BRANCH   8  25
HETATM   25  C   UNL     1      43.923 -19.422   6.163  1.00  0.00     0.270 C 
HETATM   26  N   UNL     1      44.624 -20.406   5.519  1.00  0.00    -0.365 N 
HETATM   27  H   UNL     1      44.841 -20.284   4.537  1.00  0.00     0.159 HD
HETATM   28  H   UNL     1      44.914 -21.226   6.027  1.00  0.00     0.159 HD
HETATM   29  O   UNL     1      43.639 -19.521   7.351  1.00  0.00    -0.266 OA
ENDBRANCH   8  25
TORSDOF 4
ENDMDL
MODEL 2
REMARK VINA RESULT:      -8.5      1.813      2.751
REMARK  4 active torsions:
REMARK  status: ('A' for Active; 'I' for Inactive)
REMARK    1  A    between atoms: C_2  and  C_3 
REMARK    2  A    between atoms: C_4  and  C_5 
REMARK       I    between atoms: C_5  and  N_6 
REMARK    3  A    between atoms: N_6  and  C_7 
REMARK    4  A    between atoms: C_14  and  C_15 
REMARK       I    between atoms: C_15  and  N_16 
ROOT
HETATM    1  C   UNL     1      43.711 -15.447   6.741  1.00  0.00     0.035 A 
HETATM    2  C   UNL     1      42.755 -15.225   5.741  1.00  0.00     0.046 A 
HETATM    3  C   UNL     1      42.516 -16.226   4.770  1.00  0.00     0.030 A 
HETATM    4  C   UNL     1      43.240 -17.409   4.837  1.00  0.00     0.063 A 
HETATM    5  N   UNL     1      42.802 -18.162   3.783  1.00  0.00    -0.277 N 
HETATM    6  H   UNL     1      43.114 -19.090   3.520  1.00  0.00     0.189 HD
HETATM    7  N   UNL     1      41.854 -17.576   3.036  1.00  0.00    -0.168 NA
HETATM    8  C   UNL     1      41.664 -16.377   3.635  1.00  0.00     0.156 A 
HETATM    9  C   UNL     1      44.194 -17.667   5.822  1.00  0.00     0.034 A 
HETATM   10  C   UNL     1      44.411 -16.661   6.772  1.00  0.00     0.032 A 
ENDROOT
BRANCH   1  11
HETATM   11  N   UNL     1      44.035 -14.506   7.743  1.00  0.00    -0.327 N 
HETATM   12  C   UNL     1      44.996 -13.519   7.696  1.00  0.00     0.227 C 
HETATM   13  O   UNL     1      45.743 -13.266   6.763  1.00  0.00    -0.273 OA
HETATM   14  H   UNL     1      43.524 -14.600   8.607  1.00  0.00     0.169 HD
BRANCH  12  15
HETATM   15  C   UNL     1      45.150 -12.698   8.937  1.00  0.00     0.087 A 
HETATM   16  C   UNL     1      44.412 -11.370   9.032  1.00  0.00     0.032 A 
HETATM   17  C   UNL     1      45.922 -11.414   9.067  1.00  0.00     0.025 A 
BRANCH  16  18
HETATM   18  C   UNL     1      43.630 -11.032  10.277  1.00  0.00    -0.053 A 
HETATM   19  C   UNL     1      44.272 -10.544  11.428  1.00  0.00     0.009 A 
HETATM   20  C   UNL     1      43.549 -10.201  12.575  1.00  0.00     0.024 A 
HETATM   21  C   UNL     1      42.164 -10.336  12.585  1.00  0.00     0.034 A 
HETATM   22  C   UNL     1      41.500 -10.809  11.459  1.00  0.00     0.024 A 
HETATM   23 CL   UNL     1      41.272  -9.910  13.992  1.00  0.00    -0.084 Cl
HETATM   24  C   UNL     1      42.229 -11.149  10.315  1.00  0.00     0.009 A 
ENDBRANCH  16  18
ENDBRANCH  12  15
ENDBRANCH   1  11
BRANCH   8  25
HETATM   25  C   UNL     1      40.684 -15.415   3.113  1.00  0.00     0.270 C 
HETATM   26  N   UNL     1      39.604 -15.994   2.503  1.00  0.00    -0.365 N 
HETATM   27  H   UNL     1      39.558 -17.005   2.456  1.00  0.00     0.159 HD
HETATM   28  H   UNL     1      38.878 -15.413   2.116  1.00  0.00     0.159 HD
HETATM   29  O   UNL     1      40.785 -14.196   3.198  1.00  0.00    -0.266 OA
ENDBRANCH   8  25
TORSDOF 4
ENDMDL
MODEL 3
REMARK VINA RESULT:      -8.3      5.964      9.617
REMARK  4 active torsions:
REMARK  status: ('A' for Active; 'I' for Inactive)
REMARK    1  A    between atoms: C_2  and  C_3 
REMARK    2  A    between atoms: C_4  and  C_5 
REMARK       I    between atoms: C_5  and  N_6 
REMARK    3  A    between atoms: N_6  and  C_7 
REMARK    4  A    between atoms: C_14  and  C_15 
REMARK       I    between atoms: C_15  and  N_16 
ROOT
HETATM    1  C   UNL     1      40.519 -14.205   2.756  1.00  0.00     0.035 A 
HETATM    2  C   UNL     1      40.424 -13.654   4.041  1.00  0.00     0.046 A 
HETATM    3  C   UNL     1      39.578 -12.544   4.263  1.00  0.00     0.030 A 
HETATM    4  C   UNL     1      38.856 -12.027   3.195  1.00  0.00     0.063 A 
HETATM    5  N   UNL     1      38.149 -10.976   3.709  1.00  0.00    -0.277 N 
HETATM    6  H   UNL     1      37.513 -10.362   3.211  1.00  0.00     0.189 HD
HETATM    7  N   UNL     1      38.341 -10.763   5.020  1.00  0.00    -0.168 NA
HETATM    8  C   UNL     1      39.222 -11.726   5.379  1.00  0.00     0.156 A 
HETATM    9  C   UNL     1      38.921 -12.554   1.904  1.00  0.00     0.034 A 
HETATM   10  C   UNL     1      39.765 -13.654   1.711  1.00  0.00     0.032 A 
ENDROOT
BRANCH   1  11
HETATM   11  N   UNL     1      41.347 -15.300   2.428  1.00  0.00    -0.327 N 
HETATM   12  C   UNL     1      40.961 -16.580   2.089  1.00  0.00     0.227 C 
HETATM   13  O   UNL     1      39.818 -17.001   1.998  1.00  0.00    -0.273 OA
HETATM   14  H   UNL     1      42.338 -15.128   2.488  1.00  0.00     0.169 HD
BRANCH  12  15
HETATM   15  C   UNL     1      42.071 -17.551   1.840  1.00  0.00     0.087 A 
HETATM   16  C   UNL     1      43.308 -17.491   2.724  1.00  0.00     0.032 A 
HETATM   17  C   UNL     1      43.413 -17.237   1.238  1.00  0.00     0.025 A 
BRANCH  16  18
HETATM   18  C   UNL     1      43.868 -18.758   3.322  1.00  0.00    -0.053 A 
HETATM   19  C   UNL     1      44.050 -18.890   4.709  1.00  0.00     0.009 A 
HETATM   20  C   UNL     1      44.540 -20.073   5.271  1.00  0.00     0.024 A 
HETATM   21  C   UNL     1      44.853 -21.150   4.447  1.00  0.00     0.034 A 
HETATM   22  C   UNL     1      44.677 -21.053   3.071  1.00  0.00     0.024 A 
HETATM   23 CL   UNL     1      45.451 -22.608   5.135  1.00  0.00    -0.084 Cl
HETATM   24  C   UNL     1      44.184 -19.867   2.517  1.00  0.00     0.009 A 
ENDBRANCH  16  18
ENDBRANCH  12  15
ENDBRANCH   1  11
BRANCH   8  25
HETATM   25  C   UNL     1      39.698 -11.841   6.764  1.00  0.00     0.270 C 
HETATM   26  N   UNL     1      39.199 -12.924   7.437  1.00  0.00    -0.365 N 
HETATM   27  H   UNL     1      38.563 -13.546   6.951  1.00  0.00     0.159 HD
HETATM   28  H   UNL     1      39.472 -13.087   8.393  1.00  0.00     0.159 HD
HETATM   29  O   UNL     1      40.472 -11.061   7.306  1.00  0.00    -0.266 OA
ENDBRANCH   8  25
TORSDOF 4
ENDMDL
MODEL 4
REMARK VINA RESULT:      -8.3      4.309      9.258
REMARK  4 active torsions:
REMARK  status: ('A' for Active; 'I' for Inactive)
REMARK    1  A    between atoms: C_2  and  C_3 
REMARK    2  A    between atoms: C_4  and  C_5 
REMARK       I    between atoms: C_5  and  N_6 
REMARK    3  A    between atoms: N_6  and  C_7 
REMARK    4  A    between atoms: C_14  and  C_15 
REMARK       I    between atoms: C_15  and  N_16 
ROOT
HETATM    1  C   UNL     1      44.648 -13.917   7.065  1.00  0.00     0.035 A 
HETATM    2  C   UNL     1      44.022 -13.334   8.176  1.00  0.00     0.046 A 
HETATM    3  C   UNL     1      44.718 -12.370   8.941  1.00  0.00     0.030 A 
HETATM    4  C   UNL     1      46.010 -12.022   8.567  1.00  0.00     0.063 A 
HETATM    5  N   UNL     1      46.415 -11.092   9.483  1.00  0.00    -0.277 N 
HETATM    6  H   UNL     1      47.310 -10.618   9.521  1.00  0.00     0.189 HD
HETATM    7  N   UNL     1      45.500 -10.798  10.420  1.00  0.00    -0.168 NA
HETATM    8  C   UNL     1      44.443 -11.579  10.098  1.00  0.00     0.156 A 
HETATM    9  C   UNL     1      46.660 -12.576   7.464  1.00  0.00     0.034 A 
HETATM   10  C   UNL     1      45.950 -13.528   6.722  1.00  0.00     0.032 A 
ENDROOT
BRANCH   1  11
HETATM   11  N   UNL     1      44.047 -14.899   6.249  1.00  0.00    -0.327 N 
HETATM   12  C   UNL     1      43.386 -14.715   5.052  1.00  0.00     0.227 C 
HETATM   13  O   UNL     1      43.211 -13.658   4.466  1.00  0.00    -0.273 OA
HETATM   14  H   UNL     1      44.073 -15.839   6.611  1.00  0.00     0.169 HD
BRANCH  12  15
HETATM   15  C   UNL     1      42.803 -15.946   4.433  1.00  0.00     0.087 A 
HETATM   16  C   UNL     1      43.516 -16.574   3.244  1.00  0.00     0.032 A 
HETATM   17  C   UNL     1      42.112 -16.031   3.099  1.00  0.00     0.025 A 
BRANCH  16  18
HETATM   18  C   UNL     1      43.763 -18.062   3.216  1.00  0.00    -0.053 A 
HETATM   19  C   UNL     1      43.466 -18.828   2.076  1.00  0.00     0.009 A 
HETATM   20  C   UNL     1      43.721 -20.202   2.034  1.00  0.00     0.024 A 
HETATM   21  C   UNL     1      44.286 -20.833   3.138  1.00  0.00     0.034 A 
HETATM   22  C   UNL     1      44.597 -20.101   4.279  1.00  0.00     0.024 A 
HETATM   23 CL   UNL     1      44.605 -22.522   3.089  1.00  0.00    -0.084 Cl
HETATM   24  C   UNL     1      44.341 -18.727   4.312  1.00  0.00     0.009 A 
ENDBRANCH  16  18
ENDBRANCH  12  15
ENDBRANCH   1  11
BRANCH   8  25
HETATM   25  C   UNL     1      43.209 -11.553  10.895  1.00  0.00     0.270 C 
HETATM   26  N   UNL     1      43.267 -12.304  12.038  1.00  0.00    -0.365 N 
HETATM   27  H   UNL     1      44.123 -12.805  12.246  1.00  0.00     0.159 HD
HETATM   28  H   UNL     1      42.468 -12.346  12.649  1.00  0.00     0.159 HD
HETATM   29  O   UNL     1      42.197 -10.927  10.600  1.00  0.00    -0.266 OA
ENDBRANCH   8  25
TORSDOF 4
ENDMDL
MODEL 5
REMARK VINA RESULT:      -8.2      7.452     10.374
REMARK  4 active torsions:
REMARK  status: ('A' for Active; 'I' for Inactive)
REMARK    1  A    between atoms: C_2  and  C_3 
REMARK    2  A    between atoms: C_4  and  C_5 
REMARK       I    between atoms: C_5  and  N_6 
REMARK    3  A    between atoms: N_6  and  C_7 
REMARK    4  A    between atoms: C_14  and  C_15 
REMARK       I    between atoms: C_15  and  N_16 
ROOT
HETATM    1  C   UNL     1      41.298 -14.978  -0.860  1.00  0.00     0.035 A 
HETATM    2  C   UNL     1      40.308 -15.192  -1.829  1.00  0.00     0.046 A 
HETATM    3  C   UNL     1      39.676 -14.082  -2.437  1.00  0.00     0.030 A 
HETATM    4  C   UNL     1      40.058 -12.802  -2.056  1.00  0.00     0.063 A 
HETATM    5  N   UNL     1      39.281 -11.957  -2.797  1.00  0.00    -0.277 N 
HETATM    6  H   UNL     1      39.286 -10.943  -2.778  1.00  0.00     0.189 HD
HETATM    7  N   UNL     1      38.428 -12.571  -3.631  1.00  0.00    -0.168 NA
HETATM    8  C   UNL     1      38.661 -13.887  -3.422  1.00  0.00     0.156 A 
HETATM    9  C   UNL     1      41.043 -12.552  -1.100  1.00  0.00     0.034 A 
HETATM   10  C   UNL     1      41.654 -13.667  -0.514  1.00  0.00     0.032 A 
ENDROOT
BRANCH   1  11
HETATM   11  N   UNL     1      41.975 -16.015  -0.183  1.00  0.00    -0.327 N 
HETATM   12  C   UNL     1      41.563 -16.700   0.940  1.00  0.00     0.227 C 
HETATM   13  O   UNL     1      40.518 -16.542   1.554  1.00  0.00    -0.273 OA
HETATM   14  H   UNL     1      42.884 -16.250  -0.548  1.00  0.00     0.169 HD
BRANCH  12  15
HETATM   15  C   UNL     1      42.519 -17.722   1.469  1.00  0.00     0.087 A 
HETATM   16  C   UNL     1      43.437 -17.338   2.621  1.00  0.00     0.032 A 
HETATM   17  C   UNL     1      44.012 -17.729   1.279  1.00  0.00     0.025 A 
BRANCH  16  18
HETATM   18  C   UNL     1      43.579 -18.258   3.808  1.00  0.00    -0.053 A 
HETATM   19  C   UNL     1      42.903 -18.001   5.013  1.00  0.00     0.009 A 
HETATM   20  C   UNL     1      43.007 -18.866   6.106  1.00  0.00     0.024 A 
HETATM   21  C   UNL     1      43.791 -20.012   6.007  1.00  0.00     0.034 A 
HETATM   22  C   UNL     1      44.467 -20.297   4.826  1.00  0.00     0.024 A 
HETATM   23 CL   UNL     1      43.918 -21.081   7.348  1.00  0.00    -0.084 Cl
HETATM   24  C   UNL     1      44.356 -19.428   3.736  1.00  0.00     0.009 A 
ENDBRANCH  16  18
ENDBRANCH  12  15
ENDBRANCH   1  11
BRANCH   8  25
HETATM   25  C   UNL     1      37.917 -14.917  -4.160  1.00  0.00     0.270 C 
HETATM   26  N   UNL     1      36.684 -14.510  -4.594  1.00  0.00    -0.365 N 
HETATM   27  H   UNL     1      36.384 -13.565  -4.386  1.00  0.00     0.159 HD
HETATM   28  H   UNL     1      36.101 -15.148  -5.112  1.00  0.00     0.159 HD
HETATM   29  O   UNL     1      38.327 -16.049  -4.389  1.00  0.00    -0.266 OA
ENDBRANCH   8  25
TORSDOF 4
ENDMDL
MODEL 6
REMARK VINA RESULT:      -7.8      7.360      9.800
REMARK  4 active torsions:
REMARK  status: ('A' for Active; 'I' for Inactive)
REMARK    1  A    between atoms: C_2  and  C_3 
REMARK    2  A    between atoms: C_4  and  C_5 
REMARK       I    between atoms: C_5  and  N_6 
REMARK    3  A    between atoms: N_6  and  C_7 
REMARK    4  A    between atoms: C_14  and  C_15 
REMARK       I    between atoms: C_15  and  N_16 
ROOT
HETATM    1  C   UNL     1      42.786 -18.135   2.315  1.00  0.00     0.035 A 
HETATM    2  C   UNL     1      43.162 -18.180   3.664  1.00  0.00     0.046 A 
HETATM    3  C   UNL     1      43.849 -19.313   4.159  1.00  0.00     0.030 A 
HETATM    4  C   UNL     1      44.135 -20.356   3.288  1.00  0.00     0.063 A 
HETATM    5  N   UNL     1      44.785 -21.291   4.044  1.00  0.00    -0.277 N 
HETATM    6  H   UNL     1      45.141 -22.189   3.736  1.00  0.00     0.189 HD
HETATM    7  N   UNL     1      44.951 -20.950   5.331  1.00  0.00    -0.168 NA
HETATM    8  C   UNL     1      44.379 -19.727   5.419  1.00  0.00     0.156 A 
HETATM    9  C   UNL     1      43.782 -20.342   1.938  1.00  0.00     0.034 A 
HETATM   10  C   UNL     1      43.105 -19.209   1.473  1.00  0.00     0.032 A 
ENDROOT
BRANCH   1  11
HETATM   11  N   UNL     1      42.084 -17.060   1.728  1.00  0.00    -0.327 N 
HETATM   12  C   UNL     1      42.355 -15.713   1.840  1.00  0.00     0.227 C 
HETATM   13  O   UNL     1      43.272 -15.198   2.462  1.00  0.00    -0.273 OA
HETATM   14  H   UNL     1      41.265 -17.314   1.199  1.00  0.00     0.169 HD
BRANCH  12  15
HETATM   15  C   UNL     1      41.401 -14.795   1.144  1.00  0.00     0.087 A 
HETATM   16  C   UNL     1      41.654 -14.446  -0.316  1.00  0.00     0.032 A 
HETATM   17  C   UNL     1      41.665 -13.368   0.745  1.00  0.00     0.025 A 
BRANCH  16  18
HETATM   18  C   UNL     1      40.525 -14.521  -1.314  1.00  0.00    -0.053 A 
HETATM   19  C   UNL     1      40.643 -15.282  -2.489  1.00  0.00     0.009 A 
HETATM   20  C   UNL     1      39.589 -15.379  -3.403  1.00  0.00     0.024 A 
HETATM   21  C   UNL     1      38.392 -14.715  -3.150  1.00  0.00     0.034 A 
HETATM   22  C   UNL     1      38.243 -13.960  -1.992  1.00  0.00     0.024 A 
HETATM   23 CL   UNL     1      37.093 -14.836  -4.269  1.00  0.00    -0.084 Cl
HETATM   24  C   UNL     1      39.301 -13.869  -1.082  1.00  0.00     0.009 A 
ENDBRANCH  16  18
ENDBRANCH  12  15
ENDBRANCH   1  11
BRANCH   8  25
HETATM   25  C   UNL     1      44.352 -18.991   6.690  1.00  0.00     0.270 C 
HETATM   26  N   UNL     1      45.164 -17.889   6.714  1.00  0.00    -0.365 N 
HETATM   27  H   UNL     1      45.705 -17.667   5.885  1.00  0.00     0.159 HD
HETATM   28  H   UNL     1      45.210 -17.320   7.543  1.00  0.00     0.159 HD
HETATM   29  O   UNL     1      43.676 -19.300   7.665  1.00  0.00    -0.266 OA
ENDBRANCH   8  25
TORSDOF 4
ENDMDL
MODEL 7
REMARK VINA RESULT:      -7.8      7.199      9.351
REMARK  4 active torsions:
REMARK  status: ('A' for Active; 'I' for Inactive)
REMARK    1  A    between atoms: C_2  and  C_3 
REMARK    2  A    between atoms: C_4  and  C_5 
REMARK       I    between atoms: C_5  and  N_6 
REMARK    3  A    between atoms: N_6  and  C_7 
REMARK    4  A    between atoms: C_14  and  C_15 
REMARK       I    between atoms: C_15  and  N_16 
ROOT
HETATM    1  C   UNL     1      43.491 -17.621   2.562  1.00  0.00     0.035 A 
HETATM    2  C   UNL     1      43.791 -18.989   2.516  1.00  0.00     0.046 A 
HETATM    3  C   UNL     1      44.101 -19.676   3.712  1.00  0.00     0.030 A 
HETATM    4  C   UNL     1      44.097 -18.971   4.909  1.00  0.00     0.063 A 
HETATM    5  N   UNL     1      44.434 -19.884   5.869  1.00  0.00    -0.277 N 
HETATM    6  H   UNL     1      44.531 -19.720   6.865  1.00  0.00     0.189 HD
HETATM    7  N   UNL     1      44.655 -21.124   5.405  1.00  0.00    -0.168 NA
HETATM    8  C   UNL     1      44.451 -21.013   4.072  1.00  0.00     0.156 A 
HETATM    9  C   UNL     1      43.796 -17.611   4.993  1.00  0.00     0.034 A 
HETATM   10  C   UNL     1      43.492 -16.955   3.795  1.00  0.00     0.032 A 
ENDROOT
BRANCH   1  11
HETATM   11  N   UNL     1      43.186 -16.843   1.424  1.00  0.00    -0.327 N 
HETATM   12  C   UNL     1      42.005 -16.812   0.713  1.00  0.00     0.227 C 
HETATM   13  O   UNL     1      40.990 -17.449   0.949  1.00  0.00    -0.273 OA
HETATM   14  H   UNL     1      43.941 -16.274   1.073  1.00  0.00     0.169 HD
BRANCH  12  15
HETATM   15  C   UNL     1      41.990 -15.921  -0.489  1.00  0.00     0.087 A 
HETATM   16  C   UNL     1      41.141 -14.659  -0.453  1.00  0.00     0.032 A 
HETATM   17  C   UNL     1      40.852 -15.750  -1.459  1.00  0.00     0.025 A 
BRANCH  16  18
HETATM   18  C   UNL     1      41.728 -13.344  -0.904  1.00  0.00    -0.053 A 
HETATM   19  C   UNL     1      42.011 -13.101  -2.259  1.00  0.00     0.009 A 
HETATM   20  C   UNL     1      42.528 -11.873  -2.686  1.00  0.00     0.024 A 
HETATM   21  C   UNL     1      42.765 -10.864  -1.758  1.00  0.00     0.034 A 
HETATM   22  C   UNL     1      42.490 -11.073  -0.411  1.00  0.00     0.024 A 
HETATM   23 CL   UNL     1      43.396  -9.352  -2.280  1.00  0.00    -0.084 Cl
HETATM   24  C   UNL     1      41.971 -12.302   0.008  1.00  0.00     0.009 A 
ENDBRANCH  16  18
ENDBRANCH  12  15
ENDBRANCH   1  11
BRANCH   8  25
HETATM   25  C   UNL     1      44.594 -22.173   3.183  1.00  0.00     0.270 C 
HETATM   26  N   UNL     1      44.910 -23.337   3.831  1.00  0.00    -0.365 N 
HETATM   27  H   UNL     1      45.017 -23.317   4.838  1.00  0.00     0.159 HD
HETATM   28  H   UNL     1      45.026 -24.187   3.303  1.00  0.00     0.159 HD
HETATM   29  O   UNL     1      44.450 -22.145   1.965  1.00  0.00    -0.266 OA
ENDBRANCH   8  25
TORSDOF 4
ENDMDL
MODEL 8
REMARK VINA RESULT:      -7.7      4.799      9.411
REMARK  4 active torsions:
REMARK  status: ('A' for Active; 'I' for Inactive)
REMARK    1  A    between atoms: C_2  and  C_3 
REMARK    2  A    between atoms: C_4  and  C_5 
REMARK       I    between atoms: C_5  and  N_6 
REMARK    3  A    between atoms: N_6  and  C_7 
REMARK    4  A    between atoms: C_14  and  C_15 
REMARK       I    between atoms: C_15  and  N_16 
ROOT
HETATM    1  C   UNL     1      41.216 -12.403   5.441  1.00  0.00     0.035 A 
HETATM    2  C   UNL     1      41.980 -12.147   6.588  1.00  0.00     0.046 A 
HETATM    3  C   UNL     1      41.640 -11.058   7.423  1.00  0.00     0.030 A 
HETATM    4  C   UNL     1      40.550 -10.267   7.083  1.00  0.00     0.063 A 
HETATM    5  N   UNL     1      40.478  -9.311   8.057  1.00  0.00    -0.277 N 
HETATM    6  H   UNL     1      39.801  -8.559   8.130  1.00  0.00     0.189 HD
HETATM    7  N   UNL     1      41.421  -9.410   9.006  1.00  0.00    -0.168 NA
HETATM    8  C   UNL     1      42.148 -10.487   8.629  1.00  0.00     0.156 A 
HETATM    9  C   UNL     1      39.764 -10.497   5.953  1.00  0.00     0.034 A 
HETATM   10  C   UNL     1      40.120 -11.581   5.143  1.00  0.00     0.032 A 
ENDROOT
BRANCH   1  11
HETATM   11  N   UNL     1      41.483 -13.452   4.535  1.00  0.00    -0.327 N 
HETATM   12  C   UNL     1      41.405 -14.809   4.767  1.00  0.00     0.227 C 
HETATM   13  O   UNL     1      41.073 -15.358   5.807  1.00  0.00    -0.273 OA
HETATM   14  H   UNL     1      41.806 -13.167   3.624  1.00  0.00     0.169 HD
BRANCH  12  15
HETATM   15  C   UNL     1      41.799 -15.690   3.624  1.00  0.00     0.087 A 
HETATM   16  C   UNL     1      43.237 -16.182   3.542  1.00  0.00     0.032 A 
HETATM   17  C   UNL     1      42.664 -15.301   2.455  1.00  0.00     0.025 A 
BRANCH  16  18
HETATM   18  C   UNL     1      43.519 -17.639   3.272  1.00  0.00    -0.053 A 
HETATM   19  C   UNL     1      43.286 -18.203   2.006  1.00  0.00     0.009 A 
HETATM   20  C   UNL     1      43.572 -19.546   1.742  1.00  0.00     0.024 A 
HETATM   21  C   UNL     1      44.106 -20.348   2.746  1.00  0.00     0.034 A 
HETATM   22  C   UNL     1      44.354 -19.818   4.007  1.00  0.00     0.024 A 
HETATM   23 CL   UNL     1      44.464 -21.999   2.423  1.00  0.00    -0.084 Cl
HETATM   24  C   UNL     1      44.066 -18.473   4.263  1.00  0.00     0.009 A 
ENDBRANCH  16  18
ENDBRANCH  12  15
ENDBRANCH   1  11
BRANCH   8  25
HETATM   25  C   UNL     1      43.299 -10.941   9.422  1.00  0.00     0.270 C 
HETATM   26  N   UNL     1      42.966 -11.734  10.486  1.00  0.00    -0.365 N 
HETATM   27  H   UNL     1      41.987 -11.946  10.646  1.00  0.00     0.159 HD
HETATM   28  H   UNL     1      43.689 -12.095  11.086  1.00  0.00     0.159 HD
HETATM   29  O   UNL     1      44.469 -10.659   9.184  1.00  0.00    -0.266 OA
ENDBRANCH   8  25
TORSDOF 4
ENDMDL
MODEL 9
REMARK VINA RESULT:      -7.6      7.243     10.564
REMARK  4 active torsions:
REMARK  status: ('A' for Active; 'I' for Inactive)
REMARK    1  A    between atoms: C_2  and  C_3 
REMARK    2  A    between atoms: C_4  and  C_5 
REMARK       I    between atoms: C_5  and  N_6 
REMARK    3  A    between atoms: N_6  and  C_7 
REMARK    4  A    between atoms: C_14  and  C_15 
REMARK       I    between atoms: C_15  and  N_16 
ROOT
HETATM    1  C   UNL     1      41.620 -14.257  -0.326  1.00  0.00     0.035 A 
HETATM    2  C   UNL     1      40.654 -14.749  -1.215  1.00  0.00     0.046 A 
HETATM    3  C   UNL     1      40.012 -13.861  -2.108  1.00  0.00     0.030 A 
HETATM    4  C   UNL     1      40.360 -12.517  -2.082  1.00  0.00     0.063 A 
HETATM    5  N   UNL     1      39.581 -11.922  -3.035  1.00  0.00    -0.277 N 
HETATM    6  H   UNL     1      39.566 -10.941  -3.290  1.00  0.00     0.189 HD
HETATM    7  N   UNL     1      38.757 -12.760  -3.684  1.00  0.00    -0.168 NA
HETATM    8  C   UNL     1      39.013 -13.964  -3.123  1.00  0.00     0.156 A 
HETATM    9  C   UNL     1      41.321 -11.994  -1.216  1.00  0.00     0.034 A 
HETATM   10  C   UNL     1      41.943 -12.894  -0.342  1.00  0.00     0.032 A 
ENDROOT
BRANCH   1  11
HETATM   11  N   UNL     1      42.304 -15.057   0.615  1.00  0.00    -0.327 N 
HETATM   12  C   UNL     1      42.358 -14.892   1.983  1.00  0.00     0.227 C 
HETATM   13  O   UNL     1      41.805 -14.023   2.639  1.00  0.00    -0.273 OA
HETATM   14  H   UNL     1      42.847 -15.813   0.229  1.00  0.00     0.169 HD
BRANCH  12  15
HETATM   15  C   UNL     1      43.210 -15.873   2.725  1.00  0.00     0.087 A 
HETATM   16  C   UNL     1      42.543 -17.077   3.374  1.00  0.00     0.032 A 
HETATM   17  C   UNL     1      43.267 -16.054   4.218  1.00  0.00     0.025 A 
BRANCH  16  18
HETATM   18  C   UNL     1      43.126 -18.455   3.180  1.00  0.00    -0.053 A 
HETATM   19  C   UNL     1      42.837 -19.212   2.031  1.00  0.00     0.009 A 
HETATM   20  C   UNL     1      43.399 -20.477   1.832  1.00  0.00     0.024 A 
HETATM   21  C   UNL     1      44.268 -21.004   2.783  1.00  0.00     0.034 A 
HETATM   22  C   UNL     1      44.578 -20.277   3.927  1.00  0.00     0.024 A 
HETATM   23 CL   UNL     1      44.963 -22.557   2.539  1.00  0.00    -0.084 Cl
HETATM   24  C   UNL     1      44.014 -19.011   4.118  1.00  0.00     0.009 A 
ENDBRANCH  16  18
ENDBRANCH  12  15
ENDBRANCH   1  11
BRANCH   8  25
HETATM   25  C   UNL     1      38.304 -15.173  -3.566  1.00  0.00     0.270 C 
HETATM   26  N   UNL     1      39.093 -16.067  -4.239  1.00  0.00    -0.365 N 
HETATM   27  H   UNL     1      40.071 -15.841  -4.379  1.00  0.00     0.159 HD
HETATM   28  H   UNL     1      38.694 -16.927  -4.579  1.00  0.00     0.159 HD
HETATM   29  O   UNL     1      37.116 -15.400  -3.369  1.00  0.00    -0.266 OA
ENDBRANCH   8  25
TORSDOF 4
ENDMDL
MODEL 10
REMARK VINA RESULT:      -7.5      4.762      9.112
REMARK  4 active torsions:
REMARK  status: ('A' for Active; 'I' for Inactive)
REMARK    1  A    between atoms: C_2  and  C_3 
REMARK    2  A    between atoms: C_4  and  C_5 
REMARK       I    between atoms: C_5  and  N_6 
REMARK    3  A    between atoms: N_6  and  C_7 
REMARK    4  A    between atoms: C_14  and  C_15 
REMARK       I    between atoms: C_15  and  N_16 
ROOT
HETATM    1  C   UNL     1      42.620 -13.857   5.205  1.00  0.00     0.035 A 
HETATM    2  C   UNL     1      42.443 -13.026   6.320  1.00  0.00     0.046 A 
HETATM    3  C   UNL     1      41.805 -11.774   6.163  1.00  0.00     0.030 A 
HETATM    4  C   UNL     1      41.365 -11.401   4.900  1.00  0.00     0.063 A 
HETATM    5  N   UNL     1      40.807 -10.164   5.062  1.00  0.00    -0.277 N 
HETATM    6  H   UNL     1      40.383  -9.583   4.346  1.00  0.00     0.189 HD
HETATM    7  N   UNL     1      40.839  -9.698   6.320  1.00  0.00    -0.168 NA
HETATM    8  C   UNL     1      41.452 -10.684   7.015  1.00  0.00     0.156 A 
HETATM    9  C   UNL     1      41.518 -12.205   3.770  1.00  0.00     0.034 A 
HETATM   10  C   UNL     1      42.152 -13.439   3.952  1.00  0.00     0.032 A 
ENDROOT
BRANCH   1  11
HETATM   11  N   UNL     1      43.260 -15.114   5.253  1.00  0.00    -0.327 N 
HETATM   12  C   UNL     1      43.952 -15.670   6.308  1.00  0.00     0.227 C 
HETATM   13  O   UNL     1      44.129 -15.176   7.411  1.00  0.00    -0.273 OA
HETATM   14  H   UNL     1      43.237 -15.646   4.397  1.00  0.00     0.169 HD
BRANCH  12  15
HETATM   15  C   UNL     1      44.572 -17.007   6.050  1.00  0.00     0.087 A 
HETATM   16  C   UNL     1      43.662 -18.217   5.894  1.00  0.00     0.032 A 
HETATM   17  C   UNL     1      44.664 -18.150   7.024  1.00  0.00     0.025 A 
BRANCH  16  18
HETATM   18  C   UNL     1      43.872 -19.172   4.745  1.00  0.00    -0.053 A 
HETATM   19  C   UNL     1      44.576 -20.376   4.920  1.00  0.00     0.009 A 
HETATM   20  C   UNL     1      44.748 -21.279   3.866  1.00  0.00     0.024 A 
HETATM   21  C   UNL     1      44.210 -20.991   2.615  1.00  0.00     0.034 A 
HETATM   22  C   UNL     1      43.502 -19.811   2.413  1.00  0.00     0.024 A 
HETATM   23 CL   UNL     1      44.415 -22.101   1.319  1.00  0.00    -0.084 Cl
HETATM   24  C   UNL     1      43.333 -18.914   3.473  1.00  0.00     0.009 A 
ENDBRANCH  16  18
ENDBRANCH  12  15
ENDBRANCH   1  11
BRANCH   8  25
HETATM   25  C   UNL     1      41.685 -10.562   8.460  1.00  0.00     0.270 C 
HETATM   26  N   UNL     1      40.680 -11.080   9.232  1.00  0.00    -0.365 N 
HETATM   27  H   UNL     1      39.879 -11.495   8.771  1.00  0.00     0.159 HD
HETATM   28  H   UNL     1      40.752 -11.043  10.236  1.00  0.00     0.159 HD
HETATM   29  O   UNL     1      42.676 -10.051   8.970  1.00  0.00    -0.266 OA
ENDBRANCH   8  25
TORSDOF 4
ENDMDL
