MODEL 1
REMARK VINA RESULT:      -9.1      0.000      0.000
REMARK  9 active torsions:
REMARK  status: ('A' for Active; 'I' for Inactive)
REMARK    1  A    between atoms: C_2  and  O_3 
REMARK    2  A    between atoms: O_3  and  C_4 
REMARK    3  A    between atoms: C_5  and  C_6 
REMARK    4  A    between atoms: C_7  and  C_8 
REMARK       I    between atoms: C_8  and  N_9 
REMARK    5  A    between atoms: N_9  and  C_10 
REMARK    6  A    between atoms: C_20  and  S_21 
REMARK    7  A    between atoms: S_21  and  C_22 
REMARK    8  A    between atoms: C_22  and  C_23 
REMARK       I    between atoms: C_23  and  N_24 
REMARK    9  A    between atoms: N_24  and  C_25 
ROOT
HETATM    1  C   UNL     1      41.488 -14.111  -0.701  1.00  0.00     0.107 A 
HETATM    2  C   UNL     1      41.889 -12.645  -0.868  1.00  0.00     0.046 A 
HETATM    3  C   UNL     1      41.990 -11.828   0.206  1.00  0.00     0.019 A 
HETATM    4  C   UNL     1      42.540 -10.424   0.188  1.00  0.00     0.069 C 
HETATM    5  N   UNL     1      41.621 -12.290   1.457  1.00  0.00    -0.353 N 
HETATM    6  C   UNL     1      41.167 -13.566   1.747  1.00  0.00     0.087 A 
HETATM    7  C   UNL     1      41.140 -14.484   0.743  1.00  0.00     0.055 A 
HETATM    8  C   UNL     1      40.802 -15.941   1.020  1.00  0.00     0.019 C 
HETATM    9  N   UNL     1      40.521 -17.148   1.249  1.00  0.00    -0.096 N 
HETATM   10  H   UNL     1      41.481 -11.568   2.161  1.00  0.00     0.166 HD
ENDROOT
BRANCH   1  11
HETATM   11  C   UNL     1      40.409 -14.549  -1.702  1.00  0.00    -0.011 A 
HETATM   12  C   UNL     1      39.122 -13.979  -1.750  1.00  0.00     0.076 A 
HETATM   13  C   UNL     1      38.204 -14.414  -2.714  1.00  0.00     0.037 A 
HETATM   14  C   UNL     1      38.547 -15.420  -3.620  1.00  0.00     0.003 A 
HETATM   15  C   UNL     1      39.809 -15.993  -3.579  1.00  0.00     0.001 A 
HETATM   16  C   UNL     1      40.733 -15.560  -2.630  1.00  0.00     0.011 A 
BRANCH  12  17
HETATM   17  O   UNL     1      38.863 -12.985  -0.847  1.00  0.00    -0.351 OA
BRANCH  17  18
HETATM   18  C   UNL     1      37.594 -12.974  -0.194  1.00  0.00     0.171 C 
HETATM   19  C   UNL     1      37.487 -14.079   0.845  1.00  0.00     0.034 C 
ENDBRANCH  17  18
ENDBRANCH  12  17
ENDBRANCH   1  11
BRANCH   6  20
HETATM   20  S   UNL     1      40.649 -14.059   3.364  1.00  0.00    -0.102 SA
BRANCH  20  21
HETATM   21  C   UNL     1      42.155 -14.577   4.219  1.00  0.00     0.184 C 
BRANCH  21  22
HETATM   22  C   UNL     1      42.290 -16.088   4.261  1.00  0.00     0.231 C 
HETATM   23  N   UNL     1      43.431 -16.562   3.642  1.00  0.00    -0.327 N 
HETATM   24  H   UNL     1      44.033 -15.867   3.213  1.00  0.00     0.169 HD
HETATM   25  O   UNL     1      41.406 -16.756   4.801  1.00  0.00    -0.272 OA
BRANCH  23  26
HETATM   26  C   UNL     1      43.779 -17.908   3.396  1.00  0.00     0.034 A 
HETATM   27  C   UNL     1      44.265 -18.778   4.371  1.00  0.00     0.030 A 
HETATM   28  C   UNL     1      44.486 -20.130   4.073  1.00  0.00     0.009 A 
HETATM   29  C   UNL     1      44.231 -20.628   2.793  1.00  0.00    -0.062 A 
HETATM   30  C   UNL     1      44.427 -22.081   2.474  1.00  0.00     0.048 C 
HETATM   31  C   UNL     1      43.783 -19.747   1.804  1.00  0.00     0.009 A 
HETATM   32  C   UNL     1      43.562 -18.398   2.103  1.00  0.00     0.030 A 
ENDBRANCH  23  26
ENDBRANCH  21  22
ENDBRANCH  20  21
ENDBRANCH   6  20
BRANCH   2  33
HETATM   33  C   UNL     1      42.211 -12.228  -2.264  1.00  0.00     0.255 C 
HETATM   34  N   UNL     1      41.421 -11.194  -2.722  1.00  0.00    -0.323 N 
HETATM   35  H   UNL     1      40.814 -10.739  -2.052  1.00  0.00     0.169 HD
HETATM   36  O   UNL     1      43.091 -12.812  -2.883  1.00  0.00    -0.268 OA
BRANCH  34  37
HETATM   37  C   UNL     1      41.396 -10.664  -4.025  1.00  0.00     0.035 A 
HETATM   38  C   UNL     1      40.311 -10.817  -4.888  1.00  0.00     0.029 A 
HETATM   39  C   UNL     1      40.328 -10.217  -6.150  1.00  0.00     0.002 A 
HETATM   40  C   UNL     1      41.441  -9.488  -6.567  1.00  0.00     0.000 A 
HETATM   41  C   UNL     1      42.533  -9.343  -5.714  1.00  0.00     0.002 A 
HETATM   42  C   UNL     1      42.502  -9.912  -4.440  1.00  0.00     0.029 A 
ENDBRANCH  34  37
ENDBRANCH   2  33
TORSDOF 9
ENDMDL
MODEL 2
REMARK VINA RESULT:      -9.0      5.067      9.071
REMARK  9 active torsions:
REMARK  status: ('A' for Active; 'I' for Inactive)
REMARK    1  A    between atoms: C_2  and  O_3 
REMARK    2  A    between atoms: O_3  and  C_4 
REMARK    3  A    between atoms: C_5  and  C_6 
REMARK    4  A    between atoms: C_7  and  C_8 
REMARK       I    between atoms: C_8  and  N_9 
REMARK    5  A    between atoms: N_9  and  C_10 
REMARK    6  A    between atoms: C_20  and  S_21 
REMARK    7  A    between atoms: S_21  and  C_22 
REMARK    8  A    between atoms: C_22  and  C_23 
REMARK       I    between atoms: C_23  and  N_24 
REMARK    9  A    between atoms: N_24  and  C_25 
ROOT
HETATM    1  C   UNL     1      41.276 -13.914   3.739  1.00  0.00     0.107 A 
HETATM    2  C   UNL     1      42.536 -14.535   4.342  1.00  0.00     0.046 A 
HETATM    3  C   UNL     1      43.018 -14.107   5.532  1.00  0.00     0.019 A 
HETATM    4  C   UNL     1      44.141 -14.752   6.304  1.00  0.00     0.069 C 
HETATM    5  N   UNL     1      42.431 -13.022   6.160  1.00  0.00    -0.353 N 
HETATM    6  C   UNL     1      41.335 -12.314   5.695  1.00  0.00     0.087 A 
HETATM    7  C   UNL     1      40.721 -12.747   4.561  1.00  0.00     0.055 A 
HETATM    8  C   UNL     1      39.424 -12.115   4.078  1.00  0.00     0.019 C 
HETATM    9  N   UNL     1      38.350 -11.590   3.678  1.00  0.00    -0.096 N 
HETATM   10  H   UNL     1      42.984 -12.601   6.903  1.00  0.00     0.166 HD
ENDROOT
BRANCH   1  11
HETATM   11  C   UNL     1      41.439 -13.566   2.252  1.00  0.00    -0.011 A 
HETATM   12  C   UNL     1      40.867 -14.326   1.213  1.00  0.00     0.076 A 
HETATM   13  C   UNL     1      41.039 -13.923  -0.117  1.00  0.00     0.037 A 
HETATM   14  C   UNL     1      41.786 -12.785  -0.426  1.00  0.00     0.003 A 
HETATM   15  C   UNL     1      42.358 -12.032   0.588  1.00  0.00     0.001 A 
HETATM   16  C   UNL     1      42.186 -12.417   1.916  1.00  0.00     0.011 A 
BRANCH  12  17
HETATM   17  O   UNL     1      40.133 -15.416   1.590  1.00  0.00    -0.351 OA
BRANCH  17  18
HETATM   18  C   UNL     1      38.770 -15.220   1.965  1.00  0.00     0.171 C 
HETATM   19  C   UNL     1      38.050 -14.289   1.003  1.00  0.00     0.034 C 
ENDBRANCH  17  18
ENDBRANCH  12  17
ENDBRANCH   1  11
BRANCH   6  20
HETATM   20  S   UNL     1      40.686 -10.893   6.524  1.00  0.00    -0.102 SA
BRANCH  20  21
HETATM   21  C   UNL     1      39.625 -11.540   7.837  1.00  0.00     0.184 C 
BRANCH  21  22
HETATM   22  C   UNL     1      39.869 -10.837   9.160  1.00  0.00     0.231 C 
HETATM   23  N   UNL     1      41.099 -11.123   9.722  1.00  0.00    -0.327 N 
HETATM   24  H   UNL     1      41.686 -11.776   9.214  1.00  0.00     0.169 HD
HETATM   25  O   UNL     1      38.989 -10.113   9.627  1.00  0.00    -0.272 OA
BRANCH  23  26
HETATM   26  C   UNL     1      41.571 -10.738  10.996  1.00  0.00     0.034 A 
HETATM   27  C   UNL     1      42.587  -9.805  11.203  1.00  0.00     0.030 A 
HETATM   28  C   UNL     1      42.924  -9.397  12.500  1.00  0.00     0.009 A 
HETATM   29  C   UNL     1      42.257  -9.922  13.610  1.00  0.00    -0.062 A 
HETATM   30  C   UNL     1      42.584  -9.463  15.000  1.00  0.00     0.048 C 
HETATM   31  C   UNL     1      41.267 -10.889  13.404  1.00  0.00     0.009 A 
HETATM   32  C   UNL     1      40.930 -11.295  12.109  1.00  0.00     0.030 A 
ENDBRANCH  23  26
ENDBRANCH  21  22
ENDBRANCH  20  21
ENDBRANCH   6  20
BRANCH   2  33
HETATM   33  C   UNL     1      43.129 -15.660   3.560  1.00  0.00     0.255 C 
HETATM   34  N   UNL     1      42.675 -16.901   3.959  1.00  0.00    -0.323 N 
HETATM   35  H   UNL     1      41.912 -16.927   4.623  1.00  0.00     0.169 HD
HETATM   36  O   UNL     1      43.947 -15.422   2.682  1.00  0.00    -0.268 OA
BRANCH  34  37
HETATM   37  C   UNL     1      43.132 -18.151   3.505  1.00  0.00     0.035 A 
HETATM   38  C   UNL     1      42.755 -18.700   2.279  1.00  0.00     0.029 A 
HETATM   39  C   UNL     1      43.289 -19.921   1.862  1.00  0.00     0.002 A 
HETATM   40  C   UNL     1      44.179 -20.616   2.681  1.00  0.00     0.000 A 
HETATM   41  C   UNL     1      44.548 -20.079   3.912  1.00  0.00     0.002 A 
HETATM   42  C   UNL     1      44.043 -18.842   4.314  1.00  0.00     0.029 A 
ENDBRANCH  34  37
ENDBRANCH   2  33
TORSDOF 9
ENDMDL
MODEL 3
REMARK VINA RESULT:      -8.8      4.721      9.314
REMARK  9 active torsions:
REMARK  status: ('A' for Active; 'I' for Inactive)
REMARK    1  A    between atoms: C_2  and  O_3 
REMARK    2  A    between atoms: O_3  and  C_4 
REMARK    3  A    between atoms: C_5  and  C_6 
REMARK    4  A    between atoms: C_7  and  C_8 
REMARK       I    between atoms: C_8  and  N_9 
REMARK    5  A    between atoms: N_9  and  C_10 
REMARK    6  A    between atoms: C_20  and  S_21 
REMARK    7  A    between atoms: S_21  and  C_22 
REMARK    8  A    between atoms: C_22  and  C_23 
REMARK       I    between atoms: C_23  and  N_24 
REMARK    9  A    between atoms: N_24  and  C_25 
ROOT
HETATM    1  C   UNL     1      41.130 -15.270   4.370  1.00  0.00     0.107 A 
HETATM    2  C   UNL     1      42.297 -15.787   5.211  1.00  0.00     0.046 A 
HETATM    3  C   UNL     1      42.974 -14.959   6.039  1.00  0.00     0.019 A 
HETATM    4  C   UNL     1      44.020 -15.384   7.039  1.00  0.00     0.069 C 
HETATM    5  N   UNL     1      42.682 -13.606   6.046  1.00  0.00    -0.353 N 
HETATM    6  C   UNL     1      41.707 -12.985   5.283  1.00  0.00     0.087 A 
HETATM    7  C   UNL     1      40.905 -13.761   4.505  1.00  0.00     0.055 A 
HETATM    8  C   UNL     1      39.718 -13.168   3.763  1.00  0.00     0.019 C 
HETATM    9  N   UNL     1      38.734 -12.677   3.147  1.00  0.00    -0.096 N 
HETATM   10  H   UNL     1      43.381 -13.014   6.490  1.00  0.00     0.166 HD
ENDROOT
BRANCH   1  11
HETATM   11  C   UNL     1      41.205 -15.729   2.905  1.00  0.00    -0.011 A 
HETATM   12  C   UNL     1      41.991 -15.082   1.933  1.00  0.00     0.076 A 
HETATM   13  C   UNL     1      42.028 -15.582   0.625  1.00  0.00     0.037 A 
HETATM   14  C   UNL     1      41.280 -16.706   0.271  1.00  0.00     0.003 A 
HETATM   15  C   UNL     1      40.497 -17.348   1.219  1.00  0.00     0.001 A 
HETATM   16  C   UNL     1      40.461 -16.865   2.525  1.00  0.00     0.011 A 
BRANCH  12  17
HETATM   17  O   UNL     1      42.714 -14.001   2.354  1.00  0.00    -0.351 OA
BRANCH  17  18
HETATM   18  C   UNL     1      42.591 -12.777   1.630  1.00  0.00     0.171 C 
HETATM   19  C   UNL     1      41.365 -12.776   0.732  1.00  0.00     0.034 C 
ENDBRANCH  17  18
ENDBRANCH  12  17
ENDBRANCH   1  11
BRANCH   6  20
HETATM   20  S   UNL     1      41.441 -11.236   5.299  1.00  0.00    -0.102 SA
BRANCH  20  21
HETATM   21  C   UNL     1      40.478 -10.905   6.792  1.00  0.00     0.184 C 
BRANCH  21  22
HETATM   22  C   UNL     1      41.336 -10.326   7.903  1.00  0.00     0.231 C 
HETATM   23  N   UNL     1      41.265 -11.036   9.087  1.00  0.00    -0.327 N 
HETATM   24  H   UNL     1      40.643 -11.838   9.096  1.00  0.00     0.169 HD
HETATM   25  O   UNL     1      41.987  -9.303   7.688  1.00  0.00    -0.272 OA
BRANCH  23  26
HETATM   26  C   UNL     1      41.833 -10.687  10.332  1.00  0.00     0.034 A 
HETATM   27  C   UNL     1      43.183 -10.843  10.645  1.00  0.00     0.030 A 
HETATM   28  C   UNL     1      43.689 -10.373  11.864  1.00  0.00     0.009 A 
HETATM   29  C   UNL     1      42.852  -9.747  12.791  1.00  0.00    -0.062 A 
HETATM   30  C   UNL     1      43.392  -9.206  14.081  1.00  0.00     0.048 C 
HETATM   31  C   UNL     1      41.490  -9.628  12.495  1.00  0.00     0.009 A 
HETATM   32  C   UNL     1      40.986 -10.097  11.277  1.00  0.00     0.030 A 
ENDBRANCH  23  26
ENDBRANCH  21  22
ENDBRANCH  20  21
ENDBRANCH   6  20
BRANCH   2  33
HETATM   33  C   UNL     1      42.571 -17.249   5.090  1.00  0.00     0.255 C 
HETATM   34  N   UNL     1      43.519 -17.550   4.133  1.00  0.00    -0.323 N 
HETATM   35  H   UNL     1      44.021 -16.777   3.715  1.00  0.00     0.169 HD
HETATM   36  O   UNL     1      41.957 -18.041   5.792  1.00  0.00    -0.268 OA
BRANCH  34  37
HETATM   37  C   UNL     1      43.903 -18.832   3.700  1.00  0.00     0.035 A 
HETATM   38  C   UNL     1      44.699 -19.687   4.464  1.00  0.00     0.029 A 
HETATM   39  C   UNL     1      44.997 -20.970   4.000  1.00  0.00     0.002 A 
HETATM   40  C   UNL     1      44.528 -21.395   2.758  1.00  0.00     0.000 A 
HETATM   41  C   UNL     1      43.745 -20.542   1.985  1.00  0.00     0.002 A 
HETATM   42  C   UNL     1      43.416 -19.272   2.463  1.00  0.00     0.029 A 
ENDBRANCH  34  37
ENDBRANCH   2  33
TORSDOF 9
ENDMDL
MODEL 4
REMARK VINA RESULT:      -8.8      2.872      4.426
REMARK  9 active torsions:
REMARK  status: ('A' for Active; 'I' for Inactive)
REMARK    1  A    between atoms: C_2  and  O_3 
REMARK    2  A    between atoms: O_3  and  C_4 
REMARK    3  A    between atoms: C_5  and  C_6 
REMARK    4  A    between atoms: C_7  and  C_8 
REMARK       I    between atoms: C_8  and  N_9 
REMARK    5  A    between atoms: N_9  and  C_10 
REMARK    6  A    between atoms: C_20  and  S_21 
REMARK    7  A    between atoms: S_21  and  C_22 
REMARK    8  A    between atoms: C_22  and  C_23 
REMARK       I    between atoms: C_23  and  N_24 
REMARK    9  A    between atoms: N_24  and  C_25 
ROOT
HETATM    1  C   UNL     1      39.891 -13.017   2.547  1.00  0.00     0.107 A 
HETATM    2  C   UNL     1      39.702 -14.327   1.783  1.00  0.00     0.046 A 
HETATM    3  C   UNL     1      40.413 -15.430   2.111  1.00  0.00     0.019 A 
HETATM    4  C   UNL     1      40.191 -16.813   1.551  1.00  0.00     0.069 C 
HETATM    5  N   UNL     1      41.402 -15.347   3.075  1.00  0.00    -0.353 N 
HETATM    6  C   UNL     1      41.738 -14.211   3.794  1.00  0.00     0.087 A 
HETATM    7  C   UNL     1      40.997 -13.085   3.605  1.00  0.00     0.055 A 
HETATM    8  C   UNL     1      41.208 -11.851   4.468  1.00  0.00     0.019 C 
HETATM    9  N   UNL     1      41.383 -10.828   5.183  1.00  0.00    -0.096 N 
HETATM   10  H   UNL     1      42.055 -16.127   3.093  1.00  0.00     0.166 HD
ENDROOT
BRANCH   1  11
HETATM   11  C   UNL     1      40.036 -11.802   1.617  1.00  0.00    -0.011 A 
HETATM   12  C   UNL     1      39.007 -10.867   1.402  1.00  0.00     0.076 A 
HETATM   13  C   UNL     1      39.230  -9.770   0.560  1.00  0.00     0.037 A 
HETATM   14  C   UNL     1      40.459  -9.602  -0.081  1.00  0.00     0.003 A 
HETATM   15  C   UNL     1      41.479 -10.520   0.120  1.00  0.00     0.001 A 
HETATM   16  C   UNL     1      41.271 -11.610   0.962  1.00  0.00     0.011 A 
BRANCH  12  17
HETATM   17  O   UNL     1      37.837 -11.082   2.077  1.00  0.00    -0.351 OA
BRANCH  17  18
HETATM   18  C   UNL     1      36.661 -10.409   1.631  1.00  0.00     0.171 C 
HETATM   19  C   UNL     1      35.838 -11.277   0.692  1.00  0.00     0.034 C 
ENDBRANCH  17  18
ENDBRANCH  12  17
ENDBRANCH   1  11
BRANCH   6  20
HETATM   20  S   UNL     1      43.064 -14.170   4.964  1.00  0.00    -0.102 SA
BRANCH  20  21
HETATM   21  C   UNL     1      42.702 -15.481   6.154  1.00  0.00     0.184 C 
BRANCH  21  22
HETATM   22  C   UNL     1      42.595 -16.839   5.485  1.00  0.00     0.231 C 
HETATM   23  N   UNL     1      43.775 -17.269   4.906  1.00  0.00    -0.327 N 
HETATM   24  H   UNL     1      44.564 -16.634   4.968  1.00  0.00     0.169 HD
HETATM   25  O   UNL     1      41.512 -17.426   5.488  1.00  0.00    -0.272 OA
BRANCH  23  26
HETATM   26  C   UNL     1      43.970 -18.413   4.104  1.00  0.00     0.034 A 
HETATM   27  C   UNL     1      44.580 -19.585   4.550  1.00  0.00     0.030 A 
HETATM   28  C   UNL     1      44.640 -20.716   3.725  1.00  0.00     0.009 A 
HETATM   29  C   UNL     1      44.098 -20.688   2.437  1.00  0.00    -0.062 A 
HETATM   30  C   UNL     1      44.122 -21.905   1.561  1.00  0.00     0.048 C 
HETATM   31  C   UNL     1      43.523 -19.500   1.974  1.00  0.00     0.009 A 
HETATM   32  C   UNL     1      43.462 -18.373   2.800  1.00  0.00     0.030 A 
ENDBRANCH  23  26
ENDBRANCH  21  22
ENDBRANCH  20  21
ENDBRANCH   6  20
BRANCH   2  33
HETATM   33  C   UNL     1      38.652 -14.299   0.722  1.00  0.00     0.255 C 
HETATM   34  N   UNL     1      39.160 -14.098  -0.545  1.00  0.00    -0.323 N 
HETATM   35  H   UNL     1      40.166 -14.125  -0.653  1.00  0.00     0.169 HD
HETATM   36  O   UNL     1      37.475 -14.428   1.031  1.00  0.00    -0.268 OA
BRANCH  34  37
HETATM   37  C   UNL     1      38.424 -13.903  -1.728  1.00  0.00     0.035 A 
HETATM   38  C   UNL     1      38.173 -14.924  -2.645  1.00  0.00     0.029 A 
HETATM   39  C   UNL     1      37.387 -14.676  -3.773  1.00  0.00     0.002 A 
HETATM   40  C   UNL     1      36.874 -13.401  -4.006  1.00  0.00     0.000 A 
HETATM   41  C   UNL     1      37.133 -12.375  -3.101  1.00  0.00     0.002 A 
HETATM   42  C   UNL     1      37.888 -12.630  -1.956  1.00  0.00     0.029 A 
ENDBRANCH  34  37
ENDBRANCH   2  33
TORSDOF 9
ENDMDL
MODEL 5
REMARK VINA RESULT:      -8.7      2.554      9.208
REMARK  9 active torsions:
REMARK  status: ('A' for Active; 'I' for Inactive)
REMARK    1  A    between atoms: C_2  and  O_3 
REMARK    2  A    between atoms: O_3  and  C_4 
REMARK    3  A    between atoms: C_5  and  C_6 
REMARK    4  A    between atoms: C_7  and  C_8 
REMARK       I    between atoms: C_8  and  N_9 
REMARK    5  A    between atoms: N_9  and  C_10 
REMARK    6  A    between atoms: C_20  and  S_21 
REMARK    7  A    between atoms: S_21  and  C_22 
REMARK    8  A    between atoms: C_22  and  C_23 
REMARK       I    between atoms: C_23  and  N_24 
REMARK    9  A    between atoms: N_24  and  C_25 
ROOT
HETATM    1  C   UNL     1      42.350 -14.556   4.136  1.00  0.00     0.107 A 
HETATM    2  C   UNL     1      42.091 -15.382   2.877  1.00  0.00     0.046 A 
HETATM    3  C   UNL     1      41.083 -15.062   2.033  1.00  0.00     0.019 A 
HETATM    4  C   UNL     1      40.839 -15.689   0.684  1.00  0.00     0.069 C 
HETATM    5  N   UNL     1      40.208 -14.043   2.366  1.00  0.00    -0.353 N 
HETATM    6  C   UNL     1      40.272 -13.262   3.508  1.00  0.00     0.087 A 
HETATM    7  C   UNL     1      41.320 -13.444   4.356  1.00  0.00     0.055 A 
HETATM    8  C   UNL     1      41.539 -12.521   5.545  1.00  0.00     0.019 C 
HETATM    9  N   UNL     1      41.721 -11.756   6.530  1.00  0.00    -0.096 N 
HETATM   10  H   UNL     1      39.344 -14.022   1.828  1.00  0.00     0.166 HD
ENDROOT
BRANCH   1  11
HETATM   11  C   UNL     1      42.558 -15.426   5.385  1.00  0.00    -0.011 A 
HETATM   12  C   UNL     1      43.641 -15.264   6.269  1.00  0.00     0.076 A 
HETATM   13  C   UNL     1      43.741 -16.081   7.403  1.00  0.00     0.037 A 
HETATM   14  C   UNL     1      42.786 -17.066   7.657  1.00  0.00     0.003 A 
HETATM   15  C   UNL     1      41.717 -17.239   6.791  1.00  0.00     0.001 A 
HETATM   16  C   UNL     1      41.602 -16.426   5.665  1.00  0.00     0.011 A 
BRANCH  12  17
HETATM   17  O   UNL     1      44.527 -14.267   5.970  1.00  0.00    -0.351 OA
BRANCH  17  18
HETATM   18  C   UNL     1      45.452 -13.854   6.975  1.00  0.00     0.171 C 
HETATM   19  C   UNL     1      44.799 -12.936   7.996  1.00  0.00     0.034 C 
ENDBRANCH  17  18
ENDBRANCH  12  17
ENDBRANCH   1  11
BRANCH   6  20
HETATM   20  S   UNL     1      39.071 -12.022   3.895  1.00  0.00    -0.102 SA
BRANCH  20  21
HETATM   21  C   UNL     1      39.478 -10.608   2.846  1.00  0.00     0.184 C 
BRANCH  21  22
HETATM   22  C   UNL     1      39.732 -11.023   1.408  1.00  0.00     0.231 C 
HETATM   23  N   UNL     1      40.997 -10.703   0.951  1.00  0.00    -0.327 N 
HETATM   24  H   UNL     1      41.601 -10.214   1.604  1.00  0.00     0.169 HD
HETATM   25  O   UNL     1      38.830 -11.572   0.773  1.00  0.00    -0.272 OA
BRANCH  23  26
HETATM   26  C   UNL     1      41.493 -10.834  -0.363  1.00  0.00     0.034 A 
HETATM   27  C   UNL     1      42.212 -11.939  -0.820  1.00  0.00     0.030 A 
HETATM   28  C   UNL     1      42.577 -12.043  -2.169  1.00  0.00     0.009 A 
HETATM   29  C   UNL     1      42.237 -11.039  -3.079  1.00  0.00    -0.062 A 
HETATM   30  C   UNL     1      42.589 -11.159  -4.532  1.00  0.00     0.048 C 
HETATM   31  C   UNL     1      41.552  -9.912  -2.613  1.00  0.00     0.009 A 
HETATM   32  C   UNL     1      41.187  -9.810  -1.267  1.00  0.00     0.030 A 
ENDBRANCH  23  26
ENDBRANCH  21  22
ENDBRANCH  20  21
ENDBRANCH   6  20
BRANCH   2  33
HETATM   33  C   UNL     1      43.056 -16.496   2.636  1.00  0.00     0.255 C 
HETATM   34  N   UNL     1      42.554 -17.736   2.974  1.00  0.00    -0.323 N 
HETATM   35  H   UNL     1      41.573 -17.792   3.214  1.00  0.00     0.169 HD
HETATM   36  O   UNL     1      44.171 -16.247   2.199  1.00  0.00    -0.268 OA
BRANCH  34  37
HETATM   37  C   UNL     1      43.254 -18.956   2.979  1.00  0.00     0.035 A 
HETATM   38  C   UNL     1      44.072 -19.360   4.035  1.00  0.00     0.029 A 
HETATM   39  C   UNL     1      44.695 -20.610   4.002  1.00  0.00     0.002 A 
HETATM   40  C   UNL     1      44.530 -21.449   2.900  1.00  0.00     0.000 A 
HETATM   41  C   UNL     1      43.726 -21.045   1.837  1.00  0.00     0.002 A 
HETATM   42  C   UNL     1      43.074 -19.812   1.886  1.00  0.00     0.029 A 
ENDBRANCH  34  37
ENDBRANCH   2  33
TORSDOF 9
ENDMDL
MODEL 6
REMARK VINA RESULT:      -8.6      2.335      4.089
REMARK  9 active torsions:
REMARK  status: ('A' for Active; 'I' for Inactive)
REMARK    1  A    between atoms: C_2  and  O_3 
REMARK    2  A    between atoms: O_3  and  C_4 
REMARK    3  A    between atoms: C_5  and  C_6 
REMARK    4  A    between atoms: C_7  and  C_8 
REMARK       I    between atoms: C_8  and  N_9 
REMARK    5  A    between atoms: N_9  and  C_10 
REMARK    6  A    between atoms: C_20  and  S_21 
REMARK    7  A    between atoms: S_21  and  C_22 
REMARK    8  A    between atoms: C_22  and  C_23 
REMARK       I    between atoms: C_23  and  N_24 
REMARK    9  A    between atoms: N_24  and  C_25 
ROOT
HETATM    1  C   UNL     1      40.734 -12.803   0.808  1.00  0.00     0.107 A 
HETATM    2  C   UNL     1      40.852 -14.017  -0.113  1.00  0.00     0.046 A 
HETATM    3  C   UNL     1      41.439 -15.158   0.318  1.00  0.00     0.019 A 
HETATM    4  C   UNL     1      41.459 -16.468  -0.430  1.00  0.00     0.069 C 
HETATM    5  N   UNL     1      42.036 -15.194   1.565  1.00  0.00    -0.353 N 
HETATM    6  C   UNL     1      42.076 -14.149   2.474  1.00  0.00     0.087 A 
HETATM    7  C   UNL     1      41.414 -13.001   2.165  1.00  0.00     0.055 A 
HETATM    8  C   UNL     1      41.284 -11.873   3.177  1.00  0.00     0.019 C 
HETATM    9  N   UNL     1      41.176 -10.937   4.015  1.00  0.00    -0.096 N 
HETATM   10  H   UNL     1      42.666 -15.979   1.721  1.00  0.00     0.166 HD
ENDROOT
BRANCH   1  11
HETATM   11  C   UNL     1      41.155 -11.494   0.120  1.00  0.00    -0.011 A 
HETATM   12  C   UNL     1      40.240 -10.497  -0.268  1.00  0.00     0.076 A 
HETATM   13  C   UNL     1      40.709  -9.318  -0.863  1.00  0.00     0.037 A 
HETATM   14  C   UNL     1      42.073  -9.129  -1.090  1.00  0.00     0.003 A 
HETATM   15  C   UNL     1      42.983 -10.107  -0.717  1.00  0.00     0.001 A 
HETATM   16  C   UNL     1      42.529 -11.279  -0.115  1.00  0.00     0.011 A 
BRANCH  12  17
HETATM   17  O   UNL     1      38.922 -10.740   0.004  1.00  0.00    -0.351 OA
BRANCH  17  18
HETATM   18  C   UNL     1      38.317 -10.056   1.100  1.00  0.00     0.171 C 
HETATM   19  C   UNL     1      37.734 -11.026   2.115  1.00  0.00     0.034 C 
ENDBRANCH  17  18
ENDBRANCH  12  17
ENDBRANCH   1  11
BRANCH   6  20
HETATM   20  S   UNL     1      42.922 -14.253   4.024  1.00  0.00    -0.102 SA
BRANCH  20  21
HETATM   21  C   UNL     1      41.833 -15.206   5.108  1.00  0.00     0.184 C 
BRANCH  21  22
HETATM   22  C   UNL     1      41.906 -16.694   4.817  1.00  0.00     0.231 C 
HETATM   23  N   UNL     1      43.052 -17.073   4.143  1.00  0.00    -0.327 N 
HETATM   24  H   UNL     1      43.698 -16.330   3.898  1.00  0.00     0.169 HD
HETATM   25  O   UNL     1      40.975 -17.420   5.166  1.00  0.00    -0.272 OA
BRANCH  23  26
HETATM   26  C   UNL     1      43.355 -18.347   3.615  1.00  0.00     0.034 A 
HETATM   27  C   UNL     1      42.903 -18.807   2.378  1.00  0.00     0.030 A 
HETATM   28  C   UNL     1      43.336 -20.041   1.876  1.00  0.00     0.009 A 
HETATM   29  C   UNL     1      44.221 -20.838   2.607  1.00  0.00    -0.062 A 
HETATM   30  C   UNL     1      44.721 -22.142   2.061  1.00  0.00     0.048 C 
HETATM   31  C   UNL     1      44.642 -20.395   3.866  1.00  0.00     0.009 A 
HETATM   32  C   UNL     1      44.210 -19.162   4.365  1.00  0.00     0.030 A 
ENDBRANCH  23  26
ENDBRANCH  21  22
ENDBRANCH  20  21
ENDBRANCH   6  20
BRANCH   2  33
HETATM   33  C   UNL     1      40.227 -13.860  -1.459  1.00  0.00     0.255 C 
HETATM   34  N   UNL     1      38.851 -13.762  -1.414  1.00  0.00    -0.323 N 
HETATM   35  H   UNL     1      38.420 -13.670  -0.504  1.00  0.00     0.169 HD
HETATM   36  O   UNL     1      40.934 -13.849  -2.458  1.00  0.00    -0.268 OA
BRANCH  34  37
HETATM   37  C   UNL     1      37.972 -13.729  -2.512  1.00  0.00     0.035 A 
HETATM   38  C   UNL     1      37.597 -14.870  -3.221  1.00  0.00     0.029 A 
HETATM   39  C   UNL     1      36.676 -14.776  -4.267  1.00  0.00     0.002 A 
HETATM   40  C   UNL     1      36.148 -13.537  -4.630  1.00  0.00     0.000 A 
HETATM   41  C   UNL     1      36.529 -12.393  -3.934  1.00  0.00     0.002 A 
HETATM   42  C   UNL     1      37.422 -12.491  -2.866  1.00  0.00     0.029 A 
ENDBRANCH  34  37
ENDBRANCH   2  33
TORSDOF 9
ENDMDL
MODEL 7
REMARK VINA RESULT:      -8.5      3.008      9.262
REMARK  9 active torsions:
REMARK  status: ('A' for Active; 'I' for Inactive)
REMARK    1  A    between atoms: C_2  and  O_3 
REMARK    2  A    between atoms: O_3  and  C_4 
REMARK    3  A    between atoms: C_5  and  C_6 
REMARK    4  A    between atoms: C_7  and  C_8 
REMARK       I    between atoms: C_8  and  N_9 
REMARK    5  A    between atoms: N_9  and  C_10 
REMARK    6  A    between atoms: C_20  and  S_21 
REMARK    7  A    between atoms: S_21  and  C_22 
REMARK    8  A    between atoms: C_22  and  C_23 
REMARK       I    between atoms: C_23  and  N_24 
REMARK    9  A    between atoms: N_24  and  C_25 
ROOT
HETATM    1  C   UNL     1      42.376 -14.796   3.732  1.00  0.00     0.107 A 
HETATM    2  C   UNL     1      42.225 -15.657   2.478  1.00  0.00     0.046 A 
HETATM    3  C   UNL     1      41.319 -15.339   1.525  1.00  0.00     0.019 A 
HETATM    4  C   UNL     1      41.197 -16.004   0.176  1.00  0.00     0.069 C 
HETATM    5  N   UNL     1      40.444 -14.288   1.734  1.00  0.00    -0.353 N 
HETATM    6  C   UNL     1      40.412 -13.471   2.852  1.00  0.00     0.087 A 
HETATM    7  C   UNL     1      41.361 -13.652   3.810  1.00  0.00     0.055 A 
HETATM    8  C   UNL     1      41.483 -12.696   4.987  1.00  0.00     0.019 C 
HETATM    9  N   UNL     1      41.584 -11.905   5.962  1.00  0.00    -0.096 N 
HETATM   10  H   UNL     1      39.641 -14.262   1.108  1.00  0.00     0.166 HD
ENDROOT
BRANCH   1  11
HETATM   11  C   UNL     1      42.428 -15.631   5.022  1.00  0.00    -0.011 A 
HETATM   12  C   UNL     1      43.411 -15.457   6.015  1.00  0.00     0.076 A 
HETATM   13  C   UNL     1      43.370 -16.239   7.176  1.00  0.00     0.037 A 
HETATM   14  C   UNL     1      42.374 -17.201   7.352  1.00  0.00     0.003 A 
HETATM   15  C   UNL     1      41.404 -17.385   6.378  1.00  0.00     0.001 A 
HETATM   16  C   UNL     1      41.429 -16.606   5.223  1.00  0.00     0.011 A 
BRANCH  12  17
HETATM   17  O   UNL     1      44.343 -14.483   5.786  1.00  0.00    -0.351 OA
BRANCH  17  18
HETATM   18  C   UNL     1      45.216 -14.114   6.852  1.00  0.00     0.171 C 
HETATM   19  C   UNL     1      44.567 -13.109   7.789  1.00  0.00     0.034 C 
ENDBRANCH  17  18
ENDBRANCH  12  17
ENDBRANCH   1  11
BRANCH   6  20
HETATM   20  S   UNL     1      39.214 -12.189   3.074  1.00  0.00    -0.102 SA
BRANCH  20  21
HETATM   21  C   UNL     1      39.723 -10.853   1.969  1.00  0.00     0.184 C 
BRANCH  21  22
HETATM   22  C   UNL     1      39.624 -11.257   0.509  1.00  0.00     0.231 C 
HETATM   23  N   UNL     1      38.418 -11.845   0.175  1.00  0.00    -0.327 N 
HETATM   24  H   UNL     1      37.750 -11.963   0.929  1.00  0.00     0.169 HD
HETATM   25  O   UNL     1      40.586 -11.061  -0.235  1.00  0.00    -0.272 OA
BRANCH  23  26
HETATM   26  C   UNL     1      38.066 -12.444  -1.054  1.00  0.00     0.034 A 
HETATM   27  C   UNL     1      38.385 -13.756  -1.402  1.00  0.00     0.030 A 
HETATM   28  C   UNL     1      37.906 -14.313  -2.596  1.00  0.00     0.009 A 
HETATM   29  C   UNL     1      37.109 -13.561  -3.463  1.00  0.00    -0.062 A 
HETATM   30  C   UNL     1      36.560 -14.160  -4.724  1.00  0.00     0.048 C 
HETATM   31  C   UNL     1      36.824 -12.232  -3.134  1.00  0.00     0.009 A 
HETATM   32  C   UNL     1      37.301 -11.678  -1.942  1.00  0.00     0.030 A 
ENDBRANCH  23  26
ENDBRANCH  21  22
ENDBRANCH  20  21
ENDBRANCH   6  20
BRANCH   2  33
HETATM   33  C   UNL     1      43.176 -16.802   2.373  1.00  0.00     0.255 C 
HETATM   34  N   UNL     1      42.605 -18.019   2.688  1.00  0.00    -0.323 N 
HETATM   35  H   UNL     1      41.603 -18.042   2.822  1.00  0.00     0.169 HD
HETATM   36  O   UNL     1      44.339 -16.596   2.052  1.00  0.00    -0.268 OA
BRANCH  34  37
HETATM   37  C   UNL     1      43.265 -19.256   2.801  1.00  0.00     0.035 A 
HETATM   38  C   UNL     1      43.203 -20.243   1.817  1.00  0.00     0.029 A 
HETATM   39  C   UNL     1      43.928 -21.428   1.965  1.00  0.00     0.002 A 
HETATM   40  C   UNL     1      44.692 -21.646   3.111  1.00  0.00     0.000 A 
HETATM   41  C   UNL     1      44.746 -20.670   4.103  1.00  0.00     0.002 A 
HETATM   42  C   UNL     1      44.051 -19.470   3.939  1.00  0.00     0.029 A 
ENDBRANCH  34  37
ENDBRANCH   2  33
TORSDOF 9
ENDMDL
MODEL 8
REMARK VINA RESULT:      -8.5      2.587      4.654
REMARK  9 active torsions:
REMARK  status: ('A' for Active; 'I' for Inactive)
REMARK    1  A    between atoms: C_2  and  O_3 
REMARK    2  A    between atoms: O_3  and  C_4 
REMARK    3  A    between atoms: C_5  and  C_6 
REMARK    4  A    between atoms: C_7  and  C_8 
REMARK       I    between atoms: C_8  and  N_9 
REMARK    5  A    between atoms: N_9  and  C_10 
REMARK    6  A    between atoms: C_20  and  S_21 
REMARK    7  A    between atoms: S_21  and  C_22 
REMARK    8  A    between atoms: C_22  and  C_23 
REMARK       I    between atoms: C_23  and  N_24 
REMARK    9  A    between atoms: N_24  and  C_25 
ROOT
HETATM    1  C   UNL     1      39.551 -13.257   2.793  1.00  0.00     0.107 A 
HETATM    2  C   UNL     1      39.648 -14.345   1.724  1.00  0.00     0.046 A 
HETATM    3  C   UNL     1      40.607 -15.297   1.789  1.00  0.00     0.019 A 
HETATM    4  C   UNL     1      40.697 -16.511   0.899  1.00  0.00     0.069 C 
HETATM    5  N   UNL     1      41.579 -15.225   2.772  1.00  0.00    -0.353 N 
HETATM    6  C   UNL     1      41.663 -14.256   3.758  1.00  0.00     0.087 A 
HETATM    7  C   UNL     1      40.674 -13.324   3.831  1.00  0.00     0.055 A 
HETATM    8  C   UNL     1      40.618 -12.326   4.978  1.00  0.00     0.019 C 
HETATM    9  N   UNL     1      40.572 -11.499   5.928  1.00  0.00    -0.096 N 
HETATM   10  H   UNL     1      42.397 -15.811   2.615  1.00  0.00     0.166 HD
ENDROOT
BRANCH   1  11
HETATM   11  C   UNL     1      39.379 -11.852   2.196  1.00  0.00    -0.011 A 
HETATM   12  C   UNL     1      40.314 -11.263   1.323  1.00  0.00     0.076 A 
HETATM   13  C   UNL     1      40.068  -9.988   0.799  1.00  0.00     0.037 A 
HETATM   14  C   UNL     1      38.912  -9.287   1.145  1.00  0.00     0.003 A 
HETATM   15  C   UNL     1      37.986  -9.854   2.008  1.00  0.00     0.001 A 
HETATM   16  C   UNL     1      38.216 -11.126   2.528  1.00  0.00     0.011 A 
BRANCH  12  17
HETATM   17  O   UNL     1      41.413 -12.015   1.012  1.00  0.00    -0.351 OA
BRANCH  17  18
HETATM   18  C   UNL     1      42.201 -11.633  -0.115  1.00  0.00     0.171 C 
HETATM   19  C   UNL     1      42.242 -12.727  -1.169  1.00  0.00     0.034 C 
ENDBRANCH  17  18
ENDBRANCH  12  17
ENDBRANCH   1  11
BRANCH   6  20
HETATM   20  S   UNL     1      42.979 -14.195   4.938  1.00  0.00    -0.102 SA
BRANCH  20  21
HETATM   21  C   UNL     1      42.581 -15.454   6.173  1.00  0.00     0.184 C 
BRANCH  21  22
HETATM   22  C   UNL     1      42.547 -16.847   5.571  1.00  0.00     0.231 C 
HETATM   23  N   UNL     1      43.691 -17.177   4.868  1.00  0.00    -0.327 N 
HETATM   24  H   UNL     1      44.407 -16.460   4.810  1.00  0.00     0.169 HD
HETATM   25  O   UNL     1      41.544 -17.544   5.726  1.00  0.00    -0.272 OA
BRANCH  23  26
HETATM   26  C   UNL     1      43.916 -18.332   4.088  1.00  0.00     0.034 A 
HETATM   27  C   UNL     1      44.564 -19.475   4.555  1.00  0.00     0.030 A 
HETATM   28  C   UNL     1      44.653 -20.621   3.754  1.00  0.00     0.009 A 
HETATM   29  C   UNL     1      44.102 -20.638   2.470  1.00  0.00    -0.062 A 
HETATM   30  C   UNL     1      44.158 -21.872   1.619  1.00  0.00     0.048 C 
HETATM   31  C   UNL     1      43.488 -19.478   1.986  1.00  0.00     0.009 A 
HETATM   32  C   UNL     1      43.399 -18.335   2.787  1.00  0.00     0.030 A 
ENDBRANCH  23  26
ENDBRANCH  21  22
ENDBRANCH  20  21
ENDBRANCH   6  20
BRANCH   2  33
HETATM   33  C   UNL     1      38.588 -14.302   0.673  1.00  0.00     0.255 C 
HETATM   34  N   UNL     1      39.072 -13.983  -0.579  1.00  0.00    -0.323 N 
HETATM   35  H   UNL     1      40.076 -13.943  -0.694  1.00  0.00     0.169 HD
HETATM   36  O   UNL     1      37.423 -14.521   0.979  1.00  0.00    -0.268 OA
BRANCH  34  37
HETATM   37  C   UNL     1      38.315 -13.747  -1.740  1.00  0.00     0.035 A 
HETATM   38  C   UNL     1      38.072 -14.727  -2.703  1.00  0.00     0.029 A 
HETATM   39  C   UNL     1      37.264 -14.443  -3.806  1.00  0.00     0.002 A 
HETATM   40  C   UNL     1      36.720 -13.169  -3.970  1.00  0.00     0.000 A 
HETATM   41  C   UNL     1      36.970 -12.183  -3.019  1.00  0.00     0.002 A 
HETATM   42  C   UNL     1      37.747 -12.476  -1.898  1.00  0.00     0.029 A 
ENDBRANCH  34  37
ENDBRANCH   2  33
TORSDOF 9
ENDMDL
MODEL 9
REMARK VINA RESULT:      -8.2      4.425      8.505
REMARK  9 active torsions:
REMARK  status: ('A' for Active; 'I' for Inactive)
REMARK    1  A    between atoms: C_2  and  O_3 
REMARK    2  A    between atoms: O_3  and  C_4 
REMARK    3  A    between atoms: C_5  and  C_6 
REMARK    4  A    between atoms: C_7  and  C_8 
REMARK       I    between atoms: C_8  and  N_9 
REMARK    5  A    between atoms: N_9  and  C_10 
REMARK    6  A    between atoms: C_20  and  S_21 
REMARK    7  A    between atoms: S_21  and  C_22 
REMARK    8  A    between atoms: C_22  and  C_23 
REMARK       I    between atoms: C_23  and  N_24 
REMARK    9  A    between atoms: N_24  and  C_25 
ROOT
HETATM    1  C   UNL     1      41.287 -14.130   2.597  1.00  0.00     0.107 A 
HETATM    2  C   UNL     1      42.626 -14.479   3.246  1.00  0.00     0.046 A 
HETATM    3  C   UNL     1      43.139 -13.709   4.234  1.00  0.00     0.019 A 
HETATM    4  C   UNL     1      44.353 -14.044   5.063  1.00  0.00     0.069 C 
HETATM    5  N   UNL     1      42.501 -12.533   4.588  1.00  0.00    -0.353 N 
HETATM    6  C   UNL     1      41.326 -12.051   4.035  1.00  0.00     0.087 A 
HETATM    7  C   UNL     1      40.686 -12.819   3.112  1.00  0.00     0.055 A 
HETATM    8  C   UNL     1      39.316 -12.428   2.578  1.00  0.00     0.019 C 
HETATM    9  N   UNL     1      38.182 -12.104   2.135  1.00  0.00    -0.096 N 
HETATM   10  H   UNL     1      43.059 -11.889   5.145  1.00  0.00     0.166 HD
ENDROOT
BRANCH   1  11
HETATM   11  C   UNL     1      41.336 -14.197   1.063  1.00  0.00    -0.011 A 
HETATM   12  C   UNL     1      41.904 -13.187   0.264  1.00  0.00     0.076 A 
HETATM   13  C   UNL     1      41.935 -13.338  -1.129  1.00  0.00     0.037 A 
HETATM   14  C   UNL     1      41.394 -14.474  -1.734  1.00  0.00     0.003 A 
HETATM   15  C   UNL     1      40.827 -15.473  -0.957  1.00  0.00     0.001 A 
HETATM   16  C   UNL     1      40.799 -15.338   0.430  1.00  0.00     0.011 A 
BRANCH  12  17
HETATM   17  O   UNL     1      42.433 -12.113   0.924  1.00  0.00    -0.351 OA
BRANCH  17  18
HETATM   18  C   UNL     1      42.420 -10.842   0.276  1.00  0.00     0.171 C 
HETATM   19  C   UNL     1      41.172 -10.047   0.623  1.00  0.00     0.034 C 
ENDBRANCH  17  18
ENDBRANCH  12  17
ENDBRANCH   1  11
BRANCH   6  20
HETATM   20  S   UNL     1      40.610 -10.501   4.496  1.00  0.00    -0.102 SA
BRANCH  20  21
HETATM   21  C   UNL     1      39.994 -10.732   6.179  1.00  0.00     0.184 C 
BRANCH  21  22
HETATM   22  C   UNL     1      40.998 -10.268   7.218  1.00  0.00     0.231 C 
HETATM   23  N   UNL     1      40.915 -10.953   8.416  1.00  0.00    -0.327 N 
HETATM   24  H   UNL     1      40.192 -11.662   8.481  1.00  0.00     0.169 HD
HETATM   25  O   UNL     1      41.766  -9.346   6.942  1.00  0.00    -0.272 OA
BRANCH  23  26
HETATM   26  C   UNL     1      41.611 -10.677   9.613  1.00  0.00     0.034 A 
HETATM   27  C   UNL     1      42.969 -10.928   9.802  1.00  0.00     0.030 A 
HETATM   28  C   UNL     1      43.611 -10.526  10.981  1.00  0.00     0.009 A 
HETATM   29  C   UNL     1      42.900  -9.874  11.993  1.00  0.00    -0.062 A 
HETATM   30  C   UNL     1      43.586  -9.405  13.242  1.00  0.00     0.048 C 
HETATM   31  C   UNL     1      41.529  -9.659  11.821  1.00  0.00     0.009 A 
HETATM   32  C   UNL     1      40.890 -10.060  10.643  1.00  0.00     0.030 A 
ENDBRANCH  23  26
ENDBRANCH  21  22
ENDBRANCH  20  21
ENDBRANCH   6  20
BRANCH   2  33
HETATM   33  C   UNL     1      43.264 -15.736   2.755  1.00  0.00     0.255 C 
HETATM   34  N   UNL     1      42.730 -16.876   3.321  1.00  0.00    -0.323 N 
HETATM   35  H   UNL     1      41.900 -16.770   3.888  1.00  0.00     0.169 HD
HETATM   36  O   UNL     1      44.179 -15.675   1.945  1.00  0.00    -0.268 OA
BRANCH  34  37
HETATM   37  C   UNL     1      43.194 -18.194   3.158  1.00  0.00     0.035 A 
HETATM   38  C   UNL     1      42.891 -18.974   2.041  1.00  0.00     0.029 A 
HETATM   39  C   UNL     1      43.430 -20.257   1.914  1.00  0.00     0.002 A 
HETATM   40  C   UNL     1      44.248 -20.779   2.916  1.00  0.00     0.000 A 
HETATM   41  C   UNL     1      44.542 -20.009   4.039  1.00  0.00     0.002 A 
HETATM   42  C   UNL     1      44.034 -18.714   4.150  1.00  0.00     0.029 A 
ENDBRANCH  34  37
ENDBRANCH   2  33
TORSDOF 9
ENDMDL
MODEL 10
REMARK VINA RESULT:      -8.1      3.800      9.985
REMARK  9 active torsions:
REMARK  status: ('A' for Active; 'I' for Inactive)
REMARK    1  A    between atoms: C_2  and  O_3 
REMARK    2  A    between atoms: O_3  and  C_4 
REMARK    3  A    between atoms: C_5  and  C_6 
REMARK    4  A    between atoms: C_7  and  C_8 
REMARK       I    between atoms: C_8  and  N_9 
REMARK    5  A    between atoms: N_9  and  C_10 
REMARK    6  A    between atoms: C_20  and  S_21 
REMARK    7  A    between atoms: S_21  and  C_22 
REMARK    8  A    between atoms: C_22  and  C_23 
REMARK       I    between atoms: C_23  and  N_24 
REMARK    9  A    between atoms: N_24  and  C_25 
ROOT
HETATM    1  C   UNL     1      42.291 -14.869   3.555  1.00  0.00     0.107 A 
HETATM    2  C   UNL     1      42.240 -15.734   2.296  1.00  0.00     0.046 A 
HETATM    3  C   UNL     1      41.389 -15.439   1.286  1.00  0.00     0.019 A 
HETATM    4  C   UNL     1      41.370 -16.107  -0.066  1.00  0.00     0.069 C 
HETATM    5  N   UNL     1      40.477 -14.409   1.437  1.00  0.00    -0.353 N 
HETATM    6  C   UNL     1      40.355 -13.593   2.549  1.00  0.00     0.087 A 
HETATM    7  C   UNL     1      41.245 -13.750   3.566  1.00  0.00     0.055 A 
HETATM    8  C   UNL     1      41.269 -12.791   4.745  1.00  0.00     0.019 C 
HETATM    9  N   UNL     1      41.289 -11.996   5.724  1.00  0.00    -0.096 N 
HETATM   10  H   UNL     1      39.715 -14.404   0.762  1.00  0.00     0.166 HD
ENDROOT
BRANCH   1  11
HETATM   11  C   UNL     1      42.281 -15.701   4.847  1.00  0.00    -0.011 A 
HETATM   12  C   UNL     1      43.213 -15.523   5.887  1.00  0.00     0.076 A 
HETATM   13  C   UNL     1      43.117 -16.303   7.047  1.00  0.00     0.037 A 
HETATM   14  C   UNL     1      42.115 -17.267   7.175  1.00  0.00     0.003 A 
HETATM   15  C   UNL     1      41.196 -17.456   6.154  1.00  0.00     0.001 A 
HETATM   16  C   UNL     1      41.276 -16.679   5.001  1.00  0.00     0.011 A 
BRANCH  12  17
HETATM   17  O   UNL     1      44.152 -14.547   5.703  1.00  0.00    -0.351 OA
BRANCH  17  18
HETATM   18  C   UNL     1      45.120 -14.332   6.729  1.00  0.00     0.171 C 
HETATM   19  C   UNL     1      44.688 -13.234   7.688  1.00  0.00     0.034 C 
ENDBRANCH  17  18
ENDBRANCH  12  17
ENDBRANCH   1  11
BRANCH   6  20
HETATM   20  S   UNL     1      39.114 -12.340   2.692  1.00  0.00    -0.102 SA
BRANCH  20  21
HETATM   21  C   UNL     1      39.594 -11.046   1.525  1.00  0.00     0.184 C 
BRANCH  21  22
HETATM   22  C   UNL     1      38.387 -10.389   0.880  1.00  0.00     0.231 C 
HETATM   23  N   UNL     1      37.298 -11.231   0.752  1.00  0.00    -0.327 N 
HETATM   24  H   UNL     1      37.425 -12.185   1.073  1.00  0.00     0.169 HD
HETATM   25  O   UNL     1      38.465  -9.215   0.517  1.00  0.00    -0.272 OA
BRANCH  23  26
HETATM   26  C   UNL     1      36.083 -10.967   0.083  1.00  0.00     0.034 A 
HETATM   27  C   UNL     1      35.943 -10.952  -1.305  1.00  0.00     0.030 A 
HETATM   28  C   UNL     1      34.681 -10.788  -1.891  1.00  0.00     0.009 A 
HETATM   29  C   UNL     1      33.541 -10.628  -1.098  1.00  0.00    -0.062 A 
HETATM   30  C   UNL     1      32.182 -10.492  -1.716  1.00  0.00     0.048 C 
HETATM   31  C   UNL     1      33.687 -10.602   0.292  1.00  0.00     0.009 A 
HETATM   32  C   UNL     1      34.947 -10.767   0.877  1.00  0.00     0.030 A 
ENDBRANCH  23  26
ENDBRANCH  21  22
ENDBRANCH  20  21
ENDBRANCH   6  20
BRANCH   2  33
HETATM   33  C   UNL     1      43.224 -16.856   2.253  1.00  0.00     0.255 C 
HETATM   34  N   UNL     1      42.674 -18.078   2.581  1.00  0.00    -0.323 N 
HETATM   35  H   UNL     1      41.669 -18.125   2.682  1.00  0.00     0.169 HD
HETATM   36  O   UNL     1      44.392 -16.627   1.967  1.00  0.00    -0.268 OA
BRANCH  34  37
HETATM   37  C   UNL     1      43.361 -19.294   2.749  1.00  0.00     0.035 A 
HETATM   38  C   UNL     1      44.126 -19.586   3.879  1.00  0.00     0.029 A 
HETATM   39  C   UNL     1      44.738 -20.835   4.009  1.00  0.00     0.002 A 
HETATM   40  C   UNL     1      44.614 -21.787   2.998  1.00  0.00     0.000 A 
HETATM   41  C   UNL     1      43.863 -21.497   1.862  1.00  0.00     0.002 A 
HETATM   42  C   UNL     1      43.222 -20.262   1.747  1.00  0.00     0.029 A 
ENDBRANCH  34  37
ENDBRANCH   2  33
TORSDOF 9
ENDMDL
