MODEL 1
REMARK VINA RESULT:      -9.9      0.000      0.000
REMARK  7 active torsions:
REMARK  status: ('A' for Active; 'I' for Inactive)
REMARK    1  A    between atoms: C_3  and  N_4 
REMARK       I    between atoms: N_4  and  C_5 
REMARK    2  A    between atoms: C_5  and  C_6 
REMARK    3  A    between atoms: C_6  and  N_7 
REMARK    4  A    between atoms: N_10  and  C_11 
REMARK    5  A    between atoms: C_11  and  C_12 
REMARK    6  A    between atoms: C_27  and  C_28 
REMARK       I    between atoms: C_28  and  N_29 
REMARK    7  A    between atoms: N_29  and  C_30 
ROOT
HETATM    1  N   UNL     1      44.124 -13.510   7.263  1.00  0.00    -0.290 N 
HETATM    2  C   UNL     1      44.768 -12.700   8.198  1.00  0.00     0.332 C 
HETATM    3  O   UNL     1      45.930 -12.937   8.544  1.00  0.00    -0.246 OA
HETATM    4  N   UNL     1      44.063 -11.611   8.684  1.00  0.00    -0.261 N 
HETATM    5  C   UNL     1      42.885 -11.139   8.132  1.00  0.00     0.264 C 
HETATM    6  O   UNL     1      42.307 -10.118   8.502  1.00  0.00    -0.267 OA
HETATM    7  C   UNL     1      42.325 -11.901   7.003  1.00  0.00     0.059 A 
HETATM    8  C   UNL     1      42.925 -13.098   6.616  1.00  0.00     0.056 A 
HETATM    9  C   UNL     1      41.216 -11.385   6.312  1.00  0.00     0.020 A 
HETATM   10  C   UNL     1      40.681 -12.067   5.219  1.00  0.00     0.018 A 
HETATM   11  C   UNL     1      41.230 -13.293   4.841  1.00  0.00     0.034 A 
HETATM   12  C   UNL     1      42.338 -13.803   5.552  1.00  0.00     0.048 A 
ENDROOT
BRANCH   1  13
HETATM   13  C   UNL     1      44.911 -14.653   6.802  1.00  0.00     0.237 C 
BRANCH  13  14
HETATM   14  C   UNL     1      44.364 -15.998   7.322  1.00  0.00     0.240 C 
HETATM   15  N   UNL     1      44.781 -17.063   6.542  1.00  0.00    -0.323 N 
HETATM   16  H   UNL     1      45.485 -16.876   5.833  1.00  0.00     0.169 HD
HETATM   17  O   UNL     1      43.608 -16.057   8.289  1.00  0.00    -0.271 OA
BRANCH  15  18
HETATM   18  C   UNL     1      44.441 -18.426   6.655  1.00  0.00     0.073 A 
HETATM   19  C   UNL     1      44.013 -19.046   7.827  1.00  0.00     0.033 A 
HETATM   20  C   UNL     1      43.688 -20.410   7.819  1.00  0.00     0.002 A 
HETATM   21  C   UNL     1      43.786 -21.160   6.644  1.00  0.00     0.003 A 
HETATM   22  C   UNL     1      44.211 -20.549   5.469  1.00  0.00     0.044 A 
HETATM   23  C   UNL     1      44.535 -19.196   5.486  1.00  0.00     0.143 A 
HETATM   24  F   UNL     1      44.939 -18.612   4.345  1.00  0.00    -0.204 F 
ENDBRANCH  15  18
ENDBRANCH  13  14
ENDBRANCH   1  13
BRANCH   4  25
HETATM   25  C   UNL     1      44.701 -10.806   9.720  1.00  0.00     0.175 C 
BRANCH  25  26
HETATM   26  C   UNL     1      43.898 -10.733  11.004  1.00  0.00    -0.037 A 
HETATM   27  C   UNL     1      43.518  -9.495  11.547  1.00  0.00     0.048 A 
HETATM   28  C   UNL     1      42.792  -9.497  12.720  1.00  0.00     0.105 A 
HETATM   29  C   UNL     1      42.449 -10.664  13.363  1.00  0.00     0.105 A 
HETATM   30  O   UNL     1      42.337  -8.394  13.375  1.00  0.00    -0.323 OA
HETATM   31  O   UNL     1      41.738 -10.443  14.500  1.00  0.00    -0.323 OA
HETATM   32  C   UNL     1      42.812 -11.896  12.868  1.00  0.00     0.040 A 
HETATM   33  C   UNL     1      41.644  -9.004  14.484  1.00  0.00     0.352 A 
HETATM   34  C   UNL     1      43.542 -11.927  11.677  1.00  0.00     0.012 A 
ENDBRANCH  25  26
ENDBRANCH   4  25
BRANCH  11  35
HETATM   35  C   UNL     1      40.739 -14.083   3.671  1.00  0.00     0.252 C 
HETATM   36  N   UNL     1      41.556 -15.081   3.176  1.00  0.00    -0.352 N 
HETATM   37  H   UNL     1      42.487 -15.207   3.544  1.00  0.00     0.163 HD
HETATM   38  O   UNL     1      39.645 -13.816   3.183  1.00  0.00    -0.268 OA
BRANCH  36  39
HETATM   39  C   UNL     1      41.174 -15.863   2.002  1.00  0.00     0.084 C 
HETATM   40  C   UNL     1      42.295 -15.858   0.952  1.00  0.00     0.025 C 
HETATM   41  C   UNL     1      43.483 -16.740   1.343  1.00  0.00     0.002 C 
HETATM   42  C   UNL     1      43.042 -18.159   1.680  1.00  0.00     0.000 C 
HETATM   43  C   UNL     1      41.968 -18.168   2.762  1.00  0.00     0.002 C 
HETATM   44  C   UNL     1      40.773 -17.300   2.373  1.00  0.00     0.025 C 
ENDBRANCH  36  39
ENDBRANCH  11  35
TORSDOF 7
ENDMDL
MODEL 2
REMARK VINA RESULT:      -9.8      2.874      9.101
REMARK  7 active torsions:
REMARK  status: ('A' for Active; 'I' for Inactive)
REMARK    1  A    between atoms: C_3  and  N_4 
REMARK       I    between atoms: N_4  and  C_5 
REMARK    2  A    between atoms: C_5  and  C_6 
REMARK    3  A    between atoms: C_6  and  N_7 
REMARK    4  A    between atoms: N_10  and  C_11 
REMARK    5  A    between atoms: C_11  and  C_12 
REMARK    6  A    between atoms: C_27  and  C_28 
REMARK       I    between atoms: C_28  and  N_29 
REMARK    7  A    between atoms: N_29  and  C_30 
ROOT
HETATM    1  N   UNL     1      42.487 -15.388   3.259  1.00  0.00    -0.290 N 
HETATM    2  C   UNL     1      41.406 -15.721   2.442  1.00  0.00     0.332 C 
HETATM    3  O   UNL     1      41.454 -16.712   1.705  1.00  0.00    -0.246 OA
HETATM    4  N   UNL     1      40.279 -14.921   2.528  1.00  0.00    -0.261 N 
HETATM    5  C   UNL     1      40.063 -13.985   3.524  1.00  0.00     0.264 C 
HETATM    6  O   UNL     1      39.025 -13.341   3.656  1.00  0.00    -0.267 OA
HETATM    7  C   UNL     1      41.146 -13.794   4.504  1.00  0.00     0.059 A 
HETATM    8  C   UNL     1      42.357 -14.461   4.331  1.00  0.00     0.056 A 
HETATM    9  C   UNL     1      40.922 -12.968   5.619  1.00  0.00     0.020 A 
HETATM   10  C   UNL     1      41.916 -12.790   6.581  1.00  0.00     0.018 A 
HETATM   11  C   UNL     1      43.156 -13.407   6.407  1.00  0.00     0.034 A 
HETATM   12  C   UNL     1      43.368 -14.224   5.276  1.00  0.00     0.048 A 
ENDROOT
BRANCH   1  13
HETATM   13  C   UNL     1      43.653 -16.258   3.111  1.00  0.00     0.237 C 
BRANCH  13  14
HETATM   14  C   UNL     1      43.485 -17.604   3.846  1.00  0.00     0.240 C 
HETATM   15  N   UNL     1      44.352 -18.568   3.362  1.00  0.00    -0.323 N 
HETATM   16  H   UNL     1      45.071 -18.268   2.710  1.00  0.00     0.169 HD
HETATM   17  O   UNL     1      42.631 -17.763   4.715  1.00  0.00    -0.271 OA
BRANCH  15  18
HETATM   18  C   UNL     1      44.454 -19.926   3.729  1.00  0.00     0.073 A 
HETATM   19  C   UNL     1      44.722 -20.387   5.016  1.00  0.00     0.033 A 
HETATM   20  C   UNL     1      44.786 -21.765   5.267  1.00  0.00     0.002 A 
HETATM   21  C   UNL     1      44.582 -22.688   4.238  1.00  0.00     0.003 A 
HETATM   22  C   UNL     1      44.313 -22.237   2.950  1.00  0.00     0.044 A 
HETATM   23  C   UNL     1      44.254 -20.868   2.708  1.00  0.00     0.143 A 
HETATM   24  F   UNL     1      43.987 -20.441   1.462  1.00  0.00    -0.204 F 
ENDBRANCH  15  18
ENDBRANCH  13  14
ENDBRANCH   1  13
BRANCH   4  25
HETATM   25  C   UNL     1      39.175 -15.217   1.620  1.00  0.00     0.175 C 
BRANCH  25  26
HETATM   26  C   UNL     1      39.083 -14.254   0.453  1.00  0.00    -0.037 A 
HETATM   27  C   UNL     1      40.146 -14.118  -0.454  1.00  0.00     0.048 A 
HETATM   28  C   UNL     1      40.001 -13.222  -1.494  1.00  0.00     0.105 A 
HETATM   29  C   UNL     1      38.863 -12.465  -1.650  1.00  0.00     0.105 A 
HETATM   30  O   UNL     1      40.923 -12.974  -2.464  1.00  0.00    -0.323 OA
HETATM   31  O   UNL     1      38.925 -11.647  -2.734  1.00  0.00    -0.323 OA
HETATM   32  C   UNL     1      37.804 -12.562  -0.776  1.00  0.00     0.040 A 
HETATM   33  C   UNL     1      40.221 -11.998  -3.262  1.00  0.00     0.352 A 
HETATM   34  C   UNL     1      37.918 -13.466   0.283  1.00  0.00     0.012 A 
ENDBRANCH  25  26
ENDBRANCH   4  25
BRANCH  11  35
HETATM   35  C   UNL     1      44.272 -13.292   7.395  1.00  0.00     0.252 C 
HETATM   36  N   UNL     1      44.033 -12.595   8.563  1.00  0.00    -0.352 N 
HETATM   37  H   UNL     1      43.158 -12.110   8.697  1.00  0.00     0.163 HD
HETATM   38  O   UNL     1      45.357 -13.803   7.135  1.00  0.00    -0.268 OA
BRANCH  36  39
HETATM   39  C   UNL     1      45.086 -12.391   9.555  1.00  0.00     0.084 C 
HETATM   40  C   UNL     1      45.495 -10.912   9.624  1.00  0.00     0.025 C 
HETATM   41  C   UNL     1      44.454 -10.037  10.324  1.00  0.00     0.002 C 
HETATM   42  C   UNL     1      44.098 -10.581  11.703  1.00  0.00     0.000 C 
HETATM   43  C   UNL     1      43.639 -12.033  11.629  1.00  0.00     0.002 C 
HETATM   44  C   UNL     1      44.680 -12.915  10.942  1.00  0.00     0.025 C 
ENDBRANCH  36  39
ENDBRANCH  11  35
TORSDOF 7
ENDMDL
MODEL 3
REMARK VINA RESULT:      -9.8      3.636     10.365
REMARK  7 active torsions:
REMARK  status: ('A' for Active; 'I' for Inactive)
REMARK    1  A    between atoms: C_3  and  N_4 
REMARK       I    between atoms: N_4  and  C_5 
REMARK    2  A    between atoms: C_5  and  C_6 
REMARK    3  A    between atoms: C_6  and  N_7 
REMARK    4  A    between atoms: N_10  and  C_11 
REMARK    5  A    between atoms: C_11  and  C_12 
REMARK    6  A    between atoms: C_27  and  C_28 
REMARK       I    between atoms: C_28  and  N_29 
REMARK    7  A    between atoms: N_29  and  C_30 
ROOT
HETATM    1  N   UNL     1      40.957 -12.749   4.636  1.00  0.00    -0.290 N 
HETATM    2  C   UNL     1      40.170 -13.206   3.578  1.00  0.00     0.332 C 
HETATM    3  O   UNL     1      39.584 -12.410   2.837  1.00  0.00    -0.246 OA
HETATM    4  N   UNL     1      40.111 -14.576   3.380  1.00  0.00    -0.261 N 
HETATM    5  C   UNL     1      40.957 -15.486   3.989  1.00  0.00     0.264 C 
HETATM    6  O   UNL     1      40.969 -16.691   3.744  1.00  0.00    -0.267 OA
HETATM    7  C   UNL     1      41.926 -14.950   4.960  1.00  0.00     0.059 A 
HETATM    8  C   UNL     1      41.881 -13.600   5.303  1.00  0.00     0.056 A 
HETATM    9  C   UNL     1      42.904 -15.806   5.494  1.00  0.00     0.020 A 
HETATM   10  C   UNL     1      43.856 -15.322   6.392  1.00  0.00     0.018 A 
HETATM   11  C   UNL     1      43.803 -13.987   6.792  1.00  0.00     0.034 A 
HETATM   12  C   UNL     1      42.808 -13.142   6.254  1.00  0.00     0.048 A 
ENDROOT
BRANCH   1  13
HETATM   13  C   UNL     1      40.965 -11.296   4.805  1.00  0.00     0.237 C 
BRANCH  13  14
HETATM   14  C   UNL     1      40.189 -10.842   6.058  1.00  0.00     0.240 C 
HETATM   15  N   UNL     1      41.039 -10.448   7.078  1.00  0.00    -0.323 N 
HETATM   16  H   UNL     1      42.028 -10.364   6.857  1.00  0.00     0.169 HD
HETATM   17  O   UNL     1      38.962 -10.892   6.113  1.00  0.00    -0.271 OA
BRANCH  15  18
HETATM   18  C   UNL     1      40.715 -10.036   8.386  1.00  0.00     0.073 A 
HETATM   19  C   UNL     1      40.276 -10.881   9.403  1.00  0.00     0.033 A 
HETATM   20  C   UNL     1      39.995 -10.360  10.674  1.00  0.00     0.002 A 
HETATM   21  C   UNL     1      40.152  -8.997  10.938  1.00  0.00     0.003 A 
HETATM   22  C   UNL     1      40.590  -8.146   9.929  1.00  0.00     0.044 A 
HETATM   23  C   UNL     1      40.863  -8.670   8.669  1.00  0.00     0.143 A 
HETATM   24  F   UNL     1      41.293  -7.841   7.702  1.00  0.00    -0.204 F 
ENDBRANCH  15  18
ENDBRANCH  13  14
ENDBRANCH   1  13
BRANCH   4  25
HETATM   25  C   UNL     1      39.229 -15.065   2.326  1.00  0.00     0.175 C 
BRANCH  25  26
HETATM   26  C   UNL     1      39.832 -14.958   0.940  1.00  0.00    -0.037 A 
HETATM   27  C   UNL     1      39.301 -14.069  -0.010  1.00  0.00     0.048 A 
HETATM   28  C   UNL     1      39.892 -14.022  -1.256  1.00  0.00     0.105 A 
HETATM   29  C   UNL     1      40.964 -14.820  -1.584  1.00  0.00     0.105 A 
HETATM   30  O   UNL     1      39.514 -13.217  -2.285  1.00  0.00    -0.323 OA
HETATM   31  O   UNL     1      41.393 -14.619  -2.858  1.00  0.00    -0.323 OA
HETATM   32  C   UNL     1      41.506 -15.710  -0.685  1.00  0.00     0.040 A 
HETATM   33  C   UNL     1      40.489 -13.579  -3.285  1.00  0.00     0.352 A 
HETATM   34  C   UNL     1      40.933 -15.776   0.588  1.00  0.00     0.012 A 
ENDBRANCH  25  26
ENDBRANCH   4  25
BRANCH  11  35
HETATM   35  C   UNL     1      44.792 -13.374   7.731  1.00  0.00     0.252 C 
HETATM   36  N   UNL     1      44.327 -12.906   8.944  1.00  0.00    -0.352 N 
HETATM   37  H   UNL     1      43.338 -12.902   9.144  1.00  0.00     0.163 HD
HETATM   38  O   UNL     1      45.970 -13.296   7.395  1.00  0.00    -0.268 OA
BRANCH  36  39
HETATM   39  C   UNL     1      45.219 -12.245   9.896  1.00  0.00     0.084 C 
HETATM   40  C   UNL     1      45.157 -10.719   9.735  1.00  0.00     0.025 C 
HETATM   41  C   UNL     1      43.867 -10.112  10.288  1.00  0.00     0.002 C 
HETATM   42  C   UNL     1      43.623 -10.529  11.734  1.00  0.00     0.000 C 
HETATM   43  C   UNL     1      43.629 -12.047  11.884  1.00  0.00     0.002 C 
HETATM   44  C   UNL     1      44.921 -12.658  11.345  1.00  0.00     0.025 C 
ENDBRANCH  36  39
ENDBRANCH  11  35
TORSDOF 7
ENDMDL
MODEL 4
REMARK VINA RESULT:      -9.6      2.669      9.179
REMARK  7 active torsions:
REMARK  status: ('A' for Active; 'I' for Inactive)
REMARK    1  A    between atoms: C_3  and  N_4 
REMARK       I    between atoms: N_4  and  C_5 
REMARK    2  A    between atoms: C_5  and  C_6 
REMARK    3  A    between atoms: C_6  and  N_7 
REMARK    4  A    between atoms: N_10  and  C_11 
REMARK    5  A    between atoms: C_11  and  C_12 
REMARK    6  A    between atoms: C_27  and  C_28 
REMARK       I    between atoms: C_28  and  N_29 
REMARK    7  A    between atoms: N_29  and  C_30 
ROOT
HETATM    1  N   UNL     1      40.884 -13.542   5.015  1.00  0.00    -0.290 N 
HETATM    2  C   UNL     1      40.048 -13.622   3.900  1.00  0.00     0.332 C 
HETATM    3  O   UNL     1      39.570 -14.705   3.547  1.00  0.00    -0.246 OA
HETATM    4  N   UNL     1      39.754 -12.437   3.245  1.00  0.00    -0.261 N 
HETATM    5  C   UNL     1      40.024 -11.179   3.754  1.00  0.00     0.264 C 
HETATM    6  O   UNL     1      39.680 -10.128   3.218  1.00  0.00    -0.267 OA
HETATM    7  C   UNL     1      40.734 -11.120   5.042  1.00  0.00     0.059 A 
HETATM    8  C   UNL     1      41.194 -12.297   5.630  1.00  0.00     0.056 A 
HETATM    9  C   UNL     1      40.900  -9.876   5.675  1.00  0.00     0.020 A 
HETATM   10  C   UNL     1      41.541  -9.789   6.911  1.00  0.00     0.018 A 
HETATM   11  C   UNL     1      42.055 -10.945   7.499  1.00  0.00     0.034 A 
HETATM   12  C   UNL     1      41.889 -12.186   6.845  1.00  0.00     0.048 A 
ENDROOT
BRANCH   1  13
HETATM   13  C   UNL     1      41.172 -14.826   5.653  1.00  0.00     0.237 C 
BRANCH  13  14
HETATM   14  C   UNL     1      42.315 -15.591   4.955  1.00  0.00     0.240 C 
HETATM   15  N   UNL     1      41.906 -16.837   4.509  1.00  0.00    -0.323 N 
HETATM   16  H   UNL     1      40.913 -17.047   4.554  1.00  0.00     0.169 HD
HETATM   17  O   UNL     1      43.450 -15.127   4.877  1.00  0.00    -0.271 OA
BRANCH  15  18
HETATM   18  C   UNL     1      42.670 -17.846   3.889  1.00  0.00     0.073 A 
HETATM   19  C   UNL     1      43.599 -18.656   4.538  1.00  0.00     0.033 A 
HETATM   20  C   UNL     1      44.294 -19.640   3.820  1.00  0.00     0.002 A 
HETATM   21  C   UNL     1      44.064 -19.822   2.454  1.00  0.00     0.003 A 
HETATM   22  C   UNL     1      43.137 -19.019   1.797  1.00  0.00     0.044 A 
HETATM   23  C   UNL     1      42.455 -18.042   2.516  1.00  0.00     0.143 A 
HETATM   24  F   UNL     1      41.557 -17.275   1.875  1.00  0.00    -0.204 F 
ENDBRANCH  15  18
ENDBRANCH  13  14
ENDBRANCH   1  13
BRANCH   4  25
HETATM   25  C   UNL     1      38.946 -12.524   2.034  1.00  0.00     0.175 C 
BRANCH  25  26
HETATM   26  C   UNL     1      39.750 -12.876   0.798  1.00  0.00    -0.037 A 
HETATM   27  C   UNL     1      40.856 -12.101   0.413  1.00  0.00     0.048 A 
HETATM   28  C   UNL     1      41.544 -12.471  -0.724  1.00  0.00     0.105 A 
HETATM   29  C   UNL     1      41.169 -13.558  -1.481  1.00  0.00     0.105 A 
HETATM   30  O   UNL     1      42.638 -11.842  -1.232  1.00  0.00    -0.323 OA
HETATM   31  O   UNL     1      41.977 -13.747  -2.557  1.00  0.00    -0.323 OA
HETATM   32  C   UNL     1      40.086 -14.336  -1.143  1.00  0.00     0.040 A 
HETATM   33  C   UNL     1      42.924 -12.674  -2.375  1.00  0.00     0.352 A 
HETATM   34  C   UNL     1      39.372 -13.990   0.008  1.00  0.00     0.012 A 
ENDBRANCH  25  26
ENDBRANCH   4  25
BRANCH  11  35
HETATM   35  C   UNL     1      42.736 -10.953   8.830  1.00  0.00     0.252 C 
HETATM   36  N   UNL     1      41.945 -10.938   9.961  1.00  0.00    -0.352 N 
HETATM   37  H   UNL     1      40.944 -10.837   9.881  1.00  0.00     0.163 HD
HETATM   38  O   UNL     1      43.963 -10.960   8.876  1.00  0.00    -0.268 OA
BRANCH  36  39
HETATM   39  C   UNL     1      42.531 -10.889  11.299  1.00  0.00     0.084 C 
HETATM   40  C   UNL     1      43.056  -9.481  11.616  1.00  0.00     0.025 C 
HETATM   41  C   UNL     1      41.937  -8.479  11.905  1.00  0.00     0.002 C 
HETATM   42  C   UNL     1      40.998  -8.982  12.995  1.00  0.00     0.000 C 
HETATM   43  C   UNL     1      40.433 -10.357  12.653  1.00  0.00     0.002 C 
HETATM   44  C   UNL     1      41.546 -11.366  12.377  1.00  0.00     0.025 C 
ENDBRANCH  36  39
ENDBRANCH  11  35
TORSDOF 7
ENDMDL
MODEL 5
REMARK VINA RESULT:      -9.3      2.523      5.094
REMARK  7 active torsions:
REMARK  status: ('A' for Active; 'I' for Inactive)
REMARK    1  A    between atoms: C_3  and  N_4 
REMARK       I    between atoms: N_4  and  C_5 
REMARK    2  A    between atoms: C_5  and  C_6 
REMARK    3  A    between atoms: C_6  and  N_7 
REMARK    4  A    between atoms: N_10  and  C_11 
REMARK    5  A    between atoms: C_11  and  C_12 
REMARK    6  A    between atoms: C_27  and  C_28 
REMARK       I    between atoms: C_28  and  N_29 
REMARK    7  A    between atoms: N_29  and  C_30 
ROOT
HETATM    1  N   UNL     1      41.164 -12.190   6.351  1.00  0.00    -0.290 N 
HETATM    2  C   UNL     1      40.941 -11.113   7.209  1.00  0.00     0.332 C 
HETATM    3  O   UNL     1      39.820 -10.601   7.301  1.00  0.00    -0.246 OA
HETATM    4  N   UNL     1      42.014 -10.679   7.970  1.00  0.00    -0.261 N 
HETATM    5  C   UNL     1      43.197 -11.381   8.119  1.00  0.00     0.264 C 
HETATM    6  O   UNL     1      44.113 -11.045   8.867  1.00  0.00    -0.267 OA
HETATM    7  C   UNL     1      43.330 -12.632   7.353  1.00  0.00     0.059 A 
HETATM    8  C   UNL     1      42.334 -12.994   6.447  1.00  0.00     0.056 A 
HETATM    9  C   UNL     1      44.444 -13.459   7.580  1.00  0.00     0.020 A 
HETATM   10  C   UNL     1      44.584 -14.665   6.893  1.00  0.00     0.018 A 
HETATM   11  C   UNL     1      43.627 -15.027   5.944  1.00  0.00     0.034 A 
HETATM   12  C   UNL     1      42.520 -14.181   5.720  1.00  0.00     0.048 A 
ENDROOT
BRANCH   1  13
HETATM   13  C   UNL     1      40.000 -12.591   5.561  1.00  0.00     0.237 C 
BRANCH  13  14
HETATM   14  C   UNL     1      40.132 -12.206   4.073  1.00  0.00     0.240 C 
HETATM   15  N   UNL     1      40.316 -13.316   3.267  1.00  0.00    -0.323 N 
HETATM   16  H   UNL     1      40.204 -14.230   3.696  1.00  0.00     0.169 HD
HETATM   17  O   UNL     1      40.122 -11.033   3.706  1.00  0.00    -0.271 OA
BRANCH  15  18
HETATM   18  C   UNL     1      40.541 -13.368   1.876  1.00  0.00     0.073 A 
HETATM   19  C   UNL     1      41.682 -12.891   1.234  1.00  0.00     0.033 A 
HETATM   20  C   UNL     1      41.803 -13.009  -0.158  1.00  0.00     0.002 A 
HETATM   21  C   UNL     1      40.790 -13.603  -0.915  1.00  0.00     0.003 A 
HETATM   22  C   UNL     1      39.648 -14.083  -0.282  1.00  0.00     0.044 A 
HETATM   23  C   UNL     1      39.534 -13.959   1.099  1.00  0.00     0.143 A 
HETATM   24  F   UNL     1      38.430 -14.432   1.703  1.00  0.00    -0.204 F 
ENDBRANCH  15  18
ENDBRANCH  13  14
ENDBRANCH   1  13
BRANCH   4  25
HETATM   25  C   UNL     1      41.809  -9.504   8.811  1.00  0.00     0.175 C 
BRANCH  25  26
HETATM   26  C   UNL     1      41.659  -9.837  10.282  1.00  0.00    -0.037 A 
HETATM   27  C   UNL     1      42.532  -9.288  11.237  1.00  0.00     0.048 A 
HETATM   28  C   UNL     1      42.345  -9.633  12.560  1.00  0.00     0.105 A 
HETATM   29  C   UNL     1      41.349 -10.496  12.954  1.00  0.00     0.105 A 
HETATM   30  O   UNL     1      43.088  -9.189  13.610  1.00  0.00    -0.323 OA
HETATM   31  O   UNL     1      41.340 -10.704  14.297  1.00  0.00    -0.323 OA
HETATM   32  C   UNL     1      40.481 -11.063  12.048  1.00  0.00     0.040 A 
HETATM   33  C   UNL     1      42.425  -9.847  14.709  1.00  0.00     0.352 A 
HETATM   34  C   UNL     1      40.640 -10.727  10.701  1.00  0.00     0.012 A 
ENDBRANCH  25  26
ENDBRANCH   4  25
BRANCH  11  35
HETATM   35  C   UNL     1      43.681 -16.309   5.177  1.00  0.00     0.252 C 
HETATM   36  N   UNL     1      43.392 -16.268   3.827  1.00  0.00    -0.352 N 
HETATM   37  H   UNL     1      43.071 -15.411   3.401  1.00  0.00     0.163 HD
HETATM   38  O   UNL     1      43.965 -17.349   5.764  1.00  0.00    -0.268 OA
BRANCH  36  39
HETATM   39  C   UNL     1      43.369 -17.484   3.017  1.00  0.00     0.084 C 
HETATM   40  C   UNL     1      41.980 -18.138   3.049  1.00  0.00     0.025 C 
HETATM   41  C   UNL     1      40.944 -17.381   2.216  1.00  0.00     0.002 C 
HETATM   42  C   UNL     1      41.423 -17.163   0.786  1.00  0.00     0.000 C 
HETATM   43  C   UNL     1      42.777 -16.463   0.752  1.00  0.00     0.002 C 
HETATM   44  C   UNL     1      43.820 -17.221   1.571  1.00  0.00     0.025 C 
ENDBRANCH  36  39
ENDBRANCH  11  35
TORSDOF 7
ENDMDL
MODEL 6
REMARK VINA RESULT:      -9.2      5.157      9.655
REMARK  7 active torsions:
REMARK  status: ('A' for Active; 'I' for Inactive)
REMARK    1  A    between atoms: C_3  and  N_4 
REMARK       I    between atoms: N_4  and  C_5 
REMARK    2  A    between atoms: C_5  and  C_6 
REMARK    3  A    between atoms: C_6  and  N_7 
REMARK    4  A    between atoms: N_10  and  C_11 
REMARK    5  A    between atoms: C_11  and  C_12 
REMARK    6  A    between atoms: C_27  and  C_28 
REMARK       I    between atoms: C_28  and  N_29 
REMARK    7  A    between atoms: N_29  and  C_30 
ROOT
HETATM    1  N   UNL     1      42.073 -14.181   3.005  1.00  0.00    -0.290 N 
HETATM    2  C   UNL     1      43.002 -15.123   3.449  1.00  0.00     0.332 C 
HETATM    3  O   UNL     1      44.079 -15.272   2.862  1.00  0.00    -0.246 OA
HETATM    4  N   UNL     1      42.677 -15.842   4.588  1.00  0.00    -0.261 N 
HETATM    5  C   UNL     1      41.632 -15.524   5.437  1.00  0.00     0.264 C 
HETATM    6  O   UNL     1      41.400 -16.104   6.496  1.00  0.00    -0.267 OA
HETATM    7  C   UNL     1      40.780 -14.388   5.048  1.00  0.00     0.059 A 
HETATM    8  C   UNL     1      40.983 -13.764   3.818  1.00  0.00     0.056 A 
HETATM    9  C   UNL     1      39.800 -13.929   5.945  1.00  0.00     0.020 A 
HETATM   10  C   UNL     1      38.997 -12.836   5.620  1.00  0.00     0.018 A 
HETATM   11  C   UNL     1      39.145 -12.224   4.375  1.00  0.00     0.034 A 
HETATM   12  C   UNL     1      40.126 -12.703   3.481  1.00  0.00     0.048 A 
ENDROOT
BRANCH   1  13
HETATM   13  C   UNL     1      42.463 -13.466   1.790  1.00  0.00     0.237 C 
BRANCH  13  14
HETATM   14  C   UNL     1      41.721 -13.977   0.538  1.00  0.00     0.240 C 
HETATM   15  N   UNL     1      40.955 -12.984  -0.049  1.00  0.00    -0.323 N 
HETATM   16  H   UNL     1      41.069 -12.037   0.300  1.00  0.00     0.169 HD
HETATM   17  O   UNL     1      41.793 -15.150   0.177  1.00  0.00    -0.271 OA
BRANCH  15  18
HETATM   18  C   UNL     1      40.090 -13.078  -1.159  1.00  0.00     0.073 A 
HETATM   19  C   UNL     1      40.469 -12.875  -2.484  1.00  0.00     0.033 A 
HETATM   20  C   UNL     1      39.523 -13.009  -3.511  1.00  0.00     0.002 A 
HETATM   21  C   UNL     1      38.198 -13.347  -3.221  1.00  0.00     0.003 A 
HETATM   22  C   UNL     1      37.812 -13.553  -1.901  1.00  0.00     0.044 A 
HETATM   23  C   UNL     1      38.756 -13.414  -0.888  1.00  0.00     0.143 A 
HETATM   24  F   UNL     1      38.375 -13.621   0.384  1.00  0.00    -0.204 F 
ENDBRANCH  15  18
ENDBRANCH  13  14
ENDBRANCH   1  13
BRANCH   4  25
HETATM   25  C   UNL     1      43.608 -16.882   5.012  1.00  0.00     0.175 C 
BRANCH  25  26
HETATM   26  C   UNL     1      43.587 -18.108   4.120  1.00  0.00    -0.037 A 
HETATM   27  C   UNL     1      44.382 -19.227   4.415  1.00  0.00     0.048 A 
HETATM   28  C   UNL     1      44.320 -20.310   3.562  1.00  0.00     0.105 A 
HETATM   29  C   UNL     1      43.521 -20.311   2.442  1.00  0.00     0.105 A 
HETATM   30  O   UNL     1      45.012 -21.473   3.702  1.00  0.00    -0.323 OA
HETATM   31  O   UNL     1      43.609 -21.470   1.738  1.00  0.00    -0.323 OA
HETATM   32  C   UNL     1      42.736 -19.229   2.113  1.00  0.00     0.040 A 
HETATM   33  C   UNL     1      44.532 -22.214   2.561  1.00  0.00     0.352 A 
HETATM   34  C   UNL     1      42.771 -18.120   2.962  1.00  0.00     0.012 A 
ENDBRANCH  25  26
ENDBRANCH   4  25
BRANCH  11  35
HETATM   35  C   UNL     1      38.346 -11.034   3.948  1.00  0.00     0.252 C 
HETATM   36  N   UNL     1      37.842 -11.021   2.663  1.00  0.00    -0.352 N 
HETATM   37  H   UNL     1      38.083 -11.755   2.013  1.00  0.00     0.163 HD
HETATM   38  O   UNL     1      38.176 -10.111   4.739  1.00  0.00    -0.268 OA
BRANCH  36  39
HETATM   39  C   UNL     1      37.097  -9.873   2.150  1.00  0.00     0.084 C 
HETATM   40  C   UNL     1      37.913  -9.121   1.087  1.00  0.00     0.025 C 
HETATM   41  C   UNL     1      37.984  -9.865  -0.247  1.00  0.00     0.002 C 
HETATM   42  C   UNL     1      36.596 -10.227  -0.764  1.00  0.00     0.000 C 
HETATM   43  C   UNL     1      35.806 -11.021   0.270  1.00  0.00     0.002 C 
HETATM   44  C   UNL     1      35.720 -10.278   1.602  1.00  0.00     0.025 C 
ENDBRANCH  36  39
ENDBRANCH  11  35
TORSDOF 7
ENDMDL
MODEL 7
REMARK VINA RESULT:      -9.1      4.800      7.760
REMARK  7 active torsions:
REMARK  status: ('A' for Active; 'I' for Inactive)
REMARK    1  A    between atoms: C_3  and  N_4 
REMARK       I    between atoms: N_4  and  C_5 
REMARK    2  A    between atoms: C_5  and  C_6 
REMARK    3  A    between atoms: C_6  and  N_7 
REMARK    4  A    between atoms: N_10  and  C_11 
REMARK    5  A    between atoms: C_11  and  C_12 
REMARK    6  A    between atoms: C_27  and  C_28 
REMARK       I    between atoms: C_28  and  N_29 
REMARK    7  A    between atoms: N_29  and  C_30 
ROOT
HETATM    1  N   UNL     1      40.799 -14.705   1.097  1.00  0.00    -0.290 N 
HETATM    2  C   UNL     1      41.356 -14.325   2.319  1.00  0.00     0.332 C 
HETATM    3  O   UNL     1      42.480 -14.717   2.649  1.00  0.00    -0.246 OA
HETATM    4  N   UNL     1      40.613 -13.467   3.113  1.00  0.00    -0.261 N 
HETATM    5  C   UNL     1      39.493 -12.779   2.678  1.00  0.00     0.264 C 
HETATM    6  O   UNL     1      38.888 -11.947   3.351  1.00  0.00    -0.267 OA
HETATM    7  C   UNL     1      39.039 -13.046   1.303  1.00  0.00     0.059 A 
HETATM    8  C   UNL     1      39.668 -14.037   0.550  1.00  0.00     0.056 A 
HETATM    9  C   UNL     1      38.001 -12.268   0.762  1.00  0.00     0.020 A 
HETATM   10  C   UNL     1      37.568 -12.475  -0.548  1.00  0.00     0.018 A 
HETATM   11  C   UNL     1      38.146 -13.493  -1.307  1.00  0.00     0.034 A 
HETATM   12  C   UNL     1      39.180 -14.273  -0.746  1.00  0.00     0.048 A 
ENDROOT
BRANCH   1  13
HETATM   13  C   UNL     1      41.622 -15.625   0.312  1.00  0.00     0.237 C 
BRANCH  13  14
HETATM   14  C   UNL     1      41.709 -17.028   0.946  1.00  0.00     0.240 C 
HETATM   15  N   UNL     1      42.959 -17.272   1.491  1.00  0.00    -0.323 N 
HETATM   16  H   UNL     1      43.607 -16.491   1.545  1.00  0.00     0.169 HD
HETATM   17  O   UNL     1      40.769 -17.818   0.899  1.00  0.00    -0.271 OA
BRANCH  15  18
HETATM   18  C   UNL     1      43.443 -18.451   2.093  1.00  0.00     0.073 A 
HETATM   19  C   UNL     1      43.522 -19.692   1.466  1.00  0.00     0.033 A 
HETATM   20  C   UNL     1      44.036 -20.797   2.161  1.00  0.00     0.002 A 
HETATM   21  C   UNL     1      44.473 -20.668   3.482  1.00  0.00     0.003 A 
HETATM   22  C   UNL     1      44.399 -19.432   4.116  1.00  0.00     0.044 A 
HETATM   23  C   UNL     1      43.885 -18.342   3.420  1.00  0.00     0.143 A 
HETATM   24  F   UNL     1      43.822 -17.150   4.038  1.00  0.00    -0.204 F 
ENDBRANCH  15  18
ENDBRANCH  13  14
ENDBRANCH   1  13
BRANCH   4  25
HETATM   25  C   UNL     1      41.154 -13.129   4.424  1.00  0.00     0.175 C 
BRANCH  25  26
HETATM   26  C   UNL     1      41.452 -14.342   5.282  1.00  0.00    -0.037 A 
HETATM   27  C   UNL     1      42.718 -14.518   5.865  1.00  0.00     0.048 A 
HETATM   28  C   UNL     1      42.927 -15.646   6.632  1.00  0.00     0.105 A 
HETATM   29  C   UNL     1      41.944 -16.589   6.825  1.00  0.00     0.105 A 
HETATM   30  O   UNL     1      44.083 -15.968   7.274  1.00  0.00    -0.323 OA
HETATM   31  O   UNL     1      42.356 -17.620   7.609  1.00  0.00    -0.323 OA
HETATM   32  C   UNL     1      40.695 -16.458   6.262  1.00  0.00     0.040 A 
HETATM   33  C   UNL     1      43.703 -17.203   7.915  1.00  0.00     0.352 A 
HETATM   34  C   UNL     1      40.450 -15.322   5.485  1.00  0.00     0.012 A 
ENDBRANCH  25  26
ENDBRANCH   4  25
BRANCH  11  35
HETATM   35  C   UNL     1      37.764 -13.774  -2.725  1.00  0.00     0.252 C 
HETATM   36  N   UNL     1      36.882 -12.908  -3.341  1.00  0.00    -0.352 N 
HETATM   37  H   UNL     1      36.450 -12.163  -2.816  1.00  0.00     0.163 HD
HETATM   38  O   UNL     1      38.228 -14.761  -3.287  1.00  0.00    -0.268 OA
BRANCH  36  39
HETATM   39  C   UNL     1      36.416 -13.141  -4.706  1.00  0.00     0.084 C 
HETATM   40  C   UNL     1      35.077 -13.895  -4.706  1.00  0.00     0.025 C 
HETATM   41  C   UNL     1      33.897 -13.015  -4.291  1.00  0.00     0.002 C 
HETATM   42  C   UNL     1      33.821 -11.744  -5.128  1.00  0.00     0.000 C 
HETATM   43  C   UNL     1      35.132 -10.967  -5.084  1.00  0.00     0.002 C 
HETATM   44  C   UNL     1      36.313 -11.836  -5.510  1.00  0.00     0.025 C 
ENDBRANCH  36  39
ENDBRANCH  11  35
TORSDOF 7
ENDMDL
MODEL 8
REMARK VINA RESULT:      -8.8      5.140      9.867
REMARK  7 active torsions:
REMARK  status: ('A' for Active; 'I' for Inactive)
REMARK    1  A    between atoms: C_3  and  N_4 
REMARK       I    between atoms: N_4  and  C_5 
REMARK    2  A    between atoms: C_5  and  C_6 
REMARK    3  A    between atoms: C_6  and  N_7 
REMARK    4  A    between atoms: N_10  and  C_11 
REMARK    5  A    between atoms: C_11  and  C_12 
REMARK    6  A    between atoms: C_27  and  C_28 
REMARK       I    between atoms: C_28  and  N_29 
REMARK    7  A    between atoms: N_29  and  C_30 
ROOT
HETATM    1  N   UNL     1      40.513 -12.000   1.821  1.00  0.00    -0.290 N 
HETATM    2  C   UNL     1      41.741 -12.620   2.054  1.00  0.00     0.332 C 
HETATM    3  O   UNL     1      42.490 -12.907   1.114  1.00  0.00    -0.246 OA
HETATM    4  N   UNL     1      42.090 -12.857   3.374  1.00  0.00    -0.261 N 
HETATM    5  C   UNL     1      41.433 -12.309   4.461  1.00  0.00     0.264 C 
HETATM    6  O   UNL     1      41.797 -12.443   5.628  1.00  0.00    -0.267 OA
HETATM    7  C   UNL     1      40.247 -11.484   4.178  1.00  0.00     0.059 A 
HETATM    8  C   UNL     1      39.778 -11.379   2.869  1.00  0.00     0.056 A 
HETATM    9  C   UNL     1      39.633 -10.784   5.231  1.00  0.00     0.020 A 
HETATM   10  C   UNL     1      38.526  -9.969   4.990  1.00  0.00     0.018 A 
HETATM   11  C   UNL     1      38.005  -9.885   3.699  1.00  0.00     0.034 A 
HETATM   12  C   UNL     1      38.627 -10.602   2.654  1.00  0.00     0.048 A 
ENDROOT
BRANCH   1  13
HETATM   13  C   UNL     1      40.193 -11.792   0.409  1.00  0.00     0.237 C 
BRANCH  13  14
HETATM   14  C   UNL     1      39.469 -13.002  -0.218  1.00  0.00     0.240 C 
HETATM   15  N   UNL     1      39.888 -13.238  -1.516  1.00  0.00    -0.323 N 
HETATM   16  H   UNL     1      40.689 -12.712  -1.853  1.00  0.00     0.169 HD
HETATM   17  O   UNL     1      38.594 -13.617   0.388  1.00  0.00    -0.271 OA
BRANCH  15  18
HETATM   18  C   UNL     1      39.418 -14.202  -2.432  1.00  0.00     0.073 A 
HETATM   19  C   UNL     1      38.215 -14.120  -3.129  1.00  0.00     0.033 A 
HETATM   20  C   UNL     1      37.856 -15.134  -4.028  1.00  0.00     0.002 A 
HETATM   21  C   UNL     1      38.695 -16.233  -4.237  1.00  0.00     0.003 A 
HETATM   22  C   UNL     1      39.898 -16.322  -3.546  1.00  0.00     0.044 A 
HETATM   23  C   UNL     1      40.245 -15.313  -2.653  1.00  0.00     0.143 A 
HETATM   24  F   UNL     1      41.413 -15.405  -1.994  1.00  0.00    -0.204 F 
ENDBRANCH  15  18
ENDBRANCH  13  14
ENDBRANCH   1  13
BRANCH   4  25
HETATM   25  C   UNL     1      43.335 -13.575   3.620  1.00  0.00     0.175 C 
BRANCH  25  26
HETATM   26  C   UNL     1      43.192 -15.081   3.515  1.00  0.00    -0.037 A 
HETATM   27  C   UNL     1      43.721 -15.780   2.418  1.00  0.00     0.048 A 
HETATM   28  C   UNL     1      43.554 -17.149   2.380  1.00  0.00     0.105 A 
HETATM   29  C   UNL     1      42.881 -17.829   3.370  1.00  0.00     0.105 A 
HETATM   30  O   UNL     1      44.009 -17.979   1.402  1.00  0.00    -0.323 OA
HETATM   31  O   UNL     1      42.828 -19.167   3.139  1.00  0.00    -0.323 OA
HETATM   32  C   UNL     1      42.339 -17.178   4.455  1.00  0.00     0.040 A 
HETATM   33  C   UNL     1      43.572 -19.258   1.907  1.00  0.00     0.352 A 
HETATM   34  C   UNL     1      42.499 -15.792   4.525  1.00  0.00     0.012 A 
ENDBRANCH  25  26
ENDBRANCH   4  25
BRANCH  11  35
HETATM   35  C   UNL     1      36.839  -9.021   3.342  1.00  0.00     0.252 C 
HETATM   36  N   UNL     1      35.590  -9.403   3.791  1.00  0.00    -0.352 N 
HETATM   37  H   UNL     1      35.468 -10.283   4.269  1.00  0.00     0.163 HD
HETATM   38  O   UNL     1      37.021  -8.019   2.658  1.00  0.00    -0.268 OA
BRANCH  36  39
HETATM   39  C   UNL     1      34.391  -8.644   3.441  1.00  0.00     0.084 C 
HETATM   40  C   UNL     1      33.680  -9.271   2.232  1.00  0.00     0.025 C 
HETATM   41  C   UNL     1      32.944 -10.566   2.577  1.00  0.00     0.002 C 
HETATM   42  C   UNL     1      31.987 -10.374   3.748  1.00  0.00     0.000 C 
HETATM   43  C   UNL     1      32.704  -9.804   4.967  1.00  0.00     0.002 C 
HETATM   44  C   UNL     1      33.431  -8.503   4.632  1.00  0.00     0.025 C 
ENDBRANCH  36  39
ENDBRANCH  11  35
TORSDOF 7
ENDMDL
MODEL 9
REMARK VINA RESULT:      -8.8      3.345      9.115
REMARK  7 active torsions:
REMARK  status: ('A' for Active; 'I' for Inactive)
REMARK    1  A    between atoms: C_3  and  N_4 
REMARK       I    between atoms: N_4  and  C_5 
REMARK    2  A    between atoms: C_5  and  C_6 
REMARK    3  A    between atoms: C_6  and  N_7 
REMARK    4  A    between atoms: N_10  and  C_11 
REMARK    5  A    between atoms: C_11  and  C_12 
REMARK    6  A    between atoms: C_27  and  C_28 
REMARK       I    between atoms: C_28  and  N_29 
REMARK    7  A    between atoms: N_29  and  C_30 
ROOT
HETATM    1  N   UNL     1      39.786 -12.833   4.655  1.00  0.00    -0.290 N 
HETATM    2  C   UNL     1      39.380 -12.678   3.329  1.00  0.00     0.332 C 
HETATM    3  O   UNL     1      39.143 -13.663   2.622  1.00  0.00    -0.246 OA
HETATM    4  N   UNL     1      39.221 -11.383   2.864  1.00  0.00    -0.261 N 
HETATM    5  C   UNL     1      39.195 -10.263   3.676  1.00  0.00     0.264 C 
HETATM    6  O   UNL     1      38.961  -9.124   3.278  1.00  0.00    -0.267 OA
HETATM    7  C   UNL     1      39.427 -10.477   5.115  1.00  0.00     0.059 A 
HETATM    8  C   UNL     1      39.764 -11.749   5.576  1.00  0.00     0.056 A 
HETATM    9  C   UNL     1      39.265  -9.400   6.002  1.00  0.00     0.020 A 
HETATM   10  C   UNL     1      39.446  -9.577   7.374  1.00  0.00     0.018 A 
HETATM   11  C   UNL     1      39.833 -10.827   7.858  1.00  0.00     0.034 A 
HETATM   12  C   UNL     1      40.002 -11.897   6.952  1.00  0.00     0.048 A 
ENDROOT
BRANCH   1  13
HETATM   13  C   UNL     1      39.954 -14.222   5.082  1.00  0.00     0.237 C 
BRANCH  13  14
HETATM   14  C   UNL     1      41.313 -14.813   4.652  1.00  0.00     0.240 C 
HETATM   15  N   UNL     1      41.164 -15.820   3.714  1.00  0.00    -0.323 N 
HETATM   16  H   UNL     1      40.239 -15.959   3.318  1.00  0.00     0.169 HD
HETATM   17  O   UNL     1      42.370 -14.435   5.153  1.00  0.00    -0.271 OA
BRANCH  15  18
HETATM   18  C   UNL     1      42.155 -16.639   3.134  1.00  0.00     0.073 A 
HETATM   19  C   UNL     1      42.990 -16.259   2.085  1.00  0.00     0.033 A 
HETATM   20  C   UNL     1      43.952 -17.154   1.596  1.00  0.00     0.002 A 
HETATM   21  C   UNL     1      44.088 -18.429   2.152  1.00  0.00     0.003 A 
HETATM   22  C   UNL     1      43.260 -18.816   3.201  1.00  0.00     0.044 A 
HETATM   23  C   UNL     1      42.305 -17.923   3.677  1.00  0.00     0.143 A 
HETATM   24  F   UNL     1      41.514 -18.303   4.695  1.00  0.00    -0.204 F 
ENDBRANCH  15  18
ENDBRANCH  13  14
ENDBRANCH   1  13
BRANCH   4  25
HETATM   25  C   UNL     1      38.873 -11.213   1.458  1.00  0.00     0.175 C 
BRANCH  25  26
HETATM   26  C   UNL     1      40.079 -11.180   0.540  1.00  0.00    -0.037 A 
HETATM   27  C   UNL     1      41.026 -10.146   0.631  1.00  0.00     0.048 A 
HETATM   28  C   UNL     1      42.099 -10.172  -0.235  1.00  0.00     0.105 A 
HETATM   29  C   UNL     1      42.253 -11.163  -1.177  1.00  0.00     0.105 A 
HETATM   30  O   UNL     1      43.108  -9.260  -0.277  1.00  0.00    -0.323 OA
HETATM   31  O   UNL     1      43.373 -11.000  -1.928  1.00  0.00    -0.323 OA
HETATM   32  C   UNL     1      41.341 -12.187  -1.304  1.00  0.00     0.040 A 
HETATM   33  C   UNL     1      43.927  -9.810  -1.331  1.00  0.00     0.352 A 
HETATM   34  C   UNL     1      40.247 -12.193  -0.436  1.00  0.00     0.012 A 
ENDBRANCH  25  26
ENDBRANCH   4  25
BRANCH  11  35
HETATM   35  C   UNL     1      40.029 -11.117   9.311  1.00  0.00     0.252 C 
HETATM   36  N   UNL     1      41.277 -10.884   9.854  1.00  0.00    -0.352 N 
HETATM   37  H   UNL     1      42.047 -10.610   9.263  1.00  0.00     0.163 HD
HETATM   38  O   UNL     1      39.091 -11.561   9.966  1.00  0.00    -0.268 OA
BRANCH  36  39
HETATM   39  C   UNL     1      41.567 -11.193  11.253  1.00  0.00     0.084 C 
HETATM   40  C   UNL     1      43.071 -11.419  11.464  1.00  0.00     0.025 C 
HETATM   41  C   UNL     1      43.882 -10.123  11.423  1.00  0.00     0.002 C 
HETATM   42  C   UNL     1      43.333  -9.086  12.397  1.00  0.00     0.000 C 
HETATM   43  C   UNL     1      41.852  -8.819  12.151  1.00  0.00     0.002 C 
HETATM   44  C   UNL     1      41.035 -10.109  12.204  1.00  0.00     0.025 C 
ENDBRANCH  36  39
ENDBRANCH  11  35
TORSDOF 7
ENDMDL
MODEL 10
REMARK VINA RESULT:      -8.6      4.089      9.630
REMARK  7 active torsions:
REMARK  status: ('A' for Active; 'I' for Inactive)
REMARK    1  A    between atoms: C_3  and  N_4 
REMARK       I    between atoms: N_4  and  C_5 
REMARK    2  A    between atoms: C_5  and  C_6 
REMARK    3  A    between atoms: C_6  and  N_7 
REMARK    4  A    between atoms: N_10  and  C_11 
REMARK    5  A    between atoms: C_11  and  C_12 
REMARK    6  A    between atoms: C_27  and  C_28 
REMARK       I    between atoms: C_28  and  N_29 
REMARK    7  A    between atoms: N_29  and  C_30 
ROOT
HETATM    1  N   UNL     1      40.524 -15.049   2.848  1.00  0.00    -0.290 N 
HETATM    2  C   UNL     1      39.909 -14.034   2.115  1.00  0.00     0.332 C 
HETATM    3  O   UNL     1      39.382 -13.074   2.687  1.00  0.00    -0.246 OA
HETATM    4  N   UNL     1      39.953 -14.134   0.734  1.00  0.00    -0.261 N 
HETATM    5  C   UNL     1      40.762 -15.021   0.045  1.00  0.00     0.264 C 
HETATM    6  O   UNL     1      40.872 -15.049  -1.179  1.00  0.00    -0.267 OA
HETATM    7  C   UNL     1      41.564 -15.956   0.851  1.00  0.00     0.059 A 
HETATM    8  C   UNL     1      41.399 -15.989   2.235  1.00  0.00     0.056 A 
HETATM    9  C   UNL     1      42.510 -16.774   0.210  1.00  0.00     0.020 A 
HETATM   10  C   UNL     1      43.308 -17.649   0.948  1.00  0.00     0.018 A 
HETATM   11  C   UNL     1      43.129 -17.738   2.329  1.00  0.00     0.034 A 
HETATM   12  C   UNL     1      42.167 -16.918   2.956  1.00  0.00     0.048 A 
ENDROOT
BRANCH   1  13
HETATM   13  C   UNL     1      40.429 -14.897   4.299  1.00  0.00     0.237 C 
BRANCH  13  14
HETATM   14  C   UNL     1      41.267 -13.714   4.826  1.00  0.00     0.240 C 
HETATM   15  N   UNL     1      40.469 -12.691   5.309  1.00  0.00    -0.323 N 
HETATM   16  H   UNL     1      39.474 -12.874   5.397  1.00  0.00     0.169 HD
HETATM   17  O   UNL     1      42.494 -13.708   4.755  1.00  0.00    -0.271 OA
BRANCH  15  18
HETATM   18  C   UNL     1      40.857 -11.430   5.808  1.00  0.00     0.073 A 
HETATM   19  C   UNL     1      40.998 -11.115   7.157  1.00  0.00     0.033 A 
HETATM   20  C   UNL     1      41.405  -9.828   7.537  1.00  0.00     0.002 A 
HETATM   21  C   UNL     1      41.673  -8.851   6.575  1.00  0.00     0.003 A 
HETATM   22  C   UNL     1      41.536  -9.157   5.225  1.00  0.00     0.044 A 
HETATM   23  C   UNL     1      41.129 -10.436   4.856  1.00  0.00     0.143 A 
HETATM   24  F   UNL     1      41.005 -10.725   3.550  1.00  0.00    -0.204 F 
ENDBRANCH  15  18
ENDBRANCH  13  14
ENDBRANCH   1  13
BRANCH   4  25
HETATM   25  C   UNL     1      39.245 -13.118  -0.036  1.00  0.00     0.175 C 
BRANCH  25  26
HETATM   26  C   UNL     1      40.167 -12.117  -0.703  1.00  0.00    -0.037 A 
HETATM   27  C   UNL     1      41.329 -11.666  -0.056  1.00  0.00     0.048 A 
HETATM   28  C   UNL     1      42.126 -10.752  -0.715  1.00  0.00     0.105 A 
HETATM   29  C   UNL     1      41.805 -10.274  -1.965  1.00  0.00     0.105 A 
HETATM   30  O   UNL     1      43.285 -10.220  -0.241  1.00  0.00    -0.323 OA
HETATM   31  O   UNL     1      42.719  -9.383  -2.432  1.00  0.00    -0.323 OA
HETATM   32  C   UNL     1      40.671 -10.684  -2.627  1.00  0.00     0.040 A 
HETATM   33  C   UNL     1      43.670  -9.379  -1.347  1.00  0.00     0.352 A 
HETATM   34  C   UNL     1      39.847 -11.615  -1.988  1.00  0.00     0.012 A 
ENDBRANCH  25  26
ENDBRANCH   4  25
BRANCH  11  35
HETATM   35  C   UNL     1      43.951 -18.629   3.204  1.00  0.00     0.252 C 
HETATM   36  N   UNL     1      44.228 -18.198   4.487  1.00  0.00    -0.352 N 
HETATM   37  H   UNL     1      43.954 -17.274   4.784  1.00  0.00     0.163 HD
HETATM   38  O   UNL     1      44.361 -19.696   2.758  1.00  0.00    -0.268 OA
BRANCH  36  39
HETATM   39  C   UNL     1      45.070 -18.984   5.387  1.00  0.00     0.084 C 
HETATM   40  C   UNL     1      45.571 -18.124   6.557  1.00  0.00     0.025 C 
HETATM   41  C   UNL     1      44.482 -17.827   7.589  1.00  0.00     0.002 C 
HETATM   42  C   UNL     1      43.811 -19.104   8.083  1.00  0.00     0.000 C 
HETATM   43  C   UNL     1      43.264 -19.930   6.924  1.00  0.00     0.002 C 
HETATM   44  C   UNL     1      44.350 -20.242   5.896  1.00  0.00     0.025 C 
ENDBRANCH  36  39
ENDBRANCH  11  35
TORSDOF 7
ENDMDL
