MODEL 1
REMARK VINA RESULT:      -9.7      0.000      0.000
REMARK  7 active torsions:
REMARK  status: ('A' for Active; 'I' for Inactive)
REMARK    1  A    between atoms: C_3  and  O_4 
REMARK    2  A    between atoms: C_9  and  N_10 
REMARK    3  A    between atoms: C_13  and  C_14 
REMARK       I    between atoms: C_14  and  N_15 
REMARK    4  A    between atoms: N_15  and  C_16 
REMARK    5  A    between atoms: C_16  and  C_17 
REMARK    6  A    between atoms: C_17  and  N_18 
REMARK       I    between atoms: N_18  and  C_19 
REMARK    7  A    between atoms: C_19  and  C_20 
ROOT
HETATM    1  N   UNL     1      42.627 -15.972   4.021  1.00  0.00    -0.268 NA
HETATM    2  C   UNL     1      43.699 -15.000   3.760  1.00  0.00     0.098 C 
HETATM    3  C   UNL     1      43.243 -13.607   4.190  1.00  0.00     0.029 C 
HETATM    4  C   UNL     1      42.802 -13.577   5.657  1.00  0.00     0.080 C 
HETATM    5  C   UNL     1      41.765 -14.677   5.917  1.00  0.00     0.029 C 
HETATM    6  C   UNL     1      42.236 -16.053   5.438  1.00  0.00     0.098 C 
ENDROOT
BRANCH   4   7
HETATM    7  C   UNL     1      43.979 -13.682   6.627  1.00  0.00     0.221 C 
HETATM    8  N   UNL     1      43.823 -12.962   7.787  1.00  0.00    -0.359 N 
HETATM    9  H   UNL     1      43.023 -12.359   7.917  1.00  0.00     0.162 HD
HETATM   10  O   UNL     1      44.967 -14.378   6.414  1.00  0.00    -0.273 OA
BRANCH   8  11
HETATM   11  C   UNL     1      44.847 -12.948   8.819  1.00  0.00     0.142 C 
BRANCH  11  12
HETATM   12  C   UNL     1      45.395 -11.541   9.095  1.00  0.00     0.142 C 
BRANCH  12  13
HETATM   13  N   UNL     1      44.802 -10.895  10.258  1.00  0.00    -0.355 N 
HETATM   14  C   UNL     1      43.559 -10.300  10.183  1.00  0.00     0.251 C 
HETATM   15  O   UNL     1      42.940 -10.181   9.131  1.00  0.00    -0.268 OA
HETATM   16  H   UNL     1      45.187 -11.146  11.158  1.00  0.00     0.162 HD
BRANCH  14  17
HETATM   17  C   UNL     1      42.954  -9.818  11.458  1.00  0.00     0.033 A 
HETATM   18  C   UNL     1      41.637  -9.351  11.542  1.00  0.00     0.036 A 
HETATM   19  C   UNL     1      41.140  -8.911  12.771  1.00  0.00     0.012 A 
HETATM   20 BR   UNL     1      39.364  -8.268  12.883  1.00  0.00    -0.051 Br
HETATM   21  C   UNL     1      41.933  -8.942  13.917  1.00  0.00     0.019 A 
HETATM   22  C   UNL     1      43.239  -9.420  13.840  1.00  0.00     0.002 A 
HETATM   23  C   UNL     1      43.746  -9.859  12.616  1.00  0.00     0.017 A 
ENDBRANCH  14  17
ENDBRANCH  12  13
ENDBRANCH  11  12
ENDBRANCH   8  11
ENDBRANCH   4   7
BRANCH   1  24
HETATM   24  C   UNL     1      42.911 -17.237   3.455  1.00  0.00     0.106 A 
HETATM   25  N   UNL     1      43.489 -18.196   4.212  1.00  0.00    -0.233 NA
HETATM   26  C   UNL     1      43.797 -19.402   3.683  1.00  0.00     0.102 A 
HETATM   27  C   UNL     1      44.404 -20.409   4.448  1.00  0.00     0.095 A 
HETATM   28  C   UNL     1      43.528 -19.701   2.333  1.00  0.00    -0.004 A 
HETATM   29  C   UNL     1      44.730 -21.662   3.916  1.00  0.00     0.039 A 
HETATM   30  C   UNL     1      44.447 -21.936   2.583  1.00  0.00     0.004 A 
HETATM   31  C   UNL     1      43.848 -20.959   1.792  1.00  0.00     0.014 A 
HETATM   32  C   UNL     1      42.944 -18.707   1.546  1.00  0.00     0.017 A 
HETATM   33  C   UNL     1      42.647 -17.469   2.108  1.00  0.00     0.045 A 
BRANCH  27  34
HETATM   34  O   UNL     1      44.696 -20.158   5.771  1.00  0.00    -0.358 OA
HETATM   35  H   UNL     1      44.885 -20.997   6.218  1.00  0.00     0.218 HD
ENDBRANCH  27  34
ENDBRANCH   1  24
TORSDOF 7
ENDMDL
MODEL 2
REMARK VINA RESULT:      -9.7      5.244      6.852
REMARK  7 active torsions:
REMARK  status: ('A' for Active; 'I' for Inactive)
REMARK    1  A    between atoms: C_3  and  O_4 
REMARK    2  A    between atoms: C_9  and  N_10 
REMARK    3  A    between atoms: C_13  and  C_14 
REMARK       I    between atoms: C_14  and  N_15 
REMARK    4  A    between atoms: N_15  and  C_16 
REMARK    5  A    between atoms: C_16  and  C_17 
REMARK    6  A    between atoms: C_17  and  N_18 
REMARK       I    between atoms: N_18  and  C_19 
REMARK    7  A    between atoms: C_19  and  C_20 
ROOT
HETATM    1  N   UNL     1      40.081 -15.411   0.923  1.00  0.00    -0.268 NA
HETATM    2  C   UNL     1      40.670 -14.306   0.151  1.00  0.00     0.098 C 
HETATM    3  C   UNL     1      39.589 -13.643  -0.700  1.00  0.00     0.029 C 
HETATM    4  C   UNL     1      38.404 -13.168   0.147  1.00  0.00     0.080 C 
HETATM    5  C   UNL     1      37.887 -14.319   1.020  1.00  0.00     0.029 C 
HETATM    6  C   UNL     1      39.001 -14.988   1.830  1.00  0.00     0.098 C 
ENDROOT
BRANCH   4   7
HETATM    7  C   UNL     1      38.740 -11.939   0.991  1.00  0.00     0.221 C 
HETATM    8  N   UNL     1      37.744 -11.557   1.857  1.00  0.00    -0.359 N 
HETATM    9  H   UNL     1      36.846 -12.021   1.849  1.00  0.00     0.162 HD
HETATM   10  O   UNL     1      39.820 -11.358   0.935  1.00  0.00    -0.273 OA
BRANCH   8  11
HETATM   11  C   UNL     1      37.894 -10.405   2.732  1.00  0.00     0.142 C 
BRANCH  11  12
HETATM   12  C   UNL     1      38.385 -10.784   4.136  1.00  0.00     0.142 C 
BRANCH  12  13
HETATM   13  N   UNL     1      39.721 -11.367   4.156  1.00  0.00    -0.355 N 
HETATM   14  C   UNL     1      39.957 -12.581   4.766  1.00  0.00     0.251 C 
HETATM   15  O   UNL     1      39.103 -13.178   5.413  1.00  0.00    -0.268 OA
HETATM   16  H   UNL     1      40.380 -11.006   3.479  1.00  0.00     0.162 HD
BRANCH  14  17
HETATM   17  C   UNL     1      41.309 -13.184   4.589  1.00  0.00     0.033 A 
HETATM   18  C   UNL     1      41.977 -13.859   5.618  1.00  0.00     0.036 A 
HETATM   19  C   UNL     1      43.245 -14.395   5.379  1.00  0.00     0.012 A 
HETATM   20 BR   UNL     1      44.154 -15.297   6.771  1.00  0.00    -0.051 Br
HETATM   21  C   UNL     1      43.849 -14.275   4.128  1.00  0.00     0.019 A 
HETATM   22  C   UNL     1      43.181 -13.617   3.098  1.00  0.00     0.002 A 
HETATM   23  C   UNL     1      41.915 -13.076   3.327  1.00  0.00     0.017 A 
ENDBRANCH  14  17
ENDBRANCH  12  13
ENDBRANCH  11  12
ENDBRANCH   8  11
ENDBRANCH   4   7
BRANCH   1  24
HETATM   24  C   UNL     1      41.069 -16.191   1.569  1.00  0.00     0.106 A 
HETATM   25  N   UNL     1      40.877 -16.593   2.844  1.00  0.00    -0.233 NA
HETATM   26  C   UNL     1      41.822 -17.313   3.492  1.00  0.00     0.102 A 
HETATM   27  C   UNL     1      41.647 -17.734   4.819  1.00  0.00     0.095 A 
HETATM   28  C   UNL     1      43.032 -17.668   2.863  1.00  0.00    -0.004 A 
HETATM   29  C   UNL     1      42.615 -18.479   5.502  1.00  0.00     0.039 A 
HETATM   30  C   UNL     1      43.797 -18.825   4.858  1.00  0.00     0.004 A 
HETATM   31  C   UNL     1      44.007 -18.420   3.542  1.00  0.00     0.014 A 
HETATM   32  C   UNL     1      43.237 -17.242   1.550  1.00  0.00     0.017 A 
HETATM   33  C   UNL     1      42.257 -16.491   0.908  1.00  0.00     0.045 A 
BRANCH  27  34
HETATM   34  O   UNL     1      40.484 -17.401   5.478  1.00  0.00    -0.358 OA
HETATM   35  H   UNL     1      40.039 -18.212   5.763  1.00  0.00     0.218 HD
ENDBRANCH  27  34
ENDBRANCH   1  24
TORSDOF 7
ENDMDL
MODEL 3
REMARK VINA RESULT:      -9.6      2.118      2.941
REMARK  7 active torsions:
REMARK  status: ('A' for Active; 'I' for Inactive)
REMARK    1  A    between atoms: C_3  and  O_4 
REMARK    2  A    between atoms: C_9  and  N_10 
REMARK    3  A    between atoms: C_13  and  C_14 
REMARK       I    between atoms: C_14  and  N_15 
REMARK    4  A    between atoms: N_15  and  C_16 
REMARK    5  A    between atoms: C_16  and  C_17 
REMARK    6  A    between atoms: C_17  and  N_18 
REMARK       I    between atoms: N_18  and  C_19 
REMARK    7  A    between atoms: C_19  and  C_20 
ROOT
HETATM    1  N   UNL     1      43.286 -15.706   3.031  1.00  0.00    -0.268 NA
HETATM    2  C   UNL     1      43.476 -15.232   4.410  1.00  0.00     0.098 C 
HETATM    3  C   UNL     1      43.427 -13.706   4.438  1.00  0.00     0.029 C 
HETATM    4  C   UNL     1      42.128 -13.164   3.830  1.00  0.00     0.080 C 
HETATM    5  C   UNL     1      41.908 -13.766   2.436  1.00  0.00     0.029 C 
HETATM    6  C   UNL     1      42.003 -15.294   2.436  1.00  0.00     0.098 C 
ENDROOT
BRANCH   4   7
HETATM    7  C   UNL     1      40.917 -13.394   4.733  1.00  0.00     0.221 C 
HETATM    8  N   UNL     1      40.657 -12.363   5.605  1.00  0.00    -0.359 N 
HETATM    9  H   UNL     1      41.284 -11.574   5.673  1.00  0.00     0.162 HD
HETATM   10  O   UNL     1      40.207 -14.392   4.667  1.00  0.00    -0.273 OA
BRANCH   8  11
HETATM   11  C   UNL     1      39.543 -12.416   6.538  1.00  0.00     0.142 C 
BRANCH  11  12
HETATM   12  C   UNL     1      39.579 -11.284   7.574  1.00  0.00     0.142 C 
BRANCH  12  13
HETATM   13  N   UNL     1      40.670 -11.397   8.532  1.00  0.00    -0.355 N 
HETATM   14  C   UNL     1      41.852 -10.711   8.346  1.00  0.00     0.251 C 
HETATM   15  O   UNL     1      42.097 -10.070   7.329  1.00  0.00    -0.268 OA
HETATM   16  H   UNL     1      40.430 -11.746   9.450  1.00  0.00     0.162 HD
BRANCH  14  17
HETATM   17  C   UNL     1      42.846 -10.745   9.458  1.00  0.00     0.033 A 
HETATM   18  C   UNL     1      42.585 -10.203  10.722  1.00  0.00     0.036 A 
HETATM   19  C   UNL     1      43.566 -10.269  11.714  1.00  0.00     0.012 A 
HETATM   20 BR   UNL     1      43.221  -9.525  13.419  1.00  0.00    -0.051 Br
HETATM   21  C   UNL     1      44.796 -10.876  11.466  1.00  0.00     0.019 A 
HETATM   22  C   UNL     1      45.053 -11.431  10.214  1.00  0.00     0.002 A 
HETATM   23  C   UNL     1      44.080 -11.368   9.215  1.00  0.00     0.017 A 
ENDBRANCH  14  17
ENDBRANCH  12  13
ENDBRANCH  11  12
ENDBRANCH   8  11
ENDBRANCH   4   7
BRANCH   1  24
HETATM   24  C   UNL     1      43.528 -17.095   2.911  1.00  0.00     0.106 A 
HETATM   25  N   UNL     1      43.895 -17.807   3.999  1.00  0.00    -0.233 NA
HETATM   26  C   UNL     1      44.161 -19.130   3.902  1.00  0.00     0.102 A 
HETATM   27  C   UNL     1      44.551 -19.887   5.016  1.00  0.00     0.095 A 
HETATM   28  C   UNL     1      44.064 -19.809   2.671  1.00  0.00    -0.004 A 
HETATM   29  C   UNL     1      44.830 -21.256   4.933  1.00  0.00     0.039 A 
HETATM   30  C   UNL     1      44.720 -21.906   3.709  1.00  0.00     0.004 A 
HETATM   31  C   UNL     1      44.339 -21.185   2.580  1.00  0.00     0.014 A 
HETATM   32  C   UNL     1      43.699 -19.072   1.544  1.00  0.00     0.017 A 
HETATM   33  C   UNL     1      43.442 -17.709   1.665  1.00  0.00     0.045 A 
BRANCH  27  34
HETATM   34  O   UNL     1      44.669 -19.264   6.239  1.00  0.00    -0.358 OA
HETATM   35  H   UNL     1      44.705 -19.937   6.935  1.00  0.00     0.218 HD
ENDBRANCH  27  34
ENDBRANCH   1  24
TORSDOF 7
ENDMDL
MODEL 4
REMARK VINA RESULT:      -9.4      5.200      9.162
REMARK  7 active torsions:
REMARK  status: ('A' for Active; 'I' for Inactive)
REMARK    1  A    between atoms: C_3  and  O_4 
REMARK    2  A    between atoms: C_9  and  N_10 
REMARK    3  A    between atoms: C_13  and  C_14 
REMARK       I    between atoms: C_14  and  N_15 
REMARK    4  A    between atoms: N_15  and  C_16 
REMARK    5  A    between atoms: C_16  and  C_17 
REMARK    6  A    between atoms: C_17  and  N_18 
REMARK       I    between atoms: N_18  and  C_19 
REMARK    7  A    between atoms: C_19  and  C_20 
ROOT
HETATM    1  N   UNL     1      42.325 -13.722   3.301  1.00  0.00    -0.268 NA
HETATM    2  C   UNL     1      43.599 -14.368   3.650  1.00  0.00     0.098 C 
HETATM    3  C   UNL     1      44.037 -13.916   5.042  1.00  0.00     0.029 C 
HETATM    4  C   UNL     1      42.960 -14.189   6.097  1.00  0.00     0.080 C 
HETATM    5  C   UNL     1      41.619 -13.595   5.646  1.00  0.00     0.029 C 
HETATM    6  C   UNL     1      41.229 -14.035   4.232  1.00  0.00     0.098 C 
ENDROOT
BRANCH   4   7
HETATM    7  C   UNL     1      42.826 -15.674   6.430  1.00  0.00     0.221 C 
HETATM    8  N   UNL     1      43.331 -16.027   7.659  1.00  0.00    -0.359 N 
HETATM    9  H   UNL     1      43.818 -15.351   8.230  1.00  0.00     0.162 HD
HETATM   10  O   UNL     1      42.280 -16.485   5.688  1.00  0.00    -0.273 OA
BRANCH   8  11
HETATM   11  C   UNL     1      43.290 -17.400   8.135  1.00  0.00     0.142 C 
BRANCH  11  12
HETATM   12  C   UNL     1      44.546 -18.199   7.762  1.00  0.00     0.142 C 
BRANCH  12  13
HETATM   13  N   UNL     1      44.637 -18.527   6.346  1.00  0.00    -0.355 N 
HETATM   14  C   UNL     1      44.243 -19.762   5.876  1.00  0.00     0.251 C 
HETATM   15  O   UNL     1      43.905 -20.680   6.617  1.00  0.00    -0.268 OA
HETATM   16  H   UNL     1      44.719 -17.747   5.707  1.00  0.00     0.162 HD
BRANCH  14  17
HETATM   17  C   UNL     1      44.206 -19.952   4.397  1.00  0.00     0.033 A 
HETATM   18  C   UNL     1      43.941 -18.905   3.506  1.00  0.00     0.036 A 
HETATM   19  C   UNL     1      43.920 -19.159   2.133  1.00  0.00     0.012 A 
HETATM   20 BR   UNL     1      43.550 -17.747   0.928  1.00  0.00    -0.051 Br
HETATM   21  C   UNL     1      44.168 -20.438   1.637  1.00  0.00     0.019 A 
HETATM   22  C   UNL     1      44.447 -21.479   2.520  1.00  0.00     0.002 A 
HETATM   23  C   UNL     1      44.468 -21.236   3.894  1.00  0.00     0.017 A 
ENDBRANCH  14  17
ENDBRANCH  12  13
ENDBRANCH  11  12
ENDBRANCH   8  11
ENDBRANCH   4   7
BRANCH   1  24
HETATM   24  C   UNL     1      41.976 -13.939   1.947  1.00  0.00     0.106 A 
HETATM   25  N   UNL     1      42.424 -13.090   0.995  1.00  0.00    -0.233 NA
HETATM   26  C   UNL     1      42.077 -13.260  -0.302  1.00  0.00     0.102 A 
HETATM   27  C   UNL     1      42.524 -12.387  -1.304  1.00  0.00     0.095 A 
HETATM   28  C   UNL     1      41.243 -14.322  -0.704  1.00  0.00    -0.004 A 
HETATM   29  C   UNL     1      42.174 -12.549  -2.650  1.00  0.00     0.039 A 
HETATM   30  C   UNL     1      41.357 -13.609  -3.024  1.00  0.00     0.004 A 
HETATM   31  C   UNL     1      40.891 -14.494  -2.055  1.00  0.00     0.014 A 
HETATM   32  C   UNL     1      40.769 -15.191   0.279  1.00  0.00     0.017 A 
HETATM   33  C   UNL     1      41.128 -14.989   1.609  1.00  0.00     0.045 A 
BRANCH  27  34
HETATM   34  O   UNL     1      43.333 -11.327  -0.956  1.00  0.00    -0.358 OA
HETATM   35  H   UNL     1      44.224 -11.658  -0.768  1.00  0.00     0.218 HD
ENDBRANCH  27  34
ENDBRANCH   1  24
TORSDOF 7
ENDMDL
MODEL 5
REMARK VINA RESULT:      -9.4      5.255      8.920
REMARK  7 active torsions:
REMARK  status: ('A' for Active; 'I' for Inactive)
REMARK    1  A    between atoms: C_3  and  O_4 
REMARK    2  A    between atoms: C_9  and  N_10 
REMARK    3  A    between atoms: C_13  and  C_14 
REMARK       I    between atoms: C_14  and  N_15 
REMARK    4  A    between atoms: N_15  and  C_16 
REMARK    5  A    between atoms: C_16  and  C_17 
REMARK    6  A    between atoms: C_17  and  N_18 
REMARK       I    between atoms: N_18  and  C_19 
REMARK    7  A    between atoms: C_19  and  C_20 
ROOT
HETATM    1  N   UNL     1      40.617 -13.545   2.288  1.00  0.00    -0.268 NA
HETATM    2  C   UNL     1      41.684 -12.550   2.476  1.00  0.00     0.098 C 
HETATM    3  C   UNL     1      41.503 -11.855   3.824  1.00  0.00     0.029 C 
HETATM    4  C   UNL     1      41.457 -12.857   4.983  1.00  0.00     0.080 C 
HETATM    5  C   UNL     1      40.410 -13.942   4.699  1.00  0.00     0.029 C 
HETATM    6  C   UNL     1      40.595 -14.590   3.324  1.00  0.00     0.098 C 
ENDROOT
BRANCH   4   7
HETATM    7  C   UNL     1      42.825 -13.470   5.284  1.00  0.00     0.221 C 
HETATM    8  N   UNL     1      42.951 -13.973   6.557  1.00  0.00    -0.359 N 
HETATM    9  H   UNL     1      42.212 -13.856   7.235  1.00  0.00     0.162 HD
HETATM   10  O   UNL     1      43.727 -13.546   4.455  1.00  0.00    -0.273 OA
BRANCH   8  11
HETATM   11  C   UNL     1      44.187 -14.590   7.013  1.00  0.00     0.142 C 
BRANCH  11  12
HETATM   12  C   UNL     1      44.062 -16.108   7.198  1.00  0.00     0.142 C 
BRANCH  12  13
HETATM   13  N   UNL     1      44.249 -16.868   5.969  1.00  0.00    -0.355 N 
HETATM   14  C   UNL     1      43.175 -17.201   5.170  1.00  0.00     0.251 C 
HETATM   15  O   UNL     1      42.012 -16.983   5.492  1.00  0.00    -0.268 OA
HETATM   16  H   UNL     1      45.185 -16.887   5.588  1.00  0.00     0.162 HD
BRANCH  14  17
HETATM   17  C   UNL     1      43.474 -17.826   3.849  1.00  0.00     0.033 A 
HETATM   18  C   UNL     1      43.562 -19.211   3.669  1.00  0.00     0.036 A 
HETATM   19  C   UNL     1      43.849 -19.724   2.402  1.00  0.00     0.012 A 
HETATM   20 BR   UNL     1      43.981 -21.596   2.160  1.00  0.00    -0.051 Br
HETATM   21  C   UNL     1      44.038 -18.875   1.312  1.00  0.00     0.019 A 
HETATM   22  C   UNL     1      43.935 -17.497   1.484  1.00  0.00     0.002 A 
HETATM   23  C   UNL     1      43.652 -16.975   2.747  1.00  0.00     0.017 A 
ENDBRANCH  14  17
ENDBRANCH  12  13
ENDBRANCH  11  12
ENDBRANCH   8  11
ENDBRANCH   4   7
BRANCH   1  24
HETATM   24  C   UNL     1      40.611 -14.071   0.974  1.00  0.00     0.106 A 
HETATM   25  N   UNL     1      39.676 -13.657   0.091  1.00  0.00    -0.233 NA
HETATM   26  C   UNL     1      39.632 -14.169  -1.161  1.00  0.00     0.102 A 
HETATM   27  C   UNL     1      38.665 -13.760  -2.091  1.00  0.00     0.095 A 
HETATM   28  C   UNL     1      40.555 -15.146  -1.585  1.00  0.00    -0.004 A 
HETATM   29  C   UNL     1      38.605 -14.281  -3.389  1.00  0.00     0.039 A 
HETATM   30  C   UNL     1      39.532 -15.237  -3.788  1.00  0.00     0.004 A 
HETATM   31  C   UNL     1      40.504 -15.670  -2.890  1.00  0.00     0.014 A 
HETATM   32  C   UNL     1      41.512 -15.584  -0.670  1.00  0.00     0.017 A 
HETATM   33  C   UNL     1      41.530 -15.052   0.616  1.00  0.00     0.045 A 
BRANCH  27  34
HETATM   34  O   UNL     1      37.735 -12.815  -1.716  1.00  0.00    -0.358 OA
HETATM   35  H   UNL     1      36.863 -13.082  -2.044  1.00  0.00     0.218 HD
ENDBRANCH  27  34
ENDBRANCH   1  24
TORSDOF 7
ENDMDL
MODEL 6
REMARK VINA RESULT:      -9.3      6.096     10.182
REMARK  7 active torsions:
REMARK  status: ('A' for Active; 'I' for Inactive)
REMARK    1  A    between atoms: C_3  and  O_4 
REMARK    2  A    between atoms: C_9  and  N_10 
REMARK    3  A    between atoms: C_13  and  C_14 
REMARK       I    between atoms: C_14  and  N_15 
REMARK    4  A    between atoms: N_15  and  C_16 
REMARK    5  A    between atoms: C_16  and  C_17 
REMARK    6  A    between atoms: C_17  and  N_18 
REMARK       I    between atoms: N_18  and  C_19 
REMARK    7  A    between atoms: C_19  and  C_20 
ROOT
HETATM    1  N   UNL     1      40.269 -14.773  -0.205  1.00  0.00    -0.268 NA
HETATM    2  C   UNL     1      39.473 -14.109   0.837  1.00  0.00     0.098 C 
HETATM    3  C   UNL     1      38.827 -15.161   1.736  1.00  0.00     0.029 C 
HETATM    4  C   UNL     1      39.865 -16.113   2.341  1.00  0.00     0.080 C 
HETATM    5  C   UNL     1      40.748 -16.701   1.233  1.00  0.00     0.029 C 
HETATM    6  C   UNL     1      41.348 -15.622   0.326  1.00  0.00     0.098 C 
ENDROOT
BRANCH   4   7
HETATM    7  C   UNL     1      40.707 -15.448   3.429  1.00  0.00     0.221 C 
HETATM    8  N   UNL     1      40.731 -16.129   4.623  1.00  0.00    -0.359 N 
HETATM    9  H   UNL     1      40.161 -16.952   4.759  1.00  0.00     0.162 HD
HETATM   10  O   UNL     1      41.344 -14.414   3.251  1.00  0.00    -0.273 OA
BRANCH   8  11
HETATM   11  C   UNL     1      41.481 -15.637   5.767  1.00  0.00     0.142 C 
BRANCH  11  12
HETATM   12  C   UNL     1      42.929 -16.146   5.794  1.00  0.00     0.142 C 
BRANCH  12  13
HETATM   13  N   UNL     1      43.094 -17.484   5.243  1.00  0.00    -0.355 N 
HETATM   14  C   UNL     1      43.556 -17.670   3.957  1.00  0.00     0.251 C 
HETATM   15  O   UNL     1      43.745 -16.743   3.176  1.00  0.00    -0.268 OA
HETATM   16  H   UNL     1      43.137 -18.243   5.909  1.00  0.00     0.162 HD
BRANCH  14  17
HETATM   17  C   UNL     1      43.860 -19.068   3.534  1.00  0.00     0.033 A 
HETATM   18  C   UNL     1      44.363 -20.032   4.415  1.00  0.00     0.036 A 
HETATM   19  C   UNL     1      44.627 -21.321   3.947  1.00  0.00     0.012 A 
HETATM   20 BR   UNL     1      45.320 -22.622   5.134  1.00  0.00    -0.051 Br
HETATM   21  C   UNL     1      44.385 -21.663   2.617  1.00  0.00     0.019 A 
HETATM   22  C   UNL     1      43.870 -20.711   1.741  1.00  0.00     0.002 A 
HETATM   23  C   UNL     1      43.605 -19.419   2.199  1.00  0.00     0.017 A 
ENDBRANCH  14  17
ENDBRANCH  12  13
ENDBRANCH  11  12
ENDBRANCH   8  11
ENDBRANCH   4   7
BRANCH   1  24
HETATM   24  C   UNL     1      40.720 -13.860  -1.188  1.00  0.00     0.106 A 
HETATM   25  N   UNL     1      41.486 -12.808  -0.823  1.00  0.00    -0.233 NA
HETATM   26  C   UNL     1      41.903 -11.905  -1.741  1.00  0.00     0.102 A 
HETATM   27  C   UNL     1      42.691 -10.801  -1.384  1.00  0.00     0.095 A 
HETATM   28  C   UNL     1      41.557 -12.031  -3.101  1.00  0.00    -0.004 A 
HETATM   29  C   UNL     1      43.130  -9.859  -2.321  1.00  0.00     0.039 A 
HETATM   30  C   UNL     1      42.783 -10.008  -3.659  1.00  0.00     0.004 A 
HETATM   31  C   UNL     1      41.999 -11.090  -4.049  1.00  0.00     0.014 A 
HETATM   32  C   UNL     1      40.756 -13.109  -3.477  1.00  0.00     0.017 A 
HETATM   33  C   UNL     1      40.328 -14.018  -2.513  1.00  0.00     0.045 A 
BRANCH  27  34
HETATM   34  O   UNL     1      43.044 -10.632  -0.063  1.00  0.00    -0.358 OA
HETATM   35  H   UNL     1      42.748 -11.402   0.445  1.00  0.00     0.218 HD
ENDBRANCH  27  34
ENDBRANCH   1  24
TORSDOF 7
ENDMDL
MODEL 7
REMARK VINA RESULT:      -9.2      6.218      9.463
REMARK  7 active torsions:
REMARK  status: ('A' for Active; 'I' for Inactive)
REMARK    1  A    between atoms: C_3  and  O_4 
REMARK    2  A    between atoms: C_9  and  N_10 
REMARK    3  A    between atoms: C_13  and  C_14 
REMARK       I    between atoms: C_14  and  N_15 
REMARK    4  A    between atoms: N_15  and  C_16 
REMARK    5  A    between atoms: C_16  and  C_17 
REMARK    6  A    between atoms: C_17  and  N_18 
REMARK       I    between atoms: N_18  and  C_19 
REMARK    7  A    between atoms: C_19  and  C_20 
ROOT
HETATM    1  N   UNL     1      41.904 -15.454   3.596  1.00  0.00    -0.268 NA
HETATM    2  C   UNL     1      40.488 -15.172   3.318  1.00  0.00     0.098 C 
HETATM    3  C   UNL     1      40.070 -13.892   4.039  1.00  0.00     0.029 C 
HETATM    4  C   UNL     1      40.965 -12.706   3.662  1.00  0.00     0.080 C 
HETATM    5  C   UNL     1      42.441 -13.076   3.860  1.00  0.00     0.029 C 
HETATM    6  C   UNL     1      42.816 -14.384   3.159  1.00  0.00     0.098 C 
ENDROOT
BRANCH   4   7
HETATM    7  C   UNL     1      40.704 -12.201   2.243  1.00  0.00     0.221 C 
HETATM    8  N   UNL     1      41.717 -11.433   1.720  1.00  0.00    -0.359 N 
HETATM    9  H   UNL     1      42.515 -11.176   2.285  1.00  0.00     0.162 HD
HETATM   10  O   UNL     1      39.696 -12.482   1.602  1.00  0.00    -0.273 OA
BRANCH   8  11
HETATM   11  C   UNL     1      41.634 -10.869   0.383  1.00  0.00     0.142 C 
BRANCH  11  12
HETATM   12  C   UNL     1      42.467 -11.645  -0.646  1.00  0.00     0.142 C 
BRANCH  12  13
HETATM   13  N   UNL     1      41.671 -12.436  -1.574  1.00  0.00    -0.355 N 
HETATM   14  C   UNL     1      41.337 -13.744  -1.288  1.00  0.00     0.251 C 
HETATM   15  O   UNL     1      41.775 -14.345  -0.312  1.00  0.00    -0.268 OA
HETATM   16  H   UNL     1      41.144 -11.922  -2.267  1.00  0.00     0.162 HD
BRANCH  14  17
HETATM   17  C   UNL     1      40.378 -14.422  -2.207  1.00  0.00     0.033 A 
HETATM   18  C   UNL     1      39.195 -13.816  -2.647  1.00  0.00     0.036 A 
HETATM   19  C   UNL     1      38.343 -14.514  -3.505  1.00  0.00     0.012 A 
HETATM   20 BR   UNL     1      36.738 -13.701  -4.091  1.00  0.00    -0.051 Br
HETATM   21  C   UNL     1      38.658 -15.801  -3.937  1.00  0.00     0.019 A 
HETATM   22  C   UNL     1      39.842 -16.402  -3.513  1.00  0.00     0.002 A 
HETATM   23  C   UNL     1      40.699 -15.713  -2.654  1.00  0.00     0.017 A 
ENDBRANCH  14  17
ENDBRANCH  12  13
ENDBRANCH  11  12
ENDBRANCH   8  11
ENDBRANCH   4   7
BRANCH   1  24
HETATM   24  C   UNL     1      42.290 -16.733   3.127  1.00  0.00     0.106 A 
HETATM   25  N   UNL     1      43.090 -17.511   3.889  1.00  0.00    -0.233 NA
HETATM   26  C   UNL     1      43.497 -18.724   3.448  1.00  0.00     0.102 A 
HETATM   27  C   UNL     1      44.334 -19.546   4.218  1.00  0.00     0.095 A 
HETATM   28  C   UNL     1      43.102 -19.216   2.188  1.00  0.00    -0.004 A 
HETATM   29  C   UNL     1      44.763 -20.802   3.776  1.00  0.00     0.039 A 
HETATM   30  C   UNL     1      44.354 -21.270   2.532  1.00  0.00     0.004 A 
HETATM   31  C   UNL     1      43.527 -20.479   1.739  1.00  0.00     0.014 A 
HETATM   32  C   UNL     1      42.288 -18.407   1.395  1.00  0.00     0.017 A 
HETATM   33  C   UNL     1      41.892 -17.157   1.863  1.00  0.00     0.045 A 
BRANCH  27  34
HETATM   34  O   UNL     1      44.753 -19.102   5.453  1.00  0.00    -0.358 OA
HETATM   35  H   UNL     1      44.593 -19.796   6.109  1.00  0.00     0.218 HD
ENDBRANCH  27  34
ENDBRANCH   1  24
TORSDOF 7
ENDMDL
MODEL 8
REMARK VINA RESULT:      -9.2      2.539      3.350
REMARK  7 active torsions:
REMARK  status: ('A' for Active; 'I' for Inactive)
REMARK    1  A    between atoms: C_3  and  O_4 
REMARK    2  A    between atoms: C_9  and  N_10 
REMARK    3  A    between atoms: C_13  and  C_14 
REMARK       I    between atoms: C_14  and  N_15 
REMARK    4  A    between atoms: N_15  and  C_16 
REMARK    5  A    between atoms: C_16  and  C_17 
REMARK    6  A    between atoms: C_17  and  N_18 
REMARK       I    between atoms: N_18  and  C_19 
REMARK    7  A    between atoms: C_19  and  C_20 
ROOT
HETATM    1  N   UNL     1      43.374 -16.235   2.567  1.00  0.00    -0.268 NA
HETATM    2  C   UNL     1      43.428 -15.608   3.896  1.00  0.00     0.098 C 
HETATM    3  C   UNL     1      43.406 -14.088   3.746  1.00  0.00     0.029 C 
HETATM    4  C   UNL     1      42.188 -13.610   2.948  1.00  0.00     0.080 C 
HETATM    5  C   UNL     1      42.103 -14.366   1.615  1.00  0.00     0.029 C 
HETATM    6  C   UNL     1      42.168 -15.885   1.798  1.00  0.00     0.098 C 
ENDROOT
BRANCH   4   7
HETATM    7  C   UNL     1      40.885 -13.726   3.737  1.00  0.00     0.221 C 
HETATM    8  N   UNL     1      41.009 -13.453   5.079  1.00  0.00    -0.359 N 
HETATM    9  H   UNL     1      41.916 -13.277   5.488  1.00  0.00     0.162 HD
HETATM   10  O   UNL     1      39.806 -14.001   3.221  1.00  0.00    -0.273 OA
BRANCH   8  11
HETATM   11  C   UNL     1      39.870 -13.520   5.979  1.00  0.00     0.142 C 
BRANCH  11  12
HETATM   12  C   UNL     1      39.426 -12.139   6.482  1.00  0.00     0.142 C 
BRANCH  12  13
HETATM   13  N   UNL     1      40.076 -11.726   7.720  1.00  0.00    -0.355 N 
HETATM   14  C   UNL     1      39.583 -10.675   8.464  1.00  0.00     0.251 C 
HETATM   15  O   UNL     1      38.657  -9.965   8.082  1.00  0.00    -0.268 OA
HETATM   16  H   UNL     1      40.699 -12.398   8.147  1.00  0.00     0.162 HD
BRANCH  14  17
HETATM   17  C   UNL     1      40.202 -10.432   9.799  1.00  0.00     0.033 A 
HETATM   18  C   UNL     1      41.580 -10.532  10.023  1.00  0.00     0.036 A 
HETATM   19  C   UNL     1      42.088 -10.294  11.302  1.00  0.00     0.012 A 
HETATM   20 BR   UNL     1      43.949 -10.441  11.610  1.00  0.00    -0.051 Br
HETATM   21  C   UNL     1      41.242  -9.948  12.355  1.00  0.00     0.019 A 
HETATM   22  C   UNL     1      39.872  -9.832  12.132  1.00  0.00     0.002 A 
HETATM   23  C   UNL     1      39.355 -10.071  10.858  1.00  0.00     0.017 A 
ENDBRANCH  14  17
ENDBRANCH  12  13
ENDBRANCH  11  12
ENDBRANCH   8  11
ENDBRANCH   4   7
BRANCH   1  24
HETATM   24  C   UNL     1      43.600 -17.630   2.631  1.00  0.00     0.106 A 
HETATM   25  N   UNL     1      43.940 -18.200   3.808  1.00  0.00    -0.233 NA
HETATM   26  C   UNL     1      44.191 -19.528   3.887  1.00  0.00     0.102 A 
HETATM   27  C   UNL     1      44.553 -20.139   5.096  1.00  0.00     0.095 A 
HETATM   28  C   UNL     1      44.107 -20.357   2.751  1.00  0.00    -0.004 A 
HETATM   29  C   UNL     1      44.816 -21.510   5.194  1.00  0.00     0.039 A 
HETATM   30  C   UNL     1      44.719 -22.310   4.062  1.00  0.00     0.004 A 
HETATM   31  C   UNL     1      44.366 -21.737   2.843  1.00  0.00     0.014 A 
HETATM   32  C   UNL     1      43.769 -19.768   1.533  1.00  0.00     0.017 A 
HETATM   33  C   UNL     1      43.528 -18.398   1.473  1.00  0.00     0.045 A 
BRANCH  27  34
HETATM   34  O   UNL     1      44.658 -19.365   6.231  1.00  0.00    -0.358 OA
HETATM   35  H   UNL     1      45.583 -19.103   6.351  1.00  0.00     0.218 HD
ENDBRANCH  27  34
ENDBRANCH   1  24
TORSDOF 7
ENDMDL
MODEL 9
REMARK VINA RESULT:      -9.2      5.009      5.964
REMARK  7 active torsions:
REMARK  status: ('A' for Active; 'I' for Inactive)
REMARK    1  A    between atoms: C_3  and  O_4 
REMARK    2  A    between atoms: C_9  and  N_10 
REMARK    3  A    between atoms: C_13  and  C_14 
REMARK       I    between atoms: C_14  and  N_15 
REMARK    4  A    between atoms: N_15  and  C_16 
REMARK    5  A    between atoms: C_16  and  C_17 
REMARK    6  A    between atoms: C_17  and  N_18 
REMARK       I    between atoms: N_18  and  C_19 
REMARK    7  A    between atoms: C_19  and  C_20 
ROOT
HETATM    1  N   UNL     1      41.862 -17.242   1.733  1.00  0.00    -0.268 NA
HETATM    2  C   UNL     1      42.626 -16.204   1.025  1.00  0.00     0.098 C 
HETATM    3  C   UNL     1      41.717 -15.490   0.027  1.00  0.00     0.029 C 
HETATM    4  C   UNL     1      40.470 -14.908   0.703  1.00  0.00     0.080 C 
HETATM    5  C   UNL     1      39.761 -15.994   1.522  1.00  0.00     0.029 C 
HETATM    6  C   UNL     1      40.708 -16.717   2.483  1.00  0.00     0.098 C 
ENDROOT
BRANCH   4   7
HETATM    7  C   UNL     1      40.785 -13.682   1.560  1.00  0.00     0.221 C 
HETATM    8  N   UNL     1      39.683 -12.939   1.911  1.00  0.00    -0.359 N 
HETATM    9  H   UNL     1      38.769 -13.166   1.545  1.00  0.00     0.162 HD
HETATM   10  O   UNL     1      41.916 -13.398   1.940  1.00  0.00    -0.273 OA
BRANCH   8  11
HETATM   11  C   UNL     1      39.801 -11.738   2.722  1.00  0.00     0.142 C 
BRANCH  11  12
HETATM   12  C   UNL     1      39.549 -11.999   4.213  1.00  0.00     0.142 C 
BRANCH  12  13
HETATM   13  N   UNL     1      40.698 -12.554   4.917  1.00  0.00    -0.355 N 
HETATM   14  C   UNL     1      40.745 -13.889   5.258  1.00  0.00     0.251 C 
HETATM   15  O   UNL     1      39.797 -14.652   5.096  1.00  0.00    -0.268 OA
HETATM   16  H   UNL     1      41.550 -12.011   4.885  1.00  0.00     0.162 HD
BRANCH  14  17
HETATM   17  C   UNL     1      42.026 -14.407   5.818  1.00  0.00     0.033 A 
HETATM   18  C   UNL     1      42.105 -15.597   6.553  1.00  0.00     0.036 A 
HETATM   19  C   UNL     1      43.341 -16.017   7.049  1.00  0.00     0.012 A 
HETATM   20 BR   UNL     1      43.447 -17.618   8.053  1.00  0.00    -0.051 Br
HETATM   21  C   UNL     1      44.497 -15.275   6.816  1.00  0.00     0.019 A 
HETATM   22  C   UNL     1      44.425 -14.099   6.073  1.00  0.00     0.002 A 
HETATM   23  C   UNL     1      43.195 -13.669   5.574  1.00  0.00     0.017 A 
ENDBRANCH  14  17
ENDBRANCH  12  13
ENDBRANCH  11  12
ENDBRANCH   8  11
ENDBRANCH   4   7
BRANCH   1  24
HETATM   24  C   UNL     1      42.698 -18.071   2.517  1.00  0.00     0.106 A 
HETATM   25  N   UNL     1      42.907 -19.354   2.145  1.00  0.00    -0.233 NA
HETATM   26  C   UNL     1      43.678 -20.174   2.897  1.00  0.00     0.102 A 
HETATM   27  C   UNL     1      43.902 -21.510   2.534  1.00  0.00     0.095 A 
HETATM   28  C   UNL     1      44.286 -19.723   4.085  1.00  0.00    -0.004 A 
HETATM   29  C   UNL     1      44.696 -22.371   3.300  1.00  0.00     0.039 A 
HETATM   30  C   UNL     1      45.293 -21.902   4.464  1.00  0.00     0.004 A 
HETATM   31  C   UNL     1      45.089 -20.582   4.857  1.00  0.00     0.014 A 
HETATM   32  C   UNL     1      44.059 -18.403   4.477  1.00  0.00     0.017 A 
HETATM   33  C   UNL     1      43.252 -17.581   3.695  1.00  0.00     0.045 A 
BRANCH  27  34
HETATM   34  O   UNL     1      43.319 -21.998   1.385  1.00  0.00    -0.358 OA
HETATM   35  H   UNL     1      43.040 -22.913   1.536  1.00  0.00     0.218 HD
ENDBRANCH  27  34
ENDBRANCH   1  24
TORSDOF 7
ENDMDL
MODEL 10
REMARK VINA RESULT:      -9.0      5.431      7.002
REMARK  7 active torsions:
REMARK  status: ('A' for Active; 'I' for Inactive)
REMARK    1  A    between atoms: C_3  and  O_4 
REMARK    2  A    between atoms: C_9  and  N_10 
REMARK    3  A    between atoms: C_13  and  C_14 
REMARK       I    between atoms: C_14  and  N_15 
REMARK    4  A    between atoms: N_15  and  C_16 
REMARK    5  A    between atoms: C_16  and  C_17 
REMARK    6  A    between atoms: C_17  and  N_18 
REMARK       I    between atoms: N_18  and  C_19 
REMARK    7  A    between atoms: C_19  and  C_20 
ROOT
HETATM    1  N   UNL     1      40.600 -15.755   0.527  1.00  0.00    -0.268 NA
HETATM    2  C   UNL     1      41.238 -15.231  -0.690  1.00  0.00     0.098 C 
HETATM    3  C   UNL     1      40.164 -14.763  -1.669  1.00  0.00     0.029 C 
HETATM    4  C   UNL     1      39.224 -13.730  -1.037  1.00  0.00     0.080 C 
HETATM    5  C   UNL     1      38.664 -14.269   0.286  1.00  0.00     0.029 C 
HETATM    6  C   UNL     1      39.764 -14.767   1.228  1.00  0.00     0.098 C 
ENDROOT
BRANCH   4   7
HETATM    7  C   UNL     1      39.891 -12.368  -0.845  1.00  0.00     0.221 C 
HETATM    8  N   UNL     1      39.464 -11.681   0.266  1.00  0.00    -0.359 N 
HETATM    9  H   UNL     1      38.712 -12.038   0.837  1.00  0.00     0.162 HD
HETATM   10  O   UNL     1      40.762 -11.933  -1.592  1.00  0.00    -0.273 OA
BRANCH   8  11
HETATM   11  C   UNL     1      39.992 -10.367   0.599  1.00  0.00     0.142 C 
BRANCH  11  12
HETATM   12  C   UNL     1      41.241 -10.435   1.488  1.00  0.00     0.142 C 
BRANCH  12  13
HETATM   13  N   UNL     1      41.128 -11.378   2.592  1.00  0.00    -0.355 N 
HETATM   14  C   UNL     1      41.926 -12.502   2.651  1.00  0.00     0.251 C 
HETATM   15  O   UNL     1      42.682 -12.830   1.742  1.00  0.00    -0.268 OA
HETATM   16  H   UNL     1      40.672 -11.040   3.428  1.00  0.00     0.162 HD
BRANCH  14  17
HETATM   17  C   UNL     1      41.867 -13.318   3.897  1.00  0.00     0.033 A 
HETATM   18  C   UNL     1      43.014 -13.773   4.559  1.00  0.00     0.036 A 
HETATM   19  C   UNL     1      42.880 -14.536   5.721  1.00  0.00     0.012 A 
HETATM   20 BR   UNL     1      44.429 -15.163   6.609  1.00  0.00    -0.051 Br
HETATM   21  C   UNL     1      41.622 -14.842   6.236  1.00  0.00     0.019 A 
HETATM   22  C   UNL     1      40.478 -14.378   5.589  1.00  0.00     0.002 A 
HETATM   23  C   UNL     1      40.601 -13.617   4.426  1.00  0.00     0.017 A 
ENDBRANCH  14  17
ENDBRANCH  12  13
ENDBRANCH  11  12
ENDBRANCH   8  11
ENDBRANCH   4   7
BRANCH   1  24
HETATM   24  C   UNL     1      41.532 -16.392   1.380  1.00  0.00     0.106 A 
HETATM   25  N   UNL     1      41.128 -16.863   2.581  1.00  0.00    -0.233 NA
HETATM   26  C   UNL     1      42.009 -17.448   3.426  1.00  0.00     0.102 A 
HETATM   27  C   UNL     1      41.613 -17.937   4.680  1.00  0.00     0.095 A 
HETATM   28  C   UNL     1      43.369 -17.587   3.085  1.00  0.00    -0.004 A 
HETATM   29  C   UNL     1      42.511 -18.544   5.565  1.00  0.00     0.039 A 
HETATM   30  C   UNL     1      43.847 -18.677   5.204  1.00  0.00     0.004 A 
HETATM   31  C   UNL     1      44.277 -18.199   3.969  1.00  0.00     0.014 A 
HETATM   32  C   UNL     1      43.790 -17.088   1.852  1.00  0.00     0.017 A 
HETATM   33  C   UNL     1      42.869 -16.479   1.005  1.00  0.00     0.045 A 
BRANCH  27  34
HETATM   34  O   UNL     1      40.295 -17.814   5.059  1.00  0.00    -0.358 OA
HETATM   35  H   UNL     1      39.728 -17.954   4.286  1.00  0.00     0.218 HD
ENDBRANCH  27  34
ENDBRANCH   1  24
TORSDOF 7
ENDMDL
