MODEL 1
REMARK VINA RESULT:      -9.0      0.000      0.000
REMARK  8 active torsions:
REMARK  status: ('A' for Active; 'I' for Inactive)
REMARK    1  A    between atoms: C_6  and  N_7 
REMARK    2  A    between atoms: C_6  and  C_26 
REMARK       I    between atoms: N_7  and  C_8 
REMARK    3  A    between atoms: N_7  and  C_23 
REMARK    4  A    between atoms: C_8  and  C_9 
REMARK    5  A    between atoms: C_9  and  N_10 
REMARK    6  A    between atoms: C_14  and  C_15 
REMARK       I    between atoms: C_26  and  N_27 
REMARK    7  A    between atoms: N_27  and  C_28 
REMARK    8  A    between atoms: C_31  and  N_32 
ROOT
HETATM    1  C   UNL     1      39.191  -7.652   3.383  1.00  0.00     0.269 C 
HETATM    2  N   UNL     1      39.439  -9.128   3.193  1.00  0.00    -0.075 N 
HETATM    3  H   UNL     1      39.528  -9.266   2.173  1.00  0.00     0.279 HD
HETATM    4  C   UNL     1      40.733  -9.547   3.841  1.00  0.00     0.237 C 
HETATM    5  C   UNL     1      40.989 -11.042   3.654  1.00  0.00     0.069 C 
HETATM    6  C   UNL     1      39.791 -11.954   4.011  1.00  0.00     0.120 C 
HETATM    7  C   UNL     1      38.515 -11.398   3.336  1.00  0.00     0.069 C 
HETATM    8  C   UNL     1      38.256  -9.934   3.665  1.00  0.00     0.237 C 
ENDROOT
BRANCH   6   9
HETATM    9  N   UNL     1      40.088 -13.399   3.646  1.00  0.00    -0.328 N 
HETATM   10  C   UNL     1      41.095 -14.248   4.130  1.00  0.00     0.239 C 
HETATM   11  O   UNL     1      41.394 -15.274   3.502  1.00  0.00    -0.271 OA
BRANCH  10  12
HETATM   12  C   UNL     1      41.887 -13.934   5.401  1.00  0.00     0.228 C 
BRANCH  12  13
HETATM   13  N   UNL     1      42.512 -15.104   6.016  1.00  0.00    -0.347 N 
HETATM   14  C   UNL     1      43.697 -15.118   6.759  1.00  0.00     0.171 C 
HETATM   15  S   UNL     1      44.843 -13.931   6.909  1.00  0.00    -0.041 SA
HETATM   16  N   UNL     1      43.819 -16.368   7.339  1.00  0.00    -0.357 N 
HETATM   17  C   UNL     1      42.795 -17.283   6.871  1.00  0.00     0.135 C 
HETATM   18  H   UNL     1      44.605 -16.633   7.920  1.00  0.00     0.162 HD
HETATM   19  C   UNL     1      41.734 -16.296   6.344  1.00  0.00     0.155 C 
BRANCH  17  20
HETATM   20  C   UNL     1      43.306 -18.240   5.796  1.00  0.00    -0.034 A 
HETATM   21  C   UNL     1      42.928 -18.133   4.447  1.00  0.00     0.009 A 
HETATM   22  C   UNL     1      43.441 -19.005   3.482  1.00  0.00     0.001 A 
HETATM   23  C   UNL     1      44.346 -19.997   3.845  1.00  0.00     0.000 A 
HETATM   24  C   UNL     1      44.750 -20.110   5.172  1.00  0.00     0.001 A 
HETATM   25  C   UNL     1      44.245 -19.233   6.135  1.00  0.00     0.009 A 
ENDBRANCH  17  20
ENDBRANCH  12  13
ENDBRANCH  10  12
BRANCH   9  26
HETATM   26  C   UNL     1      39.151 -14.075   2.734  1.00  0.00     0.088 A 
HETATM   27  C   UNL     1      39.322 -13.877   1.243  1.00  0.00     0.027 A 
HETATM   28  C   UNL     1      39.448 -15.244   1.831  1.00  0.00     0.027 A 
ENDBRANCH   9  26
ENDBRANCH   6   9
BRANCH   6  29
HETATM   29  C   UNL     1      39.443 -11.847   5.541  1.00  0.00     0.251 C 
HETATM   30  N   UNL     1      40.190 -10.890   6.211  1.00  0.00    -0.325 N 
HETATM   31  H   UNL     1      40.618 -10.161   5.647  1.00  0.00     0.169 HD
HETATM   32  O   UNL     1      38.742 -12.703   6.073  1.00  0.00    -0.270 OA
BRANCH  30  33
HETATM   33  C   UNL     1      40.471 -10.845   7.593  1.00  0.00     0.034 A 
HETATM   34  C   UNL     1      39.509 -10.974   8.587  1.00  0.00     0.032 A 
HETATM   35  C   UNL     1      39.882 -11.010   9.939  1.00  0.00     0.031 A 
HETATM   36  C   UNL     1      41.220 -10.931  10.352  1.00  0.00     0.030 A 
HETATM   37  C   UNL     1      42.168 -10.760   9.336  1.00  0.00     0.031 A 
HETATM   38  C   UNL     1      41.806 -10.724   7.979  1.00  0.00     0.032 A 
BRANCH  36  39
HETATM   39  N   UNL     1      41.536 -10.969  11.706  1.00  0.00    -0.377 N 
HETATM   40  C   UNL     1      42.904 -11.396  12.092  1.00  0.00     0.149 C 
HETATM   41  C   UNL     1      43.815 -10.166  12.253  1.00  0.00     0.187 C 
HETATM   42  O   UNL     1      43.284  -9.233  13.208  1.00  0.00    -0.388 OA
HETATM   43  C   UNL     1      41.974  -8.793  12.815  1.00  0.00     0.187 C 
HETATM   44  C   UNL     1      41.002  -9.973  12.659  1.00  0.00     0.149 C 
ENDBRANCH  36  39
ENDBRANCH  30  33
ENDBRANCH   6  29
TORSDOF 8
ENDMDL
MODEL 2
REMARK VINA RESULT:      -8.9      4.601      8.213
REMARK  8 active torsions:
REMARK  status: ('A' for Active; 'I' for Inactive)
REMARK    1  A    between atoms: C_6  and  N_7 
REMARK    2  A    between atoms: C_6  and  C_26 
REMARK       I    between atoms: N_7  and  C_8 
REMARK    3  A    between atoms: N_7  and  C_23 
REMARK    4  A    between atoms: C_8  and  C_9 
REMARK    5  A    between atoms: C_9  and  N_10 
REMARK    6  A    between atoms: C_14  and  C_15 
REMARK       I    between atoms: C_26  and  N_27 
REMARK    7  A    between atoms: N_27  and  C_28 
REMARK    8  A    between atoms: C_31  and  N_32 
ROOT
HETATM    1  C   UNL     1      38.791 -16.259  -4.220  1.00  0.00     0.269 C 
HETATM    2  N   UNL     1      39.423 -15.018  -3.640  1.00  0.00    -0.075 N 
HETATM    3  H   UNL     1      39.679 -14.431  -4.452  1.00  0.00     0.279 HD
HETATM    4  C   UNL     1      38.435 -14.252  -2.798  1.00  0.00     0.237 C 
HETATM    5  C   UNL     1      39.069 -12.994  -2.205  1.00  0.00     0.069 C 
HETATM    6  C   UNL     1      40.434 -13.222  -1.511  1.00  0.00     0.120 C 
HETATM    7  C   UNL     1      41.341 -14.059  -2.445  1.00  0.00     0.069 C 
HETATM    8  C   UNL     1      40.690 -15.358  -2.899  1.00  0.00     0.237 C 
ENDROOT
BRANCH   6   9
HETATM    9  N   UNL     1      41.053 -11.898  -1.095  1.00  0.00    -0.328 N 
HETATM   10  C   UNL     1      40.509 -10.873  -0.306  1.00  0.00     0.239 C 
HETATM   11  O   UNL     1      41.011  -9.740  -0.331  1.00  0.00    -0.271 OA
BRANCH  10  12
HETATM   12  C   UNL     1      39.272 -11.085   0.569  1.00  0.00     0.228 C 
BRANCH  12  13
HETATM   13  N   UNL     1      39.571 -11.271   1.988  1.00  0.00    -0.347 N 
HETATM   14  C   UNL     1      39.882 -10.266   2.910  1.00  0.00     0.171 C 
HETATM   15  S   UNL     1      40.272  -8.681   2.626  1.00  0.00    -0.041 SA
HETATM   16  N   UNL     1      39.879 -10.833   4.172  1.00  0.00    -0.357 N 
HETATM   17  C   UNL     1      39.722 -12.274   4.117  1.00  0.00     0.135 C 
HETATM   18  H   UNL     1      40.088 -10.309   5.013  1.00  0.00     0.162 HD
HETATM   19  C   UNL     1      39.108 -12.452   2.713  1.00  0.00     0.155 C 
BRANCH  17  20
HETATM   20  C   UNL     1      41.045 -13.018   4.288  1.00  0.00    -0.034 A 
HETATM   21  C   UNL     1      42.148 -12.805   3.443  1.00  0.00     0.009 A 
HETATM   22  C   UNL     1      43.356 -13.479   3.648  1.00  0.00     0.001 A 
HETATM   23  C   UNL     1      43.487 -14.373   4.705  1.00  0.00     0.000 A 
HETATM   24  C   UNL     1      42.415 -14.585   5.567  1.00  0.00     0.001 A 
HETATM   25  C   UNL     1      41.211 -13.906   5.368  1.00  0.00     0.009 A 
ENDBRANCH  17  20
ENDBRANCH  12  13
ENDBRANCH  10  12
BRANCH   9  26
HETATM   26  C   UNL     1      42.456 -11.658  -1.467  1.00  0.00     0.088 A 
HETATM   27  C   UNL     1      42.757 -11.107  -2.845  1.00  0.00     0.027 A 
HETATM   28  C   UNL     1      43.137 -10.323  -1.631  1.00  0.00     0.027 A 
ENDBRANCH   9  26
ENDBRANCH   6   9
BRANCH   6  29
HETATM   29  C   UNL     1      40.276 -14.159  -0.258  1.00  0.00     0.251 C 
HETATM   30  N   UNL     1      41.483 -14.482   0.345  1.00  0.00    -0.325 N 
HETATM   31  H   UNL     1      42.270 -13.867   0.159  1.00  0.00     0.169 HD
HETATM   32  O   UNL     1      39.198 -14.701  -0.028  1.00  0.00    -0.270 OA
BRANCH  30  33
HETATM   33  C   UNL     1      41.756 -15.607   1.150  1.00  0.00     0.034 A 
HETATM   34  C   UNL     1      42.868 -16.425   0.993  1.00  0.00     0.032 A 
HETATM   35  C   UNL     1      43.114 -17.472   1.895  1.00  0.00     0.031 A 
HETATM   36  C   UNL     1      42.276 -17.737   2.988  1.00  0.00     0.030 A 
HETATM   37  C   UNL     1      41.140 -16.926   3.102  1.00  0.00     0.031 A 
HETATM   38  C   UNL     1      40.884 -15.875   2.205  1.00  0.00     0.032 A 
BRANCH  36  39
HETATM   39  N   UNL     1      42.565 -18.789   3.850  1.00  0.00    -0.377 N 
HETATM   40  C   UNL     1      43.532 -19.818   3.395  1.00  0.00     0.149 C 
HETATM   41  C   UNL     1      44.947 -19.466   3.886  1.00  0.00     0.187 C 
HETATM   42  O   UNL     1      44.993 -19.320   5.315  1.00  0.00    -0.388 OA
HETATM   43  C   UNL     1      44.082 -18.297   5.750  1.00  0.00     0.187 C 
HETATM   44  C   UNL     1      42.639 -18.600   5.314  1.00  0.00     0.149 C 
ENDBRANCH  36  39
ENDBRANCH  30  33
ENDBRANCH   6  29
TORSDOF 8
ENDMDL
MODEL 3
REMARK VINA RESULT:      -8.9      1.027      1.538
REMARK  8 active torsions:
REMARK  status: ('A' for Active; 'I' for Inactive)
REMARK    1  A    between atoms: C_6  and  N_7 
REMARK    2  A    between atoms: C_6  and  C_26 
REMARK       I    between atoms: N_7  and  C_8 
REMARK    3  A    between atoms: N_7  and  C_23 
REMARK    4  A    between atoms: C_8  and  C_9 
REMARK    5  A    between atoms: C_9  and  N_10 
REMARK    6  A    between atoms: C_14  and  C_15 
REMARK       I    between atoms: C_26  and  N_27 
REMARK    7  A    between atoms: N_27  and  C_28 
REMARK    8  A    between atoms: C_31  and  N_32 
ROOT
HETATM    1  C   UNL     1      38.658  -8.461   2.479  1.00  0.00     0.269 C 
HETATM    2  N   UNL     1      39.156  -9.883   2.404  1.00  0.00    -0.075 N 
HETATM    3  H   UNL     1      39.229 -10.099   1.396  1.00  0.00     0.279 HD
HETATM    4  C   UNL     1      40.529 -10.007   3.013  1.00  0.00     0.237 C 
HETATM    5  C   UNL     1      41.040 -11.445   2.943  1.00  0.00     0.069 C 
HETATM    6  C   UNL     1      40.038 -12.514   3.444  1.00  0.00     0.120 C 
HETATM    7  C   UNL     1      38.658 -12.255   2.794  1.00  0.00     0.069 C 
HETATM    8  C   UNL     1      38.155 -10.834   3.009  1.00  0.00     0.237 C 
ENDROOT
BRANCH   6   9
HETATM    9  N   UNL     1      40.573 -13.913   3.190  1.00  0.00    -0.328 N 
HETATM   10  C   UNL     1      41.699 -14.546   3.738  1.00  0.00     0.239 C 
HETATM   11  O   UNL     1      42.171 -15.553   3.190  1.00  0.00    -0.271 OA
BRANCH  10  12
HETATM   12  C   UNL     1      42.410 -14.013   4.984  1.00  0.00     0.228 C 
BRANCH  12  13
HETATM   13  N   UNL     1      42.779 -15.048   5.948  1.00  0.00    -0.347 N 
HETATM   14  C   UNL     1      43.801 -14.971   6.899  1.00  0.00     0.171 C 
HETATM   15  S   UNL     1      45.027 -13.863   7.018  1.00  0.00    -0.041 SA
HETATM   16  N   UNL     1      43.675 -16.058   7.746  1.00  0.00    -0.357 N 
HETATM   17  C   UNL     1      42.656 -16.983   7.289  1.00  0.00     0.135 C 
HETATM   18  H   UNL     1      44.309 -16.234   8.516  1.00  0.00     0.162 HD
HETATM   19  C   UNL     1      41.825 -16.075   6.360  1.00  0.00     0.155 C 
BRANCH  17  20
HETATM   20  C   UNL     1      43.242 -18.196   6.569  1.00  0.00    -0.034 A 
HETATM   21  C   UNL     1      43.516 -18.198   5.190  1.00  0.00     0.009 A 
HETATM   22  C   UNL     1      44.083 -19.315   4.568  1.00  0.00     0.001 A 
HETATM   23  C   UNL     1      44.393 -20.448   5.313  1.00  0.00     0.000 A 
HETATM   24  C   UNL     1      44.149 -20.462   6.682  1.00  0.00     0.001 A 
HETATM   25  C   UNL     1      43.591 -19.344   7.306  1.00  0.00     0.009 A 
ENDBRANCH  17  20
ENDBRANCH  12  13
ENDBRANCH  10  12
BRANCH   9  26
HETATM   26  C   UNL     1      39.773 -14.800   2.331  1.00  0.00     0.088 A 
HETATM   27  C   UNL     1      40.034 -14.793   0.839  1.00  0.00     0.027 A 
HETATM   28  C   UNL     1      40.242 -16.046   1.625  1.00  0.00     0.027 A 
ENDBRANCH   9  26
ENDBRANCH   6   9
BRANCH   6  29
HETATM   29  C   UNL     1      39.736 -12.323   4.975  1.00  0.00     0.251 C 
HETATM   30  N   UNL     1      40.274 -11.159   5.503  1.00  0.00    -0.325 N 
HETATM   31  H   UNL     1      40.503 -10.419   4.847  1.00  0.00     0.169 HD
HETATM   32  O   UNL     1      39.269 -13.252   5.630  1.00  0.00    -0.270 OA
BRANCH  30  33
HETATM   33  C   UNL     1      40.592 -10.906   6.854  1.00  0.00     0.034 A 
HETATM   34  C   UNL     1      41.879 -10.962   7.374  1.00  0.00     0.032 A 
HETATM   35  C   UNL     1      42.123 -10.607   8.709  1.00  0.00     0.031 A 
HETATM   36  C   UNL     1      41.105 -10.174   9.571  1.00  0.00     0.030 A 
HETATM   37  C   UNL     1      39.810 -10.167   9.038  1.00  0.00     0.031 A 
HETATM   38  C   UNL     1      39.554 -10.519   7.702  1.00  0.00     0.032 A 
BRANCH  36  39
HETATM   39  N   UNL     1      41.400  -9.837  10.888  1.00  0.00    -0.377 N 
HETATM   40  C   UNL     1      40.345 -10.033  11.912  1.00  0.00     0.149 C 
HETATM   41  C   UNL     1      40.505 -11.411  12.578  1.00  0.00     0.187 C 
HETATM   42  O   UNL     1      41.810 -11.573  13.156  1.00  0.00    -0.388 OA
HETATM   43  C   UNL     1      42.831 -11.419  12.155  1.00  0.00     0.187 C 
HETATM   44  C   UNL     1      42.745 -10.049  11.464  1.00  0.00     0.149 C 
ENDBRANCH  36  39
ENDBRANCH  30  33
ENDBRANCH   6  29
TORSDOF 8
ENDMDL
MODEL 4
REMARK VINA RESULT:      -8.8      3.828      7.141
REMARK  8 active torsions:
REMARK  status: ('A' for Active; 'I' for Inactive)
REMARK    1  A    between atoms: C_6  and  N_7 
REMARK    2  A    between atoms: C_6  and  C_26 
REMARK       I    between atoms: N_7  and  C_8 
REMARK    3  A    between atoms: N_7  and  C_23 
REMARK    4  A    between atoms: C_8  and  C_9 
REMARK    5  A    between atoms: C_9  and  N_10 
REMARK    6  A    between atoms: C_14  and  C_15 
REMARK       I    between atoms: C_26  and  N_27 
REMARK    7  A    between atoms: N_27  and  C_28 
REMARK    8  A    between atoms: C_31  and  N_32 
ROOT
HETATM    1  C   UNL     1      41.888 -13.491  -2.167  1.00  0.00     0.269 C 
HETATM    2  N   UNL     1      41.909 -13.297  -0.671  1.00  0.00    -0.075 N 
HETATM    3  H   UNL     1      42.893 -13.434  -0.387  1.00  0.00     0.279 HD
HETATM    4  C   UNL     1      41.502 -11.894  -0.302  1.00  0.00     0.237 C 
HETATM    5  C   UNL     1      41.519 -11.691   1.212  1.00  0.00     0.069 C 
HETATM    6  C   UNL     1      40.781 -12.786   2.021  1.00  0.00     0.120 C 
HETATM    7  C   UNL     1      41.239 -14.177   1.521  1.00  0.00     0.069 C 
HETATM    8  C   UNL     1      41.079 -14.352   0.017  1.00  0.00     0.237 C 
ENDROOT
BRANCH   6   9
HETATM    9  N   UNL     1      40.986 -12.582   3.512  1.00  0.00    -0.328 N 
HETATM   10  C   UNL     1      41.800 -13.299   4.403  1.00  0.00     0.239 C 
HETATM   11  O   UNL     1      41.608 -13.212   5.625  1.00  0.00    -0.271 OA
BRANCH  10  12
HETATM   12  C   UNL     1      42.910 -14.236   3.921  1.00  0.00     0.228 C 
BRANCH  12  13
HETATM   13  N   UNL     1      42.894 -15.552   4.558  1.00  0.00    -0.347 N 
HETATM   14  C   UNL     1      43.441 -15.879   5.803  1.00  0.00     0.171 C 
HETATM   15  S   UNL     1      44.473 -14.992   6.749  1.00  0.00    -0.041 SA
HETATM   16  N   UNL     1      43.024 -17.157   6.128  1.00  0.00    -0.357 N 
HETATM   17  C   UNL     1      42.312 -17.787   5.032  1.00  0.00     0.135 C 
HETATM   18  H   UNL     1      43.298 -17.628   6.981  1.00  0.00     0.162 HD
HETATM   19  C   UNL     1      41.894 -16.556   4.202  1.00  0.00     0.155 C 
BRANCH  17  20
HETATM   20  C   UNL     1      43.182 -18.767   4.249  1.00  0.00    -0.034 A 
HETATM   21  C   UNL     1      44.143 -19.586   4.867  1.00  0.00     0.009 A 
HETATM   22  C   UNL     1      44.901 -20.497   4.125  1.00  0.00     0.001 A 
HETATM   23  C   UNL     1      44.709 -20.612   2.751  1.00  0.00     0.000 A 
HETATM   24  C   UNL     1      43.749 -19.826   2.121  1.00  0.00     0.001 A 
HETATM   25  C   UNL     1      42.986 -18.922   2.863  1.00  0.00     0.009 A 
ENDBRANCH  17  20
ENDBRANCH  12  13
ENDBRANCH  10  12
BRANCH   9  26
HETATM   26  C   UNL     1      40.336 -11.418   4.134  1.00  0.00     0.088 A 
HETATM   27  C   UNL     1      41.201 -10.395   4.840  1.00  0.00     0.027 A 
HETATM   28  C   UNL     1      40.383  -9.989   3.658  1.00  0.00     0.027 A 
ENDBRANCH   9  26
ENDBRANCH   6   9
BRANCH   6  29
HETATM   29  C   UNL     1      39.245 -12.791   1.685  1.00  0.00     0.251 C 
HETATM   30  N   UNL     1      38.792 -11.591   1.156  1.00  0.00    -0.325 N 
HETATM   31  H   UNL     1      39.489 -10.979   0.742  1.00  0.00     0.169 HD
HETATM   32  O   UNL     1      38.531 -13.706   2.087  1.00  0.00    -0.270 OA
BRANCH  30  33
HETATM   33  C   UNL     1      37.471 -11.098   1.177  1.00  0.00     0.034 A 
HETATM   34  C   UNL     1      36.419 -11.659   0.463  1.00  0.00     0.032 A 
HETATM   35  C   UNL     1      35.115 -11.164   0.609  1.00  0.00     0.031 A 
HETATM   36  C   UNL     1      34.805 -10.105   1.476  1.00  0.00     0.030 A 
HETATM   37  C   UNL     1      35.886  -9.528   2.153  1.00  0.00     0.031 A 
HETATM   38  C   UNL     1      37.197 -10.017   2.015  1.00  0.00     0.032 A 
BRANCH  36  39
HETATM   39  N   UNL     1      33.495  -9.650   1.581  1.00  0.00    -0.377 N 
HETATM   40  C   UNL     1      32.401 -10.649   1.504  1.00  0.00     0.149 C 
HETATM   41  C   UNL     1      32.004 -11.107   2.918  1.00  0.00     0.187 C 
HETATM   42  O   UNL     1      31.624  -9.999   3.749  1.00  0.00    -0.388 OA
HETATM   43  C   UNL     1      32.697  -9.049   3.852  1.00  0.00     0.187 C 
HETATM   44  C   UNL     1      33.129  -8.528   2.472  1.00  0.00     0.149 C 
ENDBRANCH  36  39
ENDBRANCH  30  33
ENDBRANCH   6  29
TORSDOF 8
ENDMDL
MODEL 5
REMARK VINA RESULT:      -8.8      1.522      1.868
REMARK  8 active torsions:
REMARK  status: ('A' for Active; 'I' for Inactive)
REMARK    1  A    between atoms: C_6  and  N_7 
REMARK    2  A    between atoms: C_6  and  C_26 
REMARK       I    between atoms: N_7  and  C_8 
REMARK    3  A    between atoms: N_7  and  C_23 
REMARK    4  A    between atoms: C_8  and  C_9 
REMARK    5  A    between atoms: C_9  and  N_10 
REMARK    6  A    between atoms: C_14  and  C_15 
REMARK       I    between atoms: C_26  and  N_27 
REMARK    7  A    between atoms: N_27  and  C_28 
REMARK    8  A    between atoms: C_31  and  N_32 
ROOT
HETATM    1  C   UNL     1      37.054  -9.197   3.487  1.00  0.00     0.269 C 
HETATM    2  N   UNL     1      38.152 -10.183   3.173  1.00  0.00    -0.075 N 
HETATM    3  H   UNL     1      37.788 -10.769   2.403  1.00  0.00     0.279 HD
HETATM    4  C   UNL     1      39.390  -9.476   2.685  1.00  0.00     0.237 C 
HETATM    5  C   UNL     1      40.508 -10.469   2.367  1.00  0.00     0.069 C 
HETATM    6  C   UNL     1      40.784 -11.511   3.478  1.00  0.00     0.120 C 
HETATM    7  C   UNL     1      39.441 -12.129   3.935  1.00  0.00     0.069 C 
HETATM    8  C   UNL     1      38.416 -11.084   4.353  1.00  0.00     0.237 C 
ENDROOT
BRANCH   6   9
HETATM    9  N   UNL     1      41.796 -12.542   3.008  1.00  0.00    -0.328 N 
HETATM   10  C   UNL     1      42.437 -13.554   3.738  1.00  0.00     0.239 C 
HETATM   11  O   UNL     1      43.459 -14.091   3.287  1.00  0.00    -0.271 OA
BRANCH  10  12
HETATM   12  C   UNL     1      41.945 -14.003   5.117  1.00  0.00     0.228 C 
BRANCH  12  13
HETATM   13  N   UNL     1      42.409 -15.332   5.510  1.00  0.00    -0.347 N 
HETATM   14  C   UNL     1      43.479 -15.621   6.361  1.00  0.00     0.171 C 
HETATM   15  S   UNL     1      44.665 -14.606   6.918  1.00  0.00    -0.041 SA
HETATM   16  N   UNL     1      43.445 -16.974   6.643  1.00  0.00    -0.357 N 
HETATM   17  C   UNL     1      42.439 -17.664   5.857  1.00  0.00     0.135 C 
HETATM   18  H   UNL     1      44.128 -17.434   7.234  1.00  0.00     0.162 HD
HETATM   19  C   UNL     1      41.521 -16.492   5.455  1.00  0.00     0.155 C 
BRANCH  17  20
HETATM   20  C   UNL     1      43.031 -18.398   4.656  1.00  0.00    -0.034 A 
HETATM   21  C   UNL     1      42.691 -18.076   3.330  1.00  0.00     0.009 A 
HETATM   22  C   UNL     1      43.276 -18.745   2.251  1.00  0.00     0.001 A 
HETATM   23  C   UNL     1      44.218 -19.745   2.475  1.00  0.00     0.000 A 
HETATM   24  C   UNL     1      44.584 -20.067   3.778  1.00  0.00     0.001 A 
HETATM   25  C   UNL     1      44.007 -19.393   4.856  1.00  0.00     0.009 A 
ENDBRANCH  17  20
ENDBRANCH  12  13
ENDBRANCH  10  12
BRANCH   9  26
HETATM   26  C   UNL     1      42.101 -12.587   1.569  1.00  0.00     0.088 A 
HETATM   27  C   UNL     1      41.677 -13.805   0.776  1.00  0.00     0.027 A 
HETATM   28  C   UNL     1      41.124 -12.461   0.429  1.00  0.00     0.027 A 
ENDBRANCH   9  26
ENDBRANCH   6   9
BRANCH   6  29
HETATM   29  C   UNL     1      41.300 -10.809   4.787  1.00  0.00     0.251 C 
HETATM   30  N   UNL     1      40.981 -11.500   5.946  1.00  0.00    -0.325 N 
HETATM   31  H   UNL     1      40.763 -12.488   5.848  1.00  0.00     0.169 HD
HETATM   32  O   UNL     1      41.728  -9.659   4.740  1.00  0.00    -0.270 OA
BRANCH  30  33
HETATM   33  C   UNL     1      40.871 -10.971   7.249  1.00  0.00     0.034 A 
HETATM   34  C   UNL     1      39.666 -10.795   7.918  1.00  0.00     0.032 A 
HETATM   35  C   UNL     1      39.649 -10.347   9.248  1.00  0.00     0.031 A 
HETATM   36  C   UNL     1      40.823 -10.069   9.963  1.00  0.00     0.030 A 
HETATM   37  C   UNL     1      42.023 -10.213   9.256  1.00  0.00     0.031 A 
HETATM   38  C   UNL     1      42.051 -10.662   7.924  1.00  0.00     0.032 A 
BRANCH  36  39
HETATM   39  N   UNL     1      40.751  -9.624  11.279  1.00  0.00    -0.377 N 
HETATM   40  C   UNL     1      39.813 -10.314  12.198  1.00  0.00     0.149 C 
HETATM   41  C   UNL     1      40.549 -11.427  12.965  1.00  0.00     0.187 C 
HETATM   42  O   UNL     1      41.683 -10.916  13.684  1.00  0.00    -0.388 OA
HETATM   43  C   UNL     1      42.608 -10.278  12.787  1.00  0.00     0.187 C 
HETATM   44  C   UNL     1      41.943  -9.136  12.004  1.00  0.00     0.149 C 
ENDBRANCH  36  39
ENDBRANCH  30  33
ENDBRANCH   6  29
TORSDOF 8
ENDMDL
MODEL 6
REMARK VINA RESULT:      -8.7      3.186      7.360
REMARK  8 active torsions:
REMARK  status: ('A' for Active; 'I' for Inactive)
REMARK    1  A    between atoms: C_6  and  N_7 
REMARK    2  A    between atoms: C_6  and  C_26 
REMARK       I    between atoms: N_7  and  C_8 
REMARK    3  A    between atoms: N_7  and  C_23 
REMARK    4  A    between atoms: C_8  and  C_9 
REMARK    5  A    between atoms: C_9  and  N_10 
REMARK    6  A    between atoms: C_14  and  C_15 
REMARK       I    between atoms: C_26  and  N_27 
REMARK    7  A    between atoms: N_27  and  C_28 
REMARK    8  A    between atoms: C_31  and  N_32 
ROOT
HETATM    1  C   UNL     1      43.360 -16.743   8.118  1.00  0.00     0.269 C 
HETATM    2  N   UNL     1      43.169 -17.053   6.654  1.00  0.00    -0.075 N 
HETATM    3  H   UNL     1      43.785 -17.860   6.458  1.00  0.00     0.279 HD
HETATM    4  C   UNL     1      41.748 -17.464   6.369  1.00  0.00     0.237 C 
HETATM    5  C   UNL     1      41.547 -17.777   4.887  1.00  0.00     0.069 C 
HETATM    6  C   UNL     1      42.089 -16.699   3.917  1.00  0.00     0.120 C 
HETATM    7  C   UNL     1      43.529 -16.320   4.338  1.00  0.00     0.069 C 
HETATM    8  C   UNL     1      43.632 -15.901   5.798  1.00  0.00     0.237 C 
ENDROOT
BRANCH   6   9
HETATM    9  N   UNL     1      41.984 -17.170   2.477  1.00  0.00    -0.328 N 
HETATM   10  C   UNL     1      41.536 -16.473   1.345  1.00  0.00     0.239 C 
HETATM   11  O   UNL     1      41.213 -17.095   0.322  1.00  0.00    -0.271 OA
BRANCH  10  12
HETATM   12  C   UNL     1      41.381 -14.951   1.332  1.00  0.00     0.228 C 
BRANCH  12  13
HETATM   13  N   UNL     1      40.112 -14.487   0.772  1.00  0.00    -0.347 N 
HETATM   14  C   UNL     1      39.865 -14.159  -0.564  1.00  0.00     0.171 C 
HETATM   15  S   UNL     1      40.950 -13.927  -1.795  1.00  0.00    -0.041 SA
HETATM   16  N   UNL     1      38.501 -13.981  -0.712  1.00  0.00    -0.357 N 
HETATM   17  C   UNL     1      37.809 -14.029   0.562  1.00  0.00     0.135 C 
HETATM   18  H   UNL     1      38.070 -13.724  -1.592  1.00  0.00     0.162 HD
HETATM   19  C   UNL     1      38.841 -14.774   1.432  1.00  0.00     0.155 C 
BRANCH  17  20
HETATM   20  C   UNL     1      37.466 -12.641   1.099  1.00  0.00    -0.034 A 
HETATM   21  C   UNL     1      38.222 -12.011   2.103  1.00  0.00     0.009 A 
HETATM   22  C   UNL     1      37.901 -10.725   2.549  1.00  0.00     0.001 A 
HETATM   23  C   UNL     1      36.822 -10.042   1.997  1.00  0.00     0.000 A 
HETATM   24  C   UNL     1      36.072 -10.638   0.988  1.00  0.00     0.001 A 
HETATM   25  C   UNL     1      36.397 -11.919   0.536  1.00  0.00     0.009 A 
ENDBRANCH  17  20
ENDBRANCH  12  13
ENDBRANCH  10  12
BRANCH   9  26
HETATM   26  C   UNL     1      42.511 -18.508   2.160  1.00  0.00     0.088 A 
HETATM   27  C   UNL     1      43.901 -18.617   1.569  1.00  0.00     0.027 A 
HETATM   28  C   UNL     1      43.601 -19.250   2.889  1.00  0.00     0.027 A 
ENDBRANCH   9  26
ENDBRANCH   6   9
BRANCH   6  29
HETATM   29  C   UNL     1      41.313 -15.344   4.097  1.00  0.00     0.251 C 
HETATM   30  N   UNL     1      42.131 -14.226   4.026  1.00  0.00    -0.325 N 
HETATM   31  H   UNL     1      43.027 -14.340   3.561  1.00  0.00     0.169 HD
HETATM   32  O   UNL     1      40.149 -15.349   4.488  1.00  0.00    -0.270 OA
BRANCH  30  33
HETATM   33  C   UNL     1      41.880 -12.953   4.579  1.00  0.00     0.034 A 
HETATM   34  C   UNL     1      41.445 -11.857   3.844  1.00  0.00     0.032 A 
HETATM   35  C   UNL     1      41.131 -10.649   4.485  1.00  0.00     0.031 A 
HETATM   36  C   UNL     1      41.225 -10.488   5.875  1.00  0.00     0.030 A 
HETATM   37  C   UNL     1      41.705 -11.592   6.590  1.00  0.00     0.031 A 
HETATM   38  C   UNL     1      42.022 -12.806   5.959  1.00  0.00     0.032 A 
BRANCH  36  39
HETATM   39  N   UNL     1      40.904  -9.268   6.460  1.00  0.00    -0.377 N 
HETATM   40  C   UNL     1      40.068  -8.319   5.683  1.00  0.00     0.149 C 
HETATM   41  C   UNL     1      38.584  -8.506   6.044  1.00  0.00     0.187 C 
HETATM   42  O   UNL     1      38.357  -8.347   7.454  1.00  0.00    -0.388 OA
HETATM   43  C   UNL     1      39.141  -9.290   8.204  1.00  0.00     0.187 C 
HETATM   44  C   UNL     1      40.642  -9.143   7.909  1.00  0.00     0.149 C 
ENDBRANCH  36  39
ENDBRANCH  30  33
ENDBRANCH   6  29
TORSDOF 8
ENDMDL
MODEL 7
REMARK VINA RESULT:      -8.7      4.485      8.883
REMARK  8 active torsions:
REMARK  status: ('A' for Active; 'I' for Inactive)
REMARK    1  A    between atoms: C_6  and  N_7 
REMARK    2  A    between atoms: C_6  and  C_26 
REMARK       I    between atoms: N_7  and  C_8 
REMARK    3  A    between atoms: N_7  and  C_23 
REMARK    4  A    between atoms: C_8  and  C_9 
REMARK    5  A    between atoms: C_9  and  N_10 
REMARK    6  A    between atoms: C_14  and  C_15 
REMARK       I    between atoms: C_26  and  N_27 
REMARK    7  A    between atoms: N_27  and  C_28 
REMARK    8  A    between atoms: C_31  and  N_32 
ROOT
HETATM    1  C   UNL     1      41.725 -13.462  -2.873  1.00  0.00     0.269 C 
HETATM    2  N   UNL     1      41.438 -13.571  -1.396  1.00  0.00    -0.075 N 
HETATM    3  H   UNL     1      41.976 -14.391  -1.068  1.00  0.00     0.279 HD
HETATM    4  C   UNL     1      41.935 -12.355  -0.657  1.00  0.00     0.237 C 
HETATM    5  C   UNL     1      41.646 -12.459   0.840  1.00  0.00     0.069 C 
HETATM    6  C   UNL     1      40.191 -12.850   1.193  1.00  0.00     0.120 C 
HETATM    7  C   UNL     1      39.775 -14.072   0.339  1.00  0.00     0.069 C 
HETATM    8  C   UNL     1      39.977 -13.852  -1.153  1.00  0.00     0.237 C 
ENDROOT
BRANCH   6   9
HETATM    9  N   UNL     1      40.043 -13.079   2.688  1.00  0.00    -0.328 N 
HETATM   10  C   UNL     1      40.098 -14.279   3.412  1.00  0.00     0.239 C 
HETATM   11  O   UNL     1      39.643 -14.329   4.564  1.00  0.00    -0.271 OA
BRANCH  10  12
HETATM   12  C   UNL     1      40.666 -15.568   2.814  1.00  0.00     0.228 C 
BRANCH  12  13
HETATM   13  N   UNL     1      41.703 -16.197   3.632  1.00  0.00    -0.347 N 
HETATM   14  C   UNL     1      42.886 -15.598   4.077  1.00  0.00     0.171 C 
HETATM   15  S   UNL     1      43.573 -14.170   3.593  1.00  0.00    -0.041 SA
HETATM   16  N   UNL     1      43.475 -16.452   4.992  1.00  0.00    -0.357 N 
HETATM   17  C   UNL     1      42.782 -17.724   5.068  1.00  0.00     0.135 C 
HETATM   18  H   UNL     1      44.355 -16.248   5.451  1.00  0.00     0.162 HD
HETATM   19  C   UNL     1      41.406 -17.347   4.482  1.00  0.00     0.155 C 
BRANCH  17  20
HETATM   20  C   UNL     1      43.484 -18.827   4.281  1.00  0.00    -0.034 A 
HETATM   21  C   UNL     1      44.448 -19.672   4.858  1.00  0.00     0.009 A 
HETATM   22  C   UNL     1      45.048 -20.695   4.117  1.00  0.00     0.001 A 
HETATM   23  C   UNL     1      44.694 -20.897   2.787  1.00  0.00     0.000 A 
HETATM   24  C   UNL     1      43.728 -20.084   2.200  1.00  0.00     0.001 A 
HETATM   25  C   UNL     1      43.121 -19.069   2.942  1.00  0.00     0.009 A 
ENDBRANCH  17  20
ENDBRANCH  12  13
ENDBRANCH  10  12
BRANCH   9  26
HETATM   26  C   UNL     1      39.925 -11.890   3.548  1.00  0.00     0.088 A 
HETATM   27  C   UNL     1      41.106 -11.500   4.411  1.00  0.00     0.027 A 
HETATM   28  C   UNL     1      40.610 -10.561   3.360  1.00  0.00     0.027 A 
ENDBRANCH   9  26
ENDBRANCH   6   9
BRANCH   6  29
HETATM   29  C   UNL     1      39.182 -11.742   0.717  1.00  0.00     0.251 C 
HETATM   30  N   UNL     1      37.858 -12.157   0.733  1.00  0.00    -0.325 N 
HETATM   31  H   UNL     1      37.632 -12.952   1.324  1.00  0.00     0.169 HD
HETATM   32  O   UNL     1      39.600 -10.720   0.180  1.00  0.00    -0.270 OA
BRANCH  30  33
HETATM   33  C   UNL     1      36.793 -11.631  -0.027  1.00  0.00     0.034 A 
HETATM   34  C   UNL     1      36.792 -11.548  -1.414  1.00  0.00     0.032 A 
HETATM   35  C   UNL     1      35.655 -11.095  -2.100  1.00  0.00     0.031 A 
HETATM   36  C   UNL     1      34.477 -10.720  -1.438  1.00  0.00     0.030 A 
HETATM   37  C   UNL     1      34.515 -10.771  -0.039  1.00  0.00     0.031 A 
HETATM   38  C   UNL     1      35.648 -11.224   0.658  1.00  0.00     0.032 A 
BRANCH  36  39
HETATM   39  N   UNL     1      33.379 -10.274  -2.166  1.00  0.00    -0.377 N 
HETATM   40  C   UNL     1      33.061 -10.963  -3.441  1.00  0.00     0.149 C 
HETATM   41  C   UNL     1      32.028 -12.077  -3.196  1.00  0.00     0.187 C 
HETATM   42  O   UNL     1      30.834 -11.568  -2.581  1.00  0.00    -0.388 OA
HETATM   43  C   UNL     1      31.138 -10.932  -1.328  1.00  0.00     0.187 C 
HETATM   44  C   UNL     1      32.150  -9.788  -1.504  1.00  0.00     0.149 C 
ENDBRANCH  36  39
ENDBRANCH  30  33
ENDBRANCH   6  29
TORSDOF 8
ENDMDL
MODEL 8
REMARK VINA RESULT:      -8.6      2.261      4.166
REMARK  8 active torsions:
REMARK  status: ('A' for Active; 'I' for Inactive)
REMARK    1  A    between atoms: C_6  and  N_7 
REMARK    2  A    between atoms: C_6  and  C_26 
REMARK       I    between atoms: N_7  and  C_8 
REMARK    3  A    between atoms: N_7  and  C_23 
REMARK    4  A    between atoms: C_8  and  C_9 
REMARK    5  A    between atoms: C_9  and  N_10 
REMARK    6  A    between atoms: C_14  and  C_15 
REMARK       I    between atoms: C_26  and  N_27 
REMARK    7  A    between atoms: N_27  and  C_28 
REMARK    8  A    between atoms: C_31  and  N_32 
ROOT
HETATM    1  C   UNL     1      43.577 -16.261   7.771  1.00  0.00     0.269 C 
HETATM    2  N   UNL     1      42.904 -15.714   6.536  1.00  0.00    -0.075 N 
HETATM    3  H   UNL     1      43.269 -16.276   5.749  1.00  0.00     0.279 HD
HETATM    4  C   UNL     1      41.411 -15.909   6.604  1.00  0.00     0.237 C 
HETATM    5  C   UNL     1      40.722 -15.356   5.357  1.00  0.00     0.069 C 
HETATM    6  C   UNL     1      41.144 -13.919   4.967  1.00  0.00     0.120 C 
HETATM    7  C   UNL     1      42.689 -13.826   4.982  1.00  0.00     0.069 C 
HETATM    8  C   UNL     1      43.300 -14.279   6.301  1.00  0.00     0.237 C 
ENDROOT
BRANCH   6   9
HETATM    9  N   UNL     1      40.528 -13.520   3.637  1.00  0.00    -0.328 N 
HETATM   10  C   UNL     1      40.315 -14.296   2.488  1.00  0.00     0.239 C 
HETATM   11  O   UNL     1      40.103 -13.744   1.398  1.00  0.00    -0.271 OA
BRANCH  10  12
HETATM   12  C   UNL     1      40.378 -15.825   2.512  1.00  0.00     0.228 C 
BRANCH  12  13
HETATM   13  N   UNL     1      41.657 -16.374   2.064  1.00  0.00    -0.347 N 
HETATM   14  C   UNL     1      42.091 -16.493   0.740  1.00  0.00     0.171 C 
HETATM   15  S   UNL     1      41.217 -16.327  -0.658  1.00  0.00    -0.041 SA
HETATM   16  N   UNL     1      43.426 -16.852   0.761  1.00  0.00    -0.357 N 
HETATM   17  C   UNL     1      43.886 -17.142   2.107  1.00  0.00     0.135 C 
HETATM   18  H   UNL     1      43.969 -17.012  -0.078  1.00  0.00     0.162 HD
HETATM   19  C   UNL     1      42.819 -16.412   2.948  1.00  0.00     0.155 C 
BRANCH  17  20
HETATM   20  C   UNL     1      43.952 -18.640   2.397  1.00  0.00    -0.034 A 
HETATM   21  C   UNL     1      43.467 -19.607   1.499  1.00  0.00     0.009 A 
HETATM   22  C   UNL     1      43.574 -20.972   1.781  1.00  0.00     0.001 A 
HETATM   23  C   UNL     1      44.173 -21.398   2.962  1.00  0.00     0.000 A 
HETATM   24  C   UNL     1      44.678 -20.460   3.857  1.00  0.00     0.001 A 
HETATM   25  C   UNL     1      44.580 -19.096   3.572  1.00  0.00     0.009 A 
ENDBRANCH  17  20
ENDBRANCH  12  13
ENDBRANCH  10  12
BRANCH   9  26
HETATM   26  C   UNL     1      39.970 -12.162   3.528  1.00  0.00     0.088 A 
HETATM   27  C   UNL     1      40.886 -11.034   3.105  1.00  0.00     0.027 A 
HETATM   28  C   UNL     1      39.704 -11.388   2.263  1.00  0.00     0.027 A 
ENDBRANCH   9  26
ENDBRANCH   6   9
BRANCH   6  29
HETATM   29  C   UNL     1      40.729 -12.892   6.082  1.00  0.00     0.251 C 
HETATM   30  N   UNL     1      41.712 -11.954   6.363  1.00  0.00    -0.325 N 
HETATM   31  H   UNL     1      42.421 -11.803   5.650  1.00  0.00     0.169 HD
HETATM   32  O   UNL     1      39.724 -13.091   6.759  1.00  0.00    -0.270 OA
BRANCH  30  33
HETATM   33  C   UNL     1      41.871 -11.219   7.556  1.00  0.00     0.034 A 
HETATM   34  C   UNL     1      40.920 -10.343   8.064  1.00  0.00     0.032 A 
HETATM   35  C   UNL     1      41.116  -9.720   9.305  1.00  0.00     0.031 A 
HETATM   36  C   UNL     1      42.254  -9.952  10.092  1.00  0.00     0.030 A 
HETATM   37  C   UNL     1      43.218 -10.806   9.542  1.00  0.00     0.031 A 
HETATM   38  C   UNL     1      43.031 -11.436   8.300  1.00  0.00     0.032 A 
BRANCH  36  39
HETATM   39  N   UNL     1      42.401  -9.306  11.314  1.00  0.00    -0.377 N 
HETATM   40  C   UNL     1      41.194  -8.709  11.938  1.00  0.00     0.149 C 
HETATM   41  C   UNL     1      40.559  -9.710  12.920  1.00  0.00     0.187 C 
HETATM   42  O   UNL     1      41.494 -10.135  13.924  1.00  0.00    -0.388 OA
HETATM   43  C   UNL     1      42.647 -10.745  13.320  1.00  0.00     0.187 C 
HETATM   44  C   UNL     1      43.347  -9.788  12.343  1.00  0.00     0.149 C 
ENDBRANCH  36  39
ENDBRANCH  30  33
ENDBRANCH   6  29
TORSDOF 8
ENDMDL
MODEL 9
REMARK VINA RESULT:      -8.5      3.173      7.178
REMARK  8 active torsions:
REMARK  status: ('A' for Active; 'I' for Inactive)
REMARK    1  A    between atoms: C_6  and  N_7 
REMARK    2  A    between atoms: C_6  and  C_26 
REMARK       I    between atoms: N_7  and  C_8 
REMARK    3  A    between atoms: N_7  and  C_23 
REMARK    4  A    between atoms: C_8  and  C_9 
REMARK    5  A    between atoms: C_9  and  N_10 
REMARK    6  A    between atoms: C_14  and  C_15 
REMARK       I    between atoms: C_26  and  N_27 
REMARK    7  A    between atoms: N_27  and  C_28 
REMARK    8  A    between atoms: C_31  and  N_32 
ROOT
HETATM    1  C   UNL     1      43.300 -16.809   8.010  1.00  0.00     0.269 C 
HETATM    2  N   UNL     1      43.121 -17.002   6.525  1.00  0.00    -0.075 N 
HETATM    3  H   UNL     1      43.742 -17.788   6.270  1.00  0.00     0.279 HD
HETATM    4  C   UNL     1      41.703 -17.395   6.198  1.00  0.00     0.237 C 
HETATM    5  C   UNL     1      41.514 -17.590   4.695  1.00  0.00     0.069 C 
HETATM    6  C   UNL     1      42.058 -16.437   3.818  1.00  0.00     0.120 C 
HETATM    7  C   UNL     1      43.493 -16.087   4.278  1.00  0.00     0.069 C 
HETATM    8  C   UNL     1      43.585 -15.784   5.767  1.00  0.00     0.237 C 
ENDROOT
BRANCH   6   9
HETATM    9  N   UNL     1      41.965 -16.792   2.344  1.00  0.00    -0.328 N 
HETATM   10  C   UNL     1      41.642 -15.973   1.251  1.00  0.00     0.239 C 
HETATM   11  O   UNL     1      41.299 -16.483   0.175  1.00  0.00    -0.271 OA
BRANCH  10  12
HETATM   12  C   UNL     1      41.651 -14.446   1.345  1.00  0.00     0.228 C 
BRANCH  12  13
HETATM   13  N   UNL     1      40.869 -13.781   0.304  1.00  0.00    -0.347 N 
HETATM   14  C   UNL     1      39.713 -13.017   0.494  1.00  0.00     0.171 C 
HETATM   15  S   UNL     1      38.767 -12.885   1.847  1.00  0.00    -0.041 SA
HETATM   16  N   UNL     1      39.415 -12.394  -0.705  1.00  0.00    -0.357 N 
HETATM   17  C   UNL     1      40.275 -12.850  -1.780  1.00  0.00     0.135 C 
HETATM   18  H   UNL     1      38.611 -11.791  -0.828  1.00  0.00     0.162 HD
HETATM   19  C   UNL     1      41.463 -13.429  -0.984  1.00  0.00     0.155 C 
BRANCH  17  20
HETATM   20  C   UNL     1      39.600 -13.883  -2.678  1.00  0.00    -0.034 A 
HETATM   21  C   UNL     1      40.248 -15.055  -3.104  1.00  0.00     0.009 A 
HETATM   22  C   UNL     1      39.589 -15.998  -3.899  1.00  0.00     0.001 A 
HETATM   23  C   UNL     1      38.267 -15.790  -4.280  1.00  0.00     0.000 A 
HETATM   24  C   UNL     1      37.598 -14.647  -3.854  1.00  0.00     0.001 A 
HETATM   25  C   UNL     1      38.253 -13.710  -3.052  1.00  0.00     0.009 A 
ENDBRANCH  17  20
ENDBRANCH  12  13
ENDBRANCH  10  12
BRANCH   9  26
HETATM   26  C   UNL     1      42.359 -18.154   1.948  1.00  0.00     0.088 A 
HETATM   27  C   UNL     1      43.745 -18.371   1.379  1.00  0.00     0.027 A 
HETATM   28  C   UNL     1      43.346 -19.053   2.646  1.00  0.00     0.027 A 
ENDBRANCH   9  26
ENDBRANCH   6   9
BRANCH   6  29
HETATM   29  C   UNL     1      41.275 -15.103   4.099  1.00  0.00     0.251 C 
HETATM   30  N   UNL     1      42.099 -13.994   4.221  1.00  0.00    -0.325 N 
HETATM   31  H   UNL     1      43.027 -14.063   3.812  1.00  0.00     0.169 HD
HETATM   32  O   UNL     1      40.085 -15.140   4.400  1.00  0.00    -0.270 OA
BRANCH  30  33
HETATM   33  C   UNL     1      41.812 -12.791   4.900  1.00  0.00     0.034 A 
HETATM   34  C   UNL     1      41.980 -12.610   6.267  1.00  0.00     0.032 A 
HETATM   35  C   UNL     1      41.758 -11.354   6.851  1.00  0.00     0.031 A 
HETATM   36  C   UNL     1      41.374 -10.233   6.102  1.00  0.00     0.030 A 
HETATM   37  C   UNL     1      41.170 -10.449   4.734  1.00  0.00     0.031 A 
HETATM   38  C   UNL     1      41.390 -11.702   4.138  1.00  0.00     0.032 A 
BRANCH  36  39
HETATM   39  N   UNL     1      41.163  -9.011   6.731  1.00  0.00    -0.377 N 
HETATM   40  C   UNL     1      40.349  -7.992   6.024  1.00  0.00     0.149 C 
HETATM   41  C   UNL     1      38.878  -8.095   6.463  1.00  0.00     0.187 C 
HETATM   42  O   UNL     1      38.738  -7.960   7.886  1.00  0.00    -0.388 OA
HETATM   43  C   UNL     1      39.499  -8.969   8.570  1.00  0.00     0.187 C 
HETATM   44  C   UNL     1      40.988  -8.908   8.195  1.00  0.00     0.149 C 
ENDBRANCH  36  39
ENDBRANCH  30  33
ENDBRANCH   6  29
TORSDOF 8
ENDMDL
MODEL 10
REMARK VINA RESULT:      -8.4      4.701      9.076
REMARK  8 active torsions:
REMARK  status: ('A' for Active; 'I' for Inactive)
REMARK    1  A    between atoms: C_6  and  N_7 
REMARK    2  A    between atoms: C_6  and  C_26 
REMARK       I    between atoms: N_7  and  C_8 
REMARK    3  A    between atoms: N_7  and  C_23 
REMARK    4  A    between atoms: C_8  and  C_9 
REMARK    5  A    between atoms: C_9  and  N_10 
REMARK    6  A    between atoms: C_14  and  C_15 
REMARK       I    between atoms: C_26  and  N_27 
REMARK    7  A    between atoms: N_27  and  C_28 
REMARK    8  A    between atoms: C_31  and  N_32 
ROOT
HETATM    1  C   UNL     1      40.641 -15.925  -2.467  1.00  0.00     0.269 C 
HETATM    2  N   UNL     1      40.319 -15.467  -1.066  1.00  0.00    -0.075 N 
HETATM    3  H   UNL     1      39.670 -16.175  -0.684  1.00  0.00     0.279 HD
HETATM    4  C   UNL     1      41.556 -15.447  -0.206  1.00  0.00     0.237 C 
HETATM    5  C   UNL     1      41.238 -14.980   1.214  1.00  0.00     0.069 C 
HETATM    6  C   UNL     1      40.402 -13.681   1.297  1.00  0.00     0.120 C 
HETATM    7  C   UNL     1      39.193 -13.796   0.338  1.00  0.00     0.069 C 
HETATM    8  C   UNL     1      39.596 -14.144  -1.089  1.00  0.00     0.237 C 
ENDROOT
BRANCH   6   9
HETATM    9  N   UNL     1      40.006 -13.387   2.734  1.00  0.00    -0.328 N 
HETATM   10  C   UNL     1      40.688 -13.691   3.923  1.00  0.00     0.239 C 
HETATM   11  O   UNL     1      40.084 -13.672   5.005  1.00  0.00    -0.271 OA
BRANCH  10  12
HETATM   12  C   UNL     1      42.163 -14.098   3.937  1.00  0.00     0.228 C 
BRANCH  12  13
HETATM   13  N   UNL     1      42.423 -15.367   4.615  1.00  0.00    -0.347 N 
HETATM   14  C   UNL     1      43.202 -15.552   5.761  1.00  0.00     0.171 C 
HETATM   15  S   UNL     1      44.248 -14.492   6.488  1.00  0.00    -0.041 SA
HETATM   16  N   UNL     1      43.013 -16.850   6.198  1.00  0.00    -0.357 N 
HETATM   17  C   UNL     1      42.222 -17.626   5.262  1.00  0.00     0.135 C 
HETATM   18  H   UNL     1      43.481 -17.234   7.011  1.00  0.00     0.162 HD
HETATM   19  C   UNL     1      41.519 -16.506   4.469  1.00  0.00     0.155 C 
BRANCH  17  20
HETATM   20  C   UNL     1      43.075 -18.535   4.380  1.00  0.00    -0.034 A 
HETATM   21  C   UNL     1      44.085 -19.363   4.901  1.00  0.00     0.009 A 
HETATM   22  C   UNL     1      44.825 -20.209   4.070  1.00  0.00     0.001 A 
HETATM   23  C   UNL     1      44.568 -20.248   2.703  1.00  0.00     0.000 A 
HETATM   24  C   UNL     1      43.560 -19.451   2.168  1.00  0.00     0.001 A 
HETATM   25  C   UNL     1      42.814 -18.613   2.999  1.00  0.00     0.009 A 
ENDBRANCH  17  20
ENDBRANCH  12  13
ENDBRANCH  10  12
BRANCH   9  26
HETATM   26  C   UNL     1      38.794 -12.583   2.954  1.00  0.00     0.088 A 
HETATM   27  C   UNL     1      38.931 -11.234   3.629  1.00  0.00     0.027 A 
HETATM   28  C   UNL     1      38.400 -11.318   2.235  1.00  0.00     0.027 A 
ENDBRANCH   9  26
ENDBRANCH   6   9
BRANCH   6  29
HETATM   29  C   UNL     1      41.198 -12.464   0.699  1.00  0.00     0.251 C 
HETATM   30  N   UNL     1      40.502 -11.781  -0.288  1.00  0.00    -0.325 N 
HETATM   31  H   UNL     1      39.493 -11.895  -0.303  1.00  0.00     0.169 HD
HETATM   32  O   UNL     1      42.391 -12.325   0.953  1.00  0.00    -0.270 OA
BRANCH  30  33
HETATM   33  C   UNL     1      41.048 -10.983  -1.315  1.00  0.00     0.034 A 
HETATM   34  C   UNL     1      42.232 -11.274  -1.981  1.00  0.00     0.032 A 
HETATM   35  C   UNL     1      42.659 -10.477  -3.054  1.00  0.00     0.031 A 
HETATM   36  C   UNL     1      41.924  -9.374  -3.511  1.00  0.00     0.030 A 
HETATM   37  C   UNL     1      40.756  -9.075  -2.799  1.00  0.00     0.031 A 
HETATM   38  C   UNL     1      40.318  -9.866  -1.724  1.00  0.00     0.032 A 
BRANCH  36  39
HETATM   39  N   UNL     1      42.395  -8.615  -4.577  1.00  0.00    -0.377 N 
HETATM   40  C   UNL     1      42.792  -9.325  -5.818  1.00  0.00     0.149 C 
HETATM   41  C   UNL     1      41.610  -9.369  -6.802  1.00  0.00     0.187 C 
HETATM   42  O   UNL     1      41.121  -8.052  -7.104  1.00  0.00    -0.388 OA
HETATM   43  C   UNL     1      40.703  -7.378  -5.906  1.00  0.00     0.187 C 
HETATM   44  C   UNL     1      41.847  -7.276  -4.884  1.00  0.00     0.149 C 
ENDBRANCH  36  39
ENDBRANCH  30  33
ENDBRANCH   6  29
TORSDOF 8
ENDMDL
