MODEL 1
REMARK VINA RESULT:      -9.3      0.000      0.000
REMARK  3 active torsions:
REMARK  status: ('A' for Active; 'I' for Inactive)
REMARK    1  A    between atoms: C_4  and  C_5 
REMARK    2  A    between atoms: C_9  and  N_10 
REMARK       I    between atoms: N_10  and  C_11 
REMARK    3  A    between atoms: C_11  and  C_12 
ROOT
HETATM    1  C   UNL     1      42.634 -17.139   1.843  1.00  0.00     0.090 A 
HETATM    2  N   UNL     1      42.952 -15.855   2.089  1.00  0.00    -0.173 NA
HETATM    3  N   UNL     1      42.155 -15.146   1.276  1.00  0.00    -0.262 N 
HETATM    4  H   UNL     1      42.213 -14.130   1.278  1.00  0.00     0.191 HD
HETATM    5  C   UNL     1      41.316 -15.916   0.519  1.00  0.00     0.126 A 
HETATM    6  C   UNL     1      41.605 -17.214   0.859  1.00  0.00     0.084 A 
ENDROOT
BRANCH   5   7
HETATM    7  N   UNL     1      40.394 -15.416  -0.374  1.00  0.00    -0.306 N 
HETATM    8  C   UNL     1      40.707 -14.416  -1.279  1.00  0.00     0.281 C 
HETATM    9  O   UNL     1      41.798 -13.878  -1.394  1.00  0.00    -0.265 OA
HETATM   10  H   UNL     1      39.434 -15.753  -0.366  1.00  0.00     0.170 HD
BRANCH   8  11
HETATM   11  C   UNL     1      39.515 -14.009  -2.145  1.00  0.00     0.193 A 
HETATM   12  N   UNL     1      38.729 -13.084  -1.643  1.00  0.00    -0.241 NA
HETATM   13  C   UNL     1      37.646 -12.665  -2.390  1.00  0.00     0.054 A 
HETATM   14  C   UNL     1      36.810 -11.602  -1.727  1.00  0.00     0.072 C 
HETATM   15  C   UNL     1      37.347 -13.153  -3.615  1.00  0.00     0.033 A 
HETATM   16  C   UNL     1      36.188 -12.727  -4.470  1.00  0.00     0.070 C 
HETATM   17  N   UNL     1      38.149 -14.127  -4.157  1.00  0.00    -0.324 N 
HETATM   18  C   UNL     1      39.246 -14.636  -3.508  1.00  0.00     0.280 A 
HETATM   19  H   UNL     1      37.948 -14.521  -5.069  1.00  0.00     0.169 HD
HETATM   20  O   UNL     1      39.938 -15.522  -3.979  1.00  0.00    -0.265 OA
ENDBRANCH   8  11
ENDBRANCH   5   7
BRANCH   1  21
HETATM   21  C   UNL     1      43.297 -18.242   2.550  1.00  0.00    -0.005 A 
HETATM   22  C   UNL     1      43.480 -19.479   1.913  1.00  0.00     0.020 A 
HETATM   23  C   UNL     1      44.120 -20.543   2.563  1.00  0.00    -0.061 A 
HETATM   24  C   UNL     1      44.313 -21.861   1.874  1.00  0.00     0.048 C 
HETATM   25  C   UNL     1      44.573 -20.365   3.875  1.00  0.00     0.013 A 
HETATM   26  C   UNL     1      44.397 -19.143   4.535  1.00  0.00    -0.061 A 
HETATM   27  C   UNL     1      43.758 -18.088   3.865  1.00  0.00     0.020 A 
HETATM   28  C   UNL     1      44.880 -18.982   5.947  1.00  0.00     0.048 C 
ENDBRANCH   1  21
TORSDOF 3
ENDMDL
MODEL 2
REMARK VINA RESULT:      -9.2      0.074      1.721
REMARK  3 active torsions:
REMARK  status: ('A' for Active; 'I' for Inactive)
REMARK    1  A    between atoms: C_4  and  C_5 
REMARK    2  A    between atoms: C_9  and  N_10 
REMARK       I    between atoms: N_10  and  C_11 
REMARK    3  A    between atoms: C_11  and  C_12 
ROOT
HETATM    1  C   UNL     1      42.646 -17.156   1.847  1.00  0.00     0.090 A 
HETATM    2  N   UNL     1      42.955 -15.878   2.128  1.00  0.00    -0.173 NA
HETATM    3  N   UNL     1      42.159 -15.151   1.331  1.00  0.00    -0.262 N 
HETATM    4  H   UNL     1      42.211 -14.135   1.360  1.00  0.00     0.191 HD
HETATM    5  C   UNL     1      41.329 -15.905   0.548  1.00  0.00     0.126 A 
HETATM    6  C   UNL     1      41.623 -17.211   0.854  1.00  0.00     0.084 A 
ENDROOT
BRANCH   5   7
HETATM    7  N   UNL     1      40.409 -15.386  -0.337  1.00  0.00    -0.306 N 
HETATM    8  C   UNL     1      40.737 -14.399  -1.251  1.00  0.00     0.281 C 
HETATM    9  O   UNL     1      41.840 -13.891  -1.382  1.00  0.00    -0.265 OA
HETATM   10  H   UNL     1      39.441 -15.698  -0.315  1.00  0.00     0.170 HD
BRANCH   8  11
HETATM   11  C   UNL     1      39.545 -13.966  -2.104  1.00  0.00     0.193 A 
HETATM   12  N   UNL     1      38.753 -13.065  -1.570  1.00  0.00    -0.241 NA
HETATM   13  C   UNL     1      37.670 -12.624  -2.305  1.00  0.00     0.054 A 
HETATM   14  C   UNL     1      36.826 -11.591  -1.604  1.00  0.00     0.072 C 
HETATM   15  C   UNL     1      37.378 -13.066  -3.548  1.00  0.00     0.033 A 
HETATM   16  C   UNL     1      36.219 -12.614  -4.390  1.00  0.00     0.070 C 
HETATM   17  N   UNL     1      38.186 -14.015  -4.125  1.00  0.00    -0.324 N 
HETATM   18  C   UNL     1      39.284 -14.542  -3.491  1.00  0.00     0.280 A 
HETATM   19  H   UNL     1      37.990 -14.375  -5.051  1.00  0.00     0.169 HD
HETATM   20  O   UNL     1      39.982 -15.406  -3.993  1.00  0.00    -0.265 OA
ENDBRANCH   8  11
ENDBRANCH   5   7
BRANCH   1  21
HETATM   21  C   UNL     1      43.311 -18.274   2.527  1.00  0.00    -0.005 A 
HETATM   22  C   UNL     1      43.784 -18.121   3.840  1.00  0.00     0.020 A 
HETATM   23  C   UNL     1      44.413 -19.176   4.513  1.00  0.00    -0.061 A 
HETATM   24  C   UNL     1      44.914 -19.004   5.917  1.00  0.00     0.048 C 
HETATM   25  C   UNL     1      44.578 -20.401   3.856  1.00  0.00     0.013 A 
HETATM   26  C   UNL     1      44.122 -20.577   2.544  1.00  0.00    -0.061 A 
HETATM   27  C   UNL     1      43.490 -19.510   1.888  1.00  0.00     0.020 A 
HETATM   28  C   UNL     1      44.324 -21.896   1.857  1.00  0.00     0.048 C 
ENDBRANCH   1  21
TORSDOF 3
ENDMDL
MODEL 3
REMARK VINA RESULT:      -9.1      1.954      2.025
REMARK  3 active torsions:
REMARK  status: ('A' for Active; 'I' for Inactive)
REMARK    1  A    between atoms: C_4  and  C_5 
REMARK    2  A    between atoms: C_9  and  N_10 
REMARK       I    between atoms: N_10  and  C_11 
REMARK    3  A    between atoms: C_11  and  C_12 
ROOT
HETATM    1  C   UNL     1      42.300 -17.718   1.578  1.00  0.00     0.090 A 
HETATM    2  N   UNL     1      40.959 -17.692   1.679  1.00  0.00    -0.173 NA
HETATM    3  N   UNL     1      40.572 -16.738   0.819  1.00  0.00    -0.262 N 
HETATM    4  H   UNL     1      39.581 -16.528   0.716  1.00  0.00     0.191 HD
HETATM    5  C   UNL     1      41.608 -16.148   0.149  1.00  0.00     0.126 A 
HETATM    6  C   UNL     1      42.744 -16.757   0.622  1.00  0.00     0.084 A 
ENDROOT
BRANCH   5   7
HETATM    7  N   UNL     1      41.460 -15.158  -0.797  1.00  0.00    -0.306 N 
HETATM    8  C   UNL     1      40.381 -14.289  -0.796  1.00  0.00     0.281 C 
HETATM    9  O   UNL     1      39.468 -14.292   0.015  1.00  0.00    -0.265 OA
HETATM   10  H   UNL     1      42.134 -15.063  -1.553  1.00  0.00     0.170 HD
BRANCH   8  11
HETATM   11  C   UNL     1      40.422 -13.297  -1.958  1.00  0.00     0.193 A 
HETATM   12  N   UNL     1      40.050 -12.069  -1.679  1.00  0.00    -0.241 NA
HETATM   13  C   UNL     1      40.084 -11.127  -2.688  1.00  0.00     0.054 A 
HETATM   14  C   UNL     1      39.640  -9.750  -2.265  1.00  0.00     0.072 C 
HETATM   15  C   UNL     1      40.483 -11.396  -3.951  1.00  0.00     0.033 A 
HETATM   16  C   UNL     1      40.545 -10.407  -5.081  1.00  0.00     0.070 C 
HETATM   17  N   UNL     1      40.868 -12.674  -4.270  1.00  0.00    -0.324 N 
HETATM   18  C   UNL     1      40.865 -13.702  -3.360  1.00  0.00     0.280 A 
HETATM   19  H   UNL     1      41.163 -12.912  -5.210  1.00  0.00     0.169 HD
HETATM   20  O   UNL     1      41.179 -14.843  -3.653  1.00  0.00    -0.265 OA
ENDBRANCH   8  11
ENDBRANCH   5   7
BRANCH   1  21
HETATM   21  C   UNL     1      43.111 -18.649   2.373  1.00  0.00    -0.005 A 
HETATM   22  C   UNL     1      43.437 -19.915   1.861  1.00  0.00     0.020 A 
HETATM   23  C   UNL     1      44.218 -20.817   2.596  1.00  0.00    -0.061 A 
HETATM   24  C   UNL     1      44.562 -22.167   2.041  1.00  0.00     0.048 C 
HETATM   25  C   UNL     1      44.670 -20.446   3.868  1.00  0.00     0.013 A 
HETATM   26  C   UNL     1      44.353 -19.192   4.404  1.00  0.00    -0.061 A 
HETATM   27  C   UNL     1      43.574 -18.300   3.650  1.00  0.00     0.020 A 
HETATM   28  C   UNL     1      44.839 -18.824   5.775  1.00  0.00     0.048 C 
ENDBRANCH   1  21
TORSDOF 3
ENDMDL
MODEL 4
REMARK VINA RESULT:      -9.1      2.158      2.957
REMARK  3 active torsions:
REMARK  status: ('A' for Active; 'I' for Inactive)
REMARK    1  A    between atoms: C_4  and  C_5 
REMARK    2  A    between atoms: C_9  and  N_10 
REMARK       I    between atoms: N_10  and  C_11 
REMARK    3  A    between atoms: C_11  and  C_12 
ROOT
HETATM    1  C   UNL     1      42.289 -17.700   1.583  1.00  0.00     0.090 A 
HETATM    2  N   UNL     1      40.959 -17.600   1.762  1.00  0.00    -0.173 NA
HETATM    3  N   UNL     1      40.567 -16.668   0.881  1.00  0.00    -0.262 N 
HETATM    4  H   UNL     1      39.583 -16.411   0.828  1.00  0.00     0.191 HD
HETATM    5  C   UNL     1      41.586 -16.165   0.121  1.00  0.00     0.126 A 
HETATM    6  C   UNL     1      42.718 -16.809   0.555  1.00  0.00     0.084 A 
ENDROOT
BRANCH   5   7
HETATM    7  N   UNL     1      41.429 -15.213  -0.862  1.00  0.00    -0.306 N 
HETATM    8  C   UNL     1      41.153 -13.888  -0.571  1.00  0.00     0.281 C 
HETATM    9  O   UNL     1      41.025 -13.418   0.550  1.00  0.00    -0.265 OA
HETATM   10  H   UNL     1      41.478 -15.474  -1.844  1.00  0.00     0.170 HD
BRANCH   8  11
HETATM   11  C   UNL     1      40.994 -13.029  -1.826  1.00  0.00     0.193 A 
HETATM   12  N   UNL     1      41.762 -11.967  -1.896  1.00  0.00    -0.241 NA
HETATM   13  C   UNL     1      41.672 -11.164  -3.016  1.00  0.00     0.054 A 
HETATM   14  C   UNL     1      42.595  -9.973  -3.001  1.00  0.00     0.072 C 
HETATM   15  C   UNL     1      40.837 -11.411  -4.051  1.00  0.00     0.033 A 
HETATM   16  C   UNL     1      40.708 -10.576  -5.293  1.00  0.00     0.070 C 
HETATM   17  N   UNL     1      40.018 -12.512  -3.996  1.00  0.00    -0.324 N 
HETATM   18  C   UNL     1      40.003 -13.377  -2.931  1.00  0.00     0.280 A 
HETATM   19  H   UNL     1      39.374 -12.721  -4.749  1.00  0.00     0.169 HD
HETATM   20  O   UNL     1      39.253 -14.337  -2.872  1.00  0.00    -0.265 OA
ENDBRANCH   8  11
ENDBRANCH   5   7
BRANCH   1  21
HETATM   21  C   UNL     1      43.100 -18.634   2.373  1.00  0.00    -0.005 A 
HETATM   22  C   UNL     1      43.581 -18.257   3.637  1.00  0.00     0.020 A 
HETATM   23  C   UNL     1      44.348 -19.135   4.414  1.00  0.00    -0.061 A 
HETATM   24  C   UNL     1      44.856 -18.725   5.764  1.00  0.00     0.048 C 
HETATM   25  C   UNL     1      44.646 -20.407   3.910  1.00  0.00     0.013 A 
HETATM   26  C   UNL     1      44.186 -20.804   2.649  1.00  0.00    -0.061 A 
HETATM   27  C   UNL     1      43.414 -19.913   1.888  1.00  0.00     0.020 A 
HETATM   28  C   UNL     1      44.531 -22.168   2.126  1.00  0.00     0.048 C 
ENDBRANCH   1  21
TORSDOF 3
ENDMDL
MODEL 5
REMARK VINA RESULT:      -8.6      1.724      2.877
REMARK  3 active torsions:
REMARK  status: ('A' for Active; 'I' for Inactive)
REMARK    1  A    between atoms: C_4  and  C_5 
REMARK    2  A    between atoms: C_9  and  N_10 
REMARK       I    between atoms: N_10  and  C_11 
REMARK    3  A    between atoms: C_11  and  C_12 
ROOT
HETATM    1  C   UNL     1      43.122 -17.927   2.528  1.00  0.00     0.090 A 
HETATM    2  N   UNL     1      44.063 -17.552   1.642  1.00  0.00    -0.173 NA
HETATM    3  N   UNL     1      43.377 -16.984   0.639  1.00  0.00    -0.262 N 
HETATM    4  H   UNL     1      43.879 -16.617  -0.167  1.00  0.00     0.191 HD
HETATM    5  C   UNL     1      42.025 -16.959   0.841  1.00  0.00     0.126 A 
HETATM    6  C   UNL     1      41.825 -17.568   2.055  1.00  0.00     0.084 A 
ENDROOT
BRANCH   5   7
HETATM    7  N   UNL     1      41.116 -16.412  -0.038  1.00  0.00    -0.306 N 
HETATM    8  C   UNL     1      41.186 -15.092  -0.448  1.00  0.00     0.281 C 
HETATM    9  O   UNL     1      42.032 -14.283  -0.098  1.00  0.00    -0.265 OA
HETATM   10  H   UNL     1      40.337 -16.967  -0.385  1.00  0.00     0.170 HD
BRANCH   8  11
HETATM   11  C   UNL     1      40.053 -14.709  -1.400  1.00  0.00     0.193 A 
HETATM   12  N   UNL     1      39.925 -15.457  -2.471  1.00  0.00    -0.241 NA
HETATM   13  C   UNL     1      38.907 -15.167  -3.358  1.00  0.00     0.054 A 
HETATM   14  C   UNL     1      38.845 -16.084  -4.552  1.00  0.00     0.072 C 
HETATM   15  C   UNL     1      38.029 -14.154  -3.185  1.00  0.00     0.033 A 
HETATM   16  C   UNL     1      36.901 -13.802  -4.114  1.00  0.00     0.070 C 
HETATM   17  N   UNL     1      38.147 -13.352  -2.077  1.00  0.00    -0.324 N 
HETATM   18  C   UNL     1      39.126 -13.529  -1.131  1.00  0.00     0.280 A 
HETATM   19  H   UNL     1      37.512 -12.579  -1.922  1.00  0.00     0.169 HD
HETATM   20  O   UNL     1      39.247 -12.797  -0.163  1.00  0.00    -0.265 OA
ENDBRANCH   8  11
ENDBRANCH   5   7
BRANCH   1  21
HETATM   21  C   UNL     1      43.477 -18.594   3.786  1.00  0.00    -0.005 A 
HETATM   22  C   UNL     1      43.187 -17.983   5.017  1.00  0.00     0.020 A 
HETATM   23  C   UNL     1      43.507 -18.605   6.230  1.00  0.00    -0.061 A 
HETATM   24  C   UNL     1      43.191 -17.945   7.540  1.00  0.00     0.048 C 
HETATM   25  C   UNL     1      44.136 -19.855   6.209  1.00  0.00     0.013 A 
HETATM   26  C   UNL     1      44.443 -20.482   4.996  1.00  0.00    -0.061 A 
HETATM   27  C   UNL     1      44.110 -19.846   3.791  1.00  0.00     0.020 A 
HETATM   28  C   UNL     1      45.131 -21.817   5.001  1.00  0.00     0.048 C 
ENDBRANCH   1  21
TORSDOF 3
ENDMDL
MODEL 6
REMARK VINA RESULT:      -8.6      2.811      4.186
REMARK  3 active torsions:
REMARK  status: ('A' for Active; 'I' for Inactive)
REMARK    1  A    between atoms: C_4  and  C_5 
REMARK    2  A    between atoms: C_9  and  N_10 
REMARK       I    between atoms: N_10  and  C_11 
REMARK    3  A    between atoms: C_11  and  C_12 
ROOT
HETATM    1  C   UNL     1      41.669 -17.466   2.392  1.00  0.00     0.090 A 
HETATM    2  N   UNL     1      41.065 -17.681   1.209  1.00  0.00    -0.173 NA
HETATM    3  N   UNL     1      40.202 -16.663   1.078  1.00  0.00    -0.262 N 
HETATM    4  H   UNL     1      39.615 -16.606   0.248  1.00  0.00     0.191 HD
HETATM    5  C   UNL     1      40.229 -15.780   2.123  1.00  0.00     0.126 A 
HETATM    6  C   UNL     1      41.167 -16.275   2.995  1.00  0.00     0.084 A 
ENDROOT
BRANCH   5   7
HETATM    7  N   UNL     1      39.449 -14.648   2.207  1.00  0.00    -0.306 N 
HETATM    8  C   UNL     1      39.194 -13.843   1.109  1.00  0.00     0.281 C 
HETATM    9  O   UNL     1      39.608 -14.034  -0.024  1.00  0.00    -0.265 OA
HETATM   10  H   UNL     1      39.065 -14.352   3.101  1.00  0.00     0.170 HD
BRANCH   8  11
HETATM   11  C   UNL     1      38.328 -12.631   1.455  1.00  0.00     0.193 A 
HETATM   12  N   UNL     1      37.352 -12.365   0.619  1.00  0.00    -0.241 NA
HETATM   13  C   UNL     1      36.527 -11.291   0.892  1.00  0.00     0.054 A 
HETATM   14  C   UNL     1      35.438 -11.072  -0.126  1.00  0.00     0.072 C 
HETATM   15  C   UNL     1      36.667 -10.496   1.977  1.00  0.00     0.033 A 
HETATM   16  C   UNL     1      35.794  -9.323   2.323  1.00  0.00     0.070 C 
HETATM   17  N   UNL     1      37.686 -10.749   2.861  1.00  0.00    -0.324 N 
HETATM   18  C   UNL     1      38.580 -11.777   2.692  1.00  0.00     0.280 A 
HETATM   19  H   UNL     1      37.825 -10.167   3.678  1.00  0.00     0.169 HD
HETATM   20  O   UNL     1      39.503 -11.981   3.463  1.00  0.00    -0.265 OA
ENDBRANCH   8  11
ENDBRANCH   5   7
BRANCH   1  21
HETATM   21  C   UNL     1      42.701 -18.376   2.902  1.00  0.00    -0.005 A 
HETATM   22  C   UNL     1      43.348 -18.100   4.117  1.00  0.00     0.020 A 
HETATM   23  C   UNL     1      44.329 -18.960   4.630  1.00  0.00    -0.061 A 
HETATM   24  C   UNL     1      45.014 -18.658   5.929  1.00  0.00     0.048 C 
HETATM   25  C   UNL     1      44.672 -20.109   3.907  1.00  0.00     0.013 A 
HETATM   26  C   UNL     1      44.047 -20.403   2.689  1.00  0.00    -0.061 A 
HETATM   27  C   UNL     1      43.063 -19.533   2.195  1.00  0.00     0.020 A 
HETATM   28  C   UNL     1      44.442 -21.634   1.928  1.00  0.00     0.048 C 
ENDBRANCH   1  21
TORSDOF 3
ENDMDL
MODEL 7
REMARK VINA RESULT:      -8.5      2.749      3.418
REMARK  3 active torsions:
REMARK  status: ('A' for Active; 'I' for Inactive)
REMARK    1  A    between atoms: C_4  and  C_5 
REMARK    2  A    between atoms: C_9  and  N_10 
REMARK       I    between atoms: N_10  and  C_11 
REMARK    3  A    between atoms: C_11  and  C_12 
ROOT
HETATM    1  C   UNL     1      42.490 -17.390   2.420  1.00  0.00     0.090 A 
HETATM    2  N   UNL     1      41.316 -16.967   2.922  1.00  0.00    -0.173 NA
HETATM    3  N   UNL     1      41.035 -15.851   2.235  1.00  0.00    -0.262 N 
HETATM    4  H   UNL     1      40.180 -15.337   2.440  1.00  0.00     0.191 HD
HETATM    5  C   UNL     1      41.973 -15.534   1.292  1.00  0.00     0.126 A 
HETATM    6  C   UNL     1      42.934 -16.510   1.390  1.00  0.00     0.084 A 
ENDROOT
BRANCH   5   7
HETATM    7  N   UNL     1      41.896 -14.446   0.450  1.00  0.00    -0.306 N 
HETATM    8  C   UNL     1      42.186 -13.160   0.875  1.00  0.00     0.281 C 
HETATM    9  O   UNL     1      42.536 -12.847   2.003  1.00  0.00    -0.265 OA
HETATM   10  H   UNL     1      41.585 -14.560  -0.511  1.00  0.00     0.170 HD
BRANCH   8  11
HETATM   11  C   UNL     1      42.002 -12.119  -0.228  1.00  0.00     0.193 A 
HETATM   12  N   UNL     1      42.948 -11.215  -0.330  1.00  0.00    -0.241 NA
HETATM   13  C   UNL     1      42.842 -10.260  -1.321  1.00  0.00     0.054 A 
HETATM   14  C   UNL     1      43.979  -9.271  -1.354  1.00  0.00     0.072 C 
HETATM   15  C   UNL     1      41.816 -10.202  -2.199  1.00  0.00     0.033 A 
HETATM   16  C   UNL     1      41.657  -9.190  -3.298  1.00  0.00     0.070 C 
HETATM   17  N   UNL     1      40.809 -11.131  -2.108  1.00  0.00    -0.324 N 
HETATM   18  C   UNL     1      40.793 -12.121  -1.157  1.00  0.00     0.280 A 
HETATM   19  H   UNL     1      40.020 -11.111  -2.744  1.00  0.00     0.169 HD
HETATM   20  O   UNL     1      39.882 -12.927  -1.060  1.00  0.00    -0.265 OA
ENDBRANCH   8  11
ENDBRANCH   5   7
BRANCH   1  21
HETATM   21  C   UNL     1      43.143 -18.608   2.918  1.00  0.00    -0.005 A 
HETATM   22  C   UNL     1      43.437 -19.661   2.038  1.00  0.00     0.020 A 
HETATM   23  C   UNL     1      44.068 -20.828   2.487  1.00  0.00    -0.061 A 
HETATM   24  C   UNL     1      44.380 -21.949   1.539  1.00  0.00     0.048 C 
HETATM   25  C   UNL     1      44.401 -20.944   3.842  1.00  0.00     0.013 A 
HETATM   26  C   UNL     1      44.112 -19.911   4.741  1.00  0.00    -0.061 A 
HETATM   27  C   UNL     1      43.484 -18.747   4.271  1.00  0.00     0.020 A 
HETATM   28  C   UNL     1      44.467 -20.065   6.192  1.00  0.00     0.048 C 
ENDBRANCH   1  21
TORSDOF 3
ENDMDL
MODEL 8
REMARK VINA RESULT:      -8.4      1.788      2.926
REMARK  3 active torsions:
REMARK  status: ('A' for Active; 'I' for Inactive)
REMARK    1  A    between atoms: C_4  and  C_5 
REMARK    2  A    between atoms: C_9  and  N_10 
REMARK       I    between atoms: N_10  and  C_11 
REMARK    3  A    between atoms: C_11  and  C_12 
ROOT
HETATM    1  C   UNL     1      42.556 -17.483   1.623  1.00  0.00     0.090 A 
HETATM    2  N   UNL     1      42.992 -17.113   0.405  1.00  0.00    -0.173 NA
HETATM    3  N   UNL     1      42.120 -16.177   0.002  1.00  0.00    -0.262 N 
HETATM    4  H   UNL     1      42.240 -15.738  -0.909  1.00  0.00     0.191 HD
HETATM    5  C   UNL     1      41.138 -15.909   0.916  1.00  0.00     0.126 A 
HETATM    6  C   UNL     1      41.388 -16.744   1.977  1.00  0.00     0.084 A 
ENDROOT
BRANCH   5   7
HETATM    7  N   UNL     1      40.141 -14.975   0.737  1.00  0.00    -0.306 N 
HETATM    8  C   UNL     1      39.940 -14.331  -0.472  1.00  0.00     0.281 C 
HETATM    9  O   UNL     1      40.592 -14.509  -1.489  1.00  0.00    -0.265 OA
HETATM   10  H   UNL     1      39.541 -14.707   1.513  1.00  0.00     0.170 HD
BRANCH   8  11
HETATM   11  C   UNL     1      38.795 -13.320  -0.418  1.00  0.00     0.193 A 
HETATM   12  N   UNL     1      38.946 -12.240  -1.150  1.00  0.00    -0.241 NA
HETATM   13  C   UNL     1      37.934 -11.300  -1.152  1.00  0.00     0.054 A 
HETATM   14  C   UNL     1      38.204 -10.102  -2.024  1.00  0.00     0.072 C 
HETATM   15  C   UNL     1      36.790 -11.429  -0.442  1.00  0.00     0.033 A 
HETATM   16  C   UNL     1      35.658 -10.442  -0.416  1.00  0.00     0.070 C 
HETATM   17  N   UNL     1      36.613 -12.545   0.337  1.00  0.00    -0.324 N 
HETATM   18  C   UNL     1      37.551 -13.543   0.435  1.00  0.00     0.280 A 
HETATM   19  H   UNL     1      35.772 -12.668   0.889  1.00  0.00     0.169 HD
HETATM   20  O   UNL     1      37.403 -14.518   1.152  1.00  0.00    -0.265 OA
ENDBRANCH   8  11
ENDBRANCH   5   7
BRANCH   1  21
HETATM   21  C   UNL     1      43.256 -18.505   2.410  1.00  0.00    -0.005 A 
HETATM   22  C   UNL     1      43.679 -18.221   3.719  1.00  0.00     0.020 A 
HETATM   23  C   UNL     1      44.340 -19.183   4.493  1.00  0.00    -0.061 A 
HETATM   24  C   UNL     1      44.787 -18.872   5.891  1.00  0.00     0.048 C 
HETATM   25  C   UNL     1      44.590 -20.446   3.943  1.00  0.00     0.013 A 
HETATM   26  C   UNL     1      44.185 -20.752   2.638  1.00  0.00    -0.061 A 
HETATM   27  C   UNL     1      43.519 -19.776   1.880  1.00  0.00     0.020 A 
HETATM   28  C   UNL     1      44.477 -22.109   2.067  1.00  0.00     0.048 C 
ENDBRANCH   1  21
TORSDOF 3
ENDMDL
MODEL 9
REMARK VINA RESULT:      -8.0      2.705      9.417
REMARK  3 active torsions:
REMARK  status: ('A' for Active; 'I' for Inactive)
REMARK    1  A    between atoms: C_4  and  C_5 
REMARK    2  A    between atoms: C_9  and  N_10 
REMARK       I    between atoms: N_10  and  C_11 
REMARK    3  A    between atoms: C_11  and  C_12 
ROOT
HETATM    1  C   UNL     1      40.339 -14.883   0.086  1.00  0.00     0.090 A 
HETATM    2  N   UNL     1      41.299 -15.157  -0.816  1.00  0.00    -0.173 NA
HETATM    3  N   UNL     1      42.031 -16.128  -0.249  1.00  0.00    -0.262 N 
HETATM    4  H   UNL     1      42.833 -16.508  -0.747  1.00  0.00     0.191 HD
HETATM    5  C   UNL     1      41.578 -16.510   0.984  1.00  0.00     0.126 A 
HETATM    6  C   UNL     1      40.484 -15.718   1.233  1.00  0.00     0.084 A 
ENDROOT
BRANCH   5   7
HETATM    7  N   UNL     1      42.151 -17.499   1.752  1.00  0.00    -0.306 N 
HETATM    8  C   UNL     1      43.513 -17.550   1.995  1.00  0.00     0.281 C 
HETATM    9  O   UNL     1      44.340 -16.754   1.578  1.00  0.00    -0.265 OA
HETATM   10  H   UNL     1      41.581 -18.248   2.137  1.00  0.00     0.170 HD
BRANCH   8  11
HETATM   11  C   UNL     1      43.915 -18.753   2.850  1.00  0.00     0.193 A 
HETATM   12  N   UNL     1      44.039 -19.894   2.213  1.00  0.00    -0.241 NA
HETATM   13  C   UNL     1      44.417 -21.011   2.933  1.00  0.00     0.054 A 
HETATM   14  C   UNL     1      44.532 -22.268   2.111  1.00  0.00     0.072 C 
HETATM   15  C   UNL     1      44.671 -20.995   4.261  1.00  0.00     0.033 A 
HETATM   16  C   UNL     1      45.091 -22.177   5.087  1.00  0.00     0.070 C 
HETATM   17  N   UNL     1      44.540 -19.815   4.950  1.00  0.00    -0.324 N 
HETATM   18  C   UNL     1      44.156 -18.641   4.351  1.00  0.00     0.280 A 
HETATM   19  H   UNL     1      44.712 -19.771   5.947  1.00  0.00     0.169 HD
HETATM   20  O   UNL     1      44.012 -17.601   4.971  1.00  0.00    -0.265 OA
ENDBRANCH   8  11
ENDBRANCH   5   7
BRANCH   1  21
HETATM   21  C   UNL     1      39.318 -13.859  -0.169  1.00  0.00    -0.005 A 
HETATM   22  C   UNL     1      38.780 -13.703  -1.456  1.00  0.00     0.020 A 
HETATM   23  C   UNL     1      37.798 -12.741  -1.721  1.00  0.00    -0.061 A 
HETATM   24  C   UNL     1      37.228 -12.582  -3.099  1.00  0.00     0.048 C 
HETATM   25  C   UNL     1      37.355 -11.916  -0.681  1.00  0.00     0.013 A 
HETATM   26  C   UNL     1      37.881 -12.046   0.611  1.00  0.00    -0.061 A 
HETATM   27  C   UNL     1      38.860 -13.020   0.858  1.00  0.00     0.020 A 
HETATM   28  C   UNL     1      37.399 -11.140   1.706  1.00  0.00     0.048 C 
ENDBRANCH   1  21
TORSDOF 3
ENDMDL
MODEL 10
REMARK VINA RESULT:      -7.9      2.840      9.470
REMARK  3 active torsions:
REMARK  status: ('A' for Active; 'I' for Inactive)
REMARK    1  A    between atoms: C_4  and  C_5 
REMARK    2  A    between atoms: C_9  and  N_10 
REMARK       I    between atoms: N_10  and  C_11 
REMARK    3  A    between atoms: C_11  and  C_12 
ROOT
HETATM    1  C   UNL     1      40.886 -14.954  -0.093  1.00  0.00     0.090 A 
HETATM    2  N   UNL     1      40.482 -14.543   1.123  1.00  0.00    -0.173 NA
HETATM    3  N   UNL     1      40.946 -15.476   1.968  1.00  0.00    -0.262 N 
HETATM    4  H   UNL     1      40.762 -15.385   2.965  1.00  0.00     0.191 HD
HETATM    5  C   UNL     1      41.651 -16.474   1.354  1.00  0.00     0.126 A 
HETATM    6  C   UNL     1      41.626 -16.168   0.015  1.00  0.00     0.084 A 
ENDROOT
BRANCH   5   7
HETATM    7  N   UNL     1      42.239 -17.531   2.012  1.00  0.00    -0.306 N 
HETATM    8  C   UNL     1      43.182 -17.348   3.010  1.00  0.00     0.281 C 
HETATM    9  O   UNL     1      43.587 -16.270   3.416  1.00  0.00    -0.265 OA
HETATM   10  H   UNL     1      42.017 -18.489   1.751  1.00  0.00     0.170 HD
BRANCH   8  11
HETATM   11  C   UNL     1      43.711 -18.669   3.570  1.00  0.00     0.193 A 
HETATM   12  N   UNL     1      43.867 -19.640   2.702  1.00  0.00    -0.241 NA
HETATM   13  C   UNL     1      44.359 -20.851   3.151  1.00  0.00     0.054 A 
HETATM   14  C   UNL     1      44.503 -21.897   2.076  1.00  0.00     0.072 C 
HETATM   15  C   UNL     1      44.692 -21.093   4.438  1.00  0.00     0.033 A 
HETATM   16  C   UNL     1      45.237 -22.386   4.975  1.00  0.00     0.070 C 
HETATM   17  N   UNL     1      44.529 -20.095   5.367  1.00  0.00    -0.324 N 
HETATM   18  C   UNL     1      44.036 -18.854   5.048  1.00  0.00     0.280 A 
HETATM   19  H   UNL     1      44.759 -20.246   6.342  1.00  0.00     0.169 HD
HETATM   20  O   UNL     1      43.864 -17.980   5.881  1.00  0.00    -0.265 OA
ENDBRANCH   8  11
ENDBRANCH   5   7
BRANCH   1  21
HETATM   21  C   UNL     1      40.573 -14.186  -1.304  1.00  0.00    -0.005 A 
HETATM   22  C   UNL     1      39.275 -14.211  -1.840  1.00  0.00     0.020 A 
HETATM   23  C   UNL     1      38.950 -13.478  -2.989  1.00  0.00    -0.061 A 
HETATM   24  C   UNL     1      37.561 -13.509  -3.554  1.00  0.00     0.048 C 
HETATM   25  C   UNL     1      39.944 -12.718  -3.615  1.00  0.00     0.013 A 
HETATM   26  C   UNL     1      41.247 -12.682  -3.105  1.00  0.00    -0.061 A 
HETATM   27  C   UNL     1      41.553 -13.418  -1.951  1.00  0.00     0.020 A 
HETATM   28  C   UNL     1      42.298 -11.868  -3.804  1.00  0.00     0.048 C 
ENDBRANCH   1  21
TORSDOF 3
ENDMDL
