MODEL 1
REMARK VINA RESULT:      -8.4      0.000      0.000
REMARK  2 active torsions:
REMARK  status: ('A' for Active; 'I' for Inactive)
REMARK    1  A    between atoms: N_10  and  S_11 
REMARK    2  A    between atoms: S_11  and  C_14 
ROOT
HETATM    1  S   UNL     1      43.134 -17.217   2.858  1.00  0.00     0.245 S 
HETATM    2  O   UNL     1      41.850 -17.750   2.450  1.00  0.00    -0.206 OA
HETATM    3  O   UNL     1      44.036 -16.686   1.863  1.00  0.00    -0.206 OA
ENDROOT
BRANCH   1   4
HETATM    4  N   UNL     1      42.779 -15.918   3.977  1.00  0.00    -0.201 NA
HETATM    5  C   UNL     1      41.412 -16.034   4.669  1.00  0.00     0.096 C 
HETATM    6  C   UNL     1      40.901 -17.460   4.893  1.00  0.00     0.029 C 
HETATM    7  C   UNL     1      41.518 -15.382   6.070  1.00  0.00     0.252 C 
HETATM    8  N   UNL     1      41.237 -13.904   6.075  1.00  0.00    -0.074 N 
HETATM    9  H   UNL     1      40.220 -13.767   6.168  1.00  0.00     0.277 HD
HETATM   10  H   UNL     1      41.629 -13.530   6.951  1.00  0.00     0.277 HD
HETATM   11  C   UNL     1      41.710 -13.054   4.949  1.00  0.00     0.233 C 
HETATM   12  C   UNL     1      43.075 -13.467   4.441  1.00  0.00     0.043 C 
HETATM   13  C   UNL     1      42.987 -14.562   3.381  1.00  0.00     0.109 C 
ENDBRANCH   1   4
BRANCH   1  14
HETATM   14  C   UNL     1      43.927 -18.509   3.816  1.00  0.00     0.088 A 
HETATM   15  C   UNL     1      44.219 -18.159   5.150  1.00  0.00     0.026 A 
HETATM   16  C   UNL     1      44.653 -19.117   6.057  1.00  0.00     0.002 A 
HETATM   17  C   UNL     1      44.778 -20.438   5.650  1.00  0.00     0.014 A 
HETATM   18  C   UNL     1      44.503 -20.813   4.325  1.00  0.00    -0.004 A 
HETATM   19  C   UNL     1      44.644 -22.153   3.944  1.00  0.00     0.128 A 
HETATM   20  C   UNL     1      44.090 -19.858   3.359  1.00  0.00     0.038 A 
HETATM   21  N   UNL     1      44.442 -22.626   2.697  1.00  0.00    -0.269 NA
HETATM   22  C   UNL     1      44.087 -21.716   1.773  1.00  0.00     0.159 A 
HETATM   23  C   UNL     1      43.920 -20.366   2.046  1.00  0.00     0.146 A 
HETATM   24  F   UNL     1      43.715 -19.558   0.999  1.00  0.00    -0.204 F 
ENDBRANCH   1  14
TORSDOF 2
ENDMDL
MODEL 2
REMARK VINA RESULT:      -7.7      1.192      1.222
REMARK  2 active torsions:
REMARK  status: ('A' for Active; 'I' for Inactive)
REMARK    1  A    between atoms: N_10  and  S_11 
REMARK    2  A    between atoms: S_11  and  C_14 
ROOT
HETATM    1  S   UNL     1      43.091 -17.458   2.322  1.00  0.00     0.245 S 
HETATM    2  O   UNL     1      41.889 -18.155   1.908  1.00  0.00    -0.206 OA
HETATM    3  O   UNL     1      44.062 -17.060   1.331  1.00  0.00    -0.206 OA
ENDROOT
BRANCH   1   4
HETATM    4  N   UNL     1      42.546 -16.001   3.125  1.00  0.00    -0.201 NA
HETATM    5  C   UNL     1      41.190 -15.473   2.628  1.00  0.00     0.096 C 
HETATM    6  C   UNL     1      40.210 -16.535   2.122  1.00  0.00     0.029 C 
HETATM    7  C   UNL     1      40.487 -14.754   3.806  1.00  0.00     0.252 C 
HETATM    8  N   UNL     1      40.848 -13.299   3.932  1.00  0.00    -0.074 N 
HETATM    9  H   UNL     1      40.222 -12.754   3.320  1.00  0.00     0.277 HD
HETATM   10  H   UNL     1      40.591 -13.010   4.887  1.00  0.00     0.277 HD
HETATM   11  C   UNL     1      42.243 -12.854   3.667  1.00  0.00     0.233 C 
HETATM   12  C   UNL     1      43.275 -13.838   4.175  1.00  0.00     0.043 C 
HETATM   13  C   UNL     1      43.586 -14.926   3.150  1.00  0.00     0.109 C 
ENDBRANCH   1   4
BRANCH   1  14
HETATM   14  C   UNL     1      43.847 -18.480   3.586  1.00  0.00     0.088 A 
HETATM   15  C   UNL     1      44.000 -17.852   4.839  1.00  0.00     0.026 A 
HETATM   16  C   UNL     1      44.389 -18.580   5.956  1.00  0.00     0.002 A 
HETATM   17  C   UNL     1      44.609 -19.946   5.840  1.00  0.00     0.014 A 
HETATM   18  C   UNL     1      44.475 -20.596   4.603  1.00  0.00    -0.004 A 
HETATM   19  C   UNL     1      44.708 -21.973   4.517  1.00  0.00     0.128 A 
HETATM   20  C   UNL     1      44.111 -19.881   3.431  1.00  0.00     0.038 A 
HETATM   21  N   UNL     1      44.643 -22.698   3.382  1.00  0.00    -0.269 NA
HETATM   22  C   UNL     1      44.336 -22.016   2.265  1.00  0.00     0.159 A 
HETATM   23  C   UNL     1      44.085 -20.652   2.240  1.00  0.00     0.146 A 
HETATM   24  F   UNL     1      43.943 -20.084   1.037  1.00  0.00    -0.204 F 
ENDBRANCH   1  14
TORSDOF 2
ENDMDL
MODEL 3
REMARK VINA RESULT:      -7.6      2.553      3.641
REMARK  2 active torsions:
REMARK  status: ('A' for Active; 'I' for Inactive)
REMARK    1  A    between atoms: N_10  and  S_11 
REMARK    2  A    between atoms: S_11  and  C_14 
ROOT
HETATM    1  S   UNL     1      42.006 -16.060   4.878  1.00  0.00     0.245 S 
HETATM    2  O   UNL     1      43.173 -15.608   5.608  1.00  0.00    -0.206 OA
HETATM    3  O   UNL     1      40.843 -16.514   5.602  1.00  0.00    -0.206 OA
ENDROOT
BRANCH   1   4
HETATM    4  N   UNL     1      41.502 -14.702   3.894  1.00  0.00    -0.201 NA
HETATM    5  C   UNL     1      42.561 -13.598   3.748  1.00  0.00     0.096 C 
HETATM    6  C   UNL     1      44.018 -14.065   3.801  1.00  0.00     0.029 C 
HETATM    7  C   UNL     1      42.368 -12.917   2.370  1.00  0.00     0.252 C 
HETATM    8  N   UNL     1      41.387 -11.778   2.387  1.00  0.00    -0.074 N 
HETATM    9  H   UNL     1      41.888 -10.920   2.660  1.00  0.00     0.277 HD
HETATM   10  H   UNL     1      41.105 -11.613   1.410  1.00  0.00     0.277 HD
HETATM   11  C   UNL     1      40.157 -11.869   3.219  1.00  0.00     0.233 C 
HETATM   12  C   UNL     1      39.558 -13.260   3.223  1.00  0.00     0.043 C 
HETATM   13  C   UNL     1      40.174 -14.149   4.301  1.00  0.00     0.109 C 
ENDBRANCH   1   4
BRANCH   1  14
HETATM   14  C   UNL     1      42.587 -17.320   3.742  1.00  0.00     0.088 A 
HETATM   15  C   UNL     1      42.421 -17.007   2.378  1.00  0.00     0.026 A 
HETATM   16  C   UNL     1      42.997 -17.798   1.393  1.00  0.00     0.002 A 
HETATM   17  C   UNL     1      43.762 -18.897   1.758  1.00  0.00     0.014 A 
HETATM   18  C   UNL     1      43.936 -19.239   3.108  1.00  0.00    -0.004 A 
HETATM   19  C   UNL     1      44.710 -20.356   3.444  1.00  0.00     0.128 A 
HETATM   20  C   UNL     1      43.336 -18.475   4.144  1.00  0.00     0.038 A 
HETATM   21  N   UNL     1      44.919 -20.800   4.700  1.00  0.00    -0.269 NA
HETATM   22  C   UNL     1      44.321 -20.100   5.680  1.00  0.00     0.159 A 
HETATM   23  C   UNL     1      43.536 -18.979   5.455  1.00  0.00     0.146 A 
HETATM   24  F   UNL     1      42.882 -18.477   6.509  1.00  0.00    -0.204 F 
ENDBRANCH   1  14
TORSDOF 2
ENDMDL
MODEL 4
REMARK VINA RESULT:      -7.1      2.291      3.249
REMARK  2 active torsions:
REMARK  status: ('A' for Active; 'I' for Inactive)
REMARK    1  A    between atoms: N_10  and  S_11 
REMARK    2  A    between atoms: S_11  and  C_14 
ROOT
HETATM    1  S   UNL     1      41.675 -17.266   1.915  1.00  0.00     0.245 S 
HETATM    2  O   UNL     1      40.315 -17.752   2.034  1.00  0.00    -0.206 OA
HETATM    3  O   UNL     1      42.223 -16.989   0.608  1.00  0.00    -0.206 OA
ENDROOT
BRANCH   1   4
HETATM    4  N   UNL     1      41.730 -15.772   2.824  1.00  0.00    -0.201 NA
HETATM    5  C   UNL     1      40.641 -14.756   2.441  1.00  0.00     0.096 C 
HETATM    6  C   UNL     1      39.323 -15.354   1.942  1.00  0.00     0.029 C 
HETATM    7  C   UNL     1      40.295 -13.917   3.696  1.00  0.00     0.252 C 
HETATM    8  N   UNL     1      41.165 -12.704   3.875  1.00  0.00    -0.074 N 
HETATM    9  H   UNL     1      40.758 -11.928   3.332  1.00  0.00     0.277 HD
HETATM   10  H   UNL     1      41.068 -12.410   4.857  1.00  0.00     0.277 HD
HETATM   11  C   UNL     1      42.615 -12.774   3.548  1.00  0.00     0.233 C 
HETATM   12  C   UNL     1      43.236 -14.098   3.939  1.00  0.00     0.043 C 
HETATM   13  C   UNL     1      43.090 -15.150   2.841  1.00  0.00     0.109 C 
ENDBRANCH   1   4
BRANCH   1  14
HETATM   14  C   UNL     1      42.700 -18.438   2.804  1.00  0.00     0.088 A 
HETATM   15  C   UNL     1      43.517 -19.246   1.987  1.00  0.00     0.026 A 
HETATM   16  C   UNL     1      44.498 -20.057   2.544  1.00  0.00     0.002 A 
HETATM   17  C   UNL     1      44.689 -20.054   3.919  1.00  0.00     0.014 A 
HETATM   18  C   UNL     1      43.883 -19.268   4.758  1.00  0.00    -0.004 A 
HETATM   19  C   UNL     1      44.097 -19.291   6.141  1.00  0.00     0.128 A 
HETATM   20  C   UNL     1      42.848 -18.451   4.230  1.00  0.00     0.038 A 
HETATM   21  N   UNL     1      43.368 -18.607   7.046  1.00  0.00    -0.269 NA
HETATM   22  C   UNL     1      42.364 -17.862   6.552  1.00  0.00     0.159 A 
HETATM   23  C   UNL     1      42.068 -17.769   5.199  1.00  0.00     0.146 A 
HETATM   24  F   UNL     1      40.949 -17.115   4.869  1.00  0.00    -0.204 F 
ENDBRANCH   1  14
TORSDOF 2
ENDMDL
MODEL 5
REMARK VINA RESULT:      -7.1      4.326      6.084
REMARK  2 active torsions:
REMARK  status: ('A' for Active; 'I' for Inactive)
REMARK    1  A    between atoms: N_10  and  S_11 
REMARK    2  A    between atoms: S_11  and  C_14 
ROOT
HETATM    1  S   UNL     1      41.713 -14.269   1.283  1.00  0.00     0.245 S 
HETATM    2  O   UNL     1      42.639 -13.245   1.726  1.00  0.00    -0.206 OA
HETATM    3  O   UNL     1      40.317 -14.171   1.637  1.00  0.00    -0.206 OA
ENDROOT
BRANCH   1   4
HETATM    4  N   UNL     1      41.803 -14.271  -0.465  1.00  0.00    -0.201 NA
HETATM    5  C   UNL     1      41.790 -12.872  -1.102  1.00  0.00     0.096 C 
HETATM    6  C   UNL     1      42.410 -11.754  -0.260  1.00  0.00     0.029 C 
HETATM    7  C   UNL     1      42.601 -12.929  -2.420  1.00  0.00     0.252 C 
HETATM    8  N   UNL     1      41.786 -13.328  -3.619  1.00  0.00    -0.074 N 
HETATM    9  H   UNL     1      41.348 -12.481  -4.011  1.00  0.00     0.277 HD
HETATM   10  H   UNL     1      42.452 -13.632  -4.344  1.00  0.00     0.277 HD
HETATM   11  C   UNL     1      40.730 -14.367  -3.487  1.00  0.00     0.233 C 
HETATM   12  C   UNL     1      41.132 -15.491  -2.556  1.00  0.00     0.043 C 
HETATM   13  C   UNL     1      40.798 -15.179  -1.099  1.00  0.00     0.109 C 
ENDBRANCH   1   4
BRANCH   1  14
HETATM   14  C   UNL     1      42.404 -15.832   1.827  1.00  0.00     0.088 A 
HETATM   15  C   UNL     1      42.833 -16.681   0.787  1.00  0.00     0.026 A 
HETATM   16  C   UNL     1      43.560 -17.831   1.064  1.00  0.00     0.002 A 
HETATM   17  C   UNL     1      43.886 -18.135   2.379  1.00  0.00     0.014 A 
HETATM   18  C   UNL     1      43.464 -17.313   3.435  1.00  0.00    -0.004 A 
HETATM   19  C   UNL     1      43.804 -17.650   4.750  1.00  0.00     0.128 A 
HETATM   20  C   UNL     1      42.690 -16.146   3.196  1.00  0.00     0.038 A 
HETATM   21  N   UNL     1      43.428 -16.958   5.846  1.00  0.00    -0.269 NA
HETATM   22  C   UNL     1      42.664 -15.874   5.624  1.00  0.00     0.159 A 
HETATM   23  C   UNL     1      42.272 -15.454   4.361  1.00  0.00     0.146 A 
HETATM   24  F   UNL     1      41.389 -14.451   4.306  1.00  0.00    -0.204 F 
ENDBRANCH   1  14
TORSDOF 2
ENDMDL
MODEL 6
REMARK VINA RESULT:      -6.9      2.788      4.029
REMARK  2 active torsions:
REMARK  status: ('A' for Active; 'I' for Inactive)
REMARK    1  A    between atoms: N_10  and  S_11 
REMARK    2  A    between atoms: S_11  and  C_14 
ROOT
HETATM    1  S   UNL     1      43.490 -16.122   2.883  1.00  0.00     0.245 S 
HETATM    2  O   UNL     1      43.844 -16.544   1.543  1.00  0.00    -0.206 OA
HETATM    3  O   UNL     1      44.162 -14.990   3.476  1.00  0.00    -0.206 OA
ENDROOT
BRANCH   1   4
HETATM    4  N   UNL     1      41.783 -15.736   2.827  1.00  0.00    -0.201 NA
HETATM    5  C   UNL     1      41.022 -16.396   1.666  1.00  0.00     0.096 C 
HETATM    6  C   UNL     1      41.562 -17.753   1.205  1.00  0.00     0.029 C 
HETATM    7  C   UNL     1      39.560 -16.637   2.118  1.00  0.00     0.252 C 
HETATM    8  N   UNL     1      38.646 -15.469   1.866  1.00  0.00    -0.074 N 
HETATM    9  H   UNL     1      38.284 -15.540   0.904  1.00  0.00     0.277 HD
HETATM   10  H   UNL     1      37.818 -15.605   2.463  1.00  0.00     0.277 HD
HETATM   11  C   UNL     1      39.143 -14.081   2.064  1.00  0.00     0.233 C 
HETATM   12  C   UNL     1      40.064 -13.956   3.259  1.00  0.00     0.043 C 
HETATM   13  C   UNL     1      41.516 -14.266   2.903  1.00  0.00     0.109 C 
ENDBRANCH   1   4
BRANCH   1  14
HETATM   14  C   UNL     1      43.646 -17.576   3.920  1.00  0.00     0.088 A 
HETATM   15  C   UNL     1      44.038 -18.747   3.240  1.00  0.00     0.026 A 
HETATM   16  C   UNL     1      44.384 -19.894   3.941  1.00  0.00     0.002 A 
HETATM   17  C   UNL     1      44.365 -19.880   5.329  1.00  0.00     0.014 A 
HETATM   18  C   UNL     1      43.969 -18.731   6.033  1.00  0.00    -0.004 A 
HETATM   19  C   UNL     1      43.954 -18.750   7.433  1.00  0.00     0.128 A 
HETATM   20  C   UNL     1      43.575 -17.549   5.352  1.00  0.00     0.038 A 
HETATM   21  N   UNL     1      43.562 -17.723   8.214  1.00  0.00    -0.269 NA
HETATM   22  C   UNL     1      43.154 -16.616   7.571  1.00  0.00     0.159 A 
HETATM   23  C   UNL     1      43.130 -16.494   6.188  1.00  0.00     0.146 A 
HETATM   24  F   UNL     1      42.556 -15.393   5.689  1.00  0.00    -0.204 F 
ENDBRANCH   1  14
TORSDOF 2
ENDMDL
MODEL 7
REMARK VINA RESULT:      -6.9      2.690      5.680
REMARK  2 active torsions:
REMARK  status: ('A' for Active; 'I' for Inactive)
REMARK    1  A    between atoms: N_10  and  S_11 
REMARK    2  A    between atoms: S_11  and  C_14 
ROOT
HETATM    1  S   UNL     1      43.075 -16.697   6.324  1.00  0.00     0.245 S 
HETATM    2  O   UNL     1      41.778 -16.852   6.951  1.00  0.00    -0.206 OA
HETATM    3  O   UNL     1      44.203 -16.266   7.114  1.00  0.00    -0.206 OA
ENDROOT
BRANCH   1   4
HETATM    4  N   UNL     1      43.478 -18.267   5.664  1.00  0.00    -0.201 NA
HETATM    5  C   UNL     1      44.228 -19.190   6.637  1.00  0.00     0.096 C 
HETATM    6  C   UNL     1      43.903 -18.994   8.120  1.00  0.00     0.029 C 
HETATM    7  C   UNL     1      43.859 -20.656   6.298  1.00  0.00     0.252 C 
HETATM    8  N   UNL     1      44.742 -21.278   5.251  1.00  0.00    -0.074 N 
HETATM    9  H   UNL     1      45.573 -21.671   5.718  1.00  0.00     0.277 HD
HETATM   10  H   UNL     1      44.238 -22.100   4.887  1.00  0.00     0.277 HD
HETATM   11  C   UNL     1      45.210 -20.466   4.096  1.00  0.00     0.233 C 
HETATM   12  C   UNL     1      44.150 -19.512   3.587  1.00  0.00     0.043 C 
HETATM   13  C   UNL     1      44.164 -18.182   4.338  1.00  0.00     0.109 C 
ENDBRANCH   1   4
BRANCH   1  14
HETATM   14  C   UNL     1      42.821 -15.608   4.922  1.00  0.00     0.088 A 
HETATM   15  C   UNL     1      43.616 -14.443   4.928  1.00  0.00     0.026 A 
HETATM   16  C   UNL     1      43.665 -13.612   3.817  1.00  0.00     0.002 A 
HETATM   17  C   UNL     1      42.940 -13.943   2.681  1.00  0.00     0.014 A 
HETATM   18  C   UNL     1      42.133 -15.091   2.650  1.00  0.00    -0.004 A 
HETATM   19  C   UNL     1      41.410 -15.396   1.491  1.00  0.00     0.128 A 
HETATM   20  C   UNL     1      42.029 -15.949   3.777  1.00  0.00     0.038 A 
HETATM   21  N   UNL     1      40.578 -16.448   1.354  1.00  0.00    -0.269 NA
HETATM   22  C   UNL     1      40.449 -17.241   2.433  1.00  0.00     0.159 A 
HETATM   23  C   UNL     1      41.121 -17.028   3.628  1.00  0.00     0.146 A 
HETATM   24  F   UNL     1      40.778 -17.807   4.661  1.00  0.00    -0.204 F 
ENDBRANCH   1  14
TORSDOF 2
ENDMDL
MODEL 8
REMARK VINA RESULT:      -6.7      1.784      2.434
REMARK  2 active torsions:
REMARK  status: ('A' for Active; 'I' for Inactive)
REMARK    1  A    between atoms: N_10  and  S_11 
REMARK    2  A    between atoms: S_11  and  C_14 
ROOT
HETATM    1  S   UNL     1      42.426 -15.969   3.741  1.00  0.00     0.245 S 
HETATM    2  O   UNL     1      41.340 -16.704   3.123  1.00  0.00    -0.206 OA
HETATM    3  O   UNL     1      43.528 -15.509   2.931  1.00  0.00    -0.206 OA
ENDROOT
BRANCH   1   4
HETATM    4  N   UNL     1      41.694 -14.555   4.467  1.00  0.00    -0.201 NA
HETATM    5  C   UNL     1      40.639 -13.865   3.587  1.00  0.00     0.096 C 
HETATM    6  C   UNL     1      39.864 -14.783   2.638  1.00  0.00     0.029 C 
HETATM    7  C   UNL     1      39.589 -13.204   4.514  1.00  0.00     0.252 C 
HETATM    8  N   UNL     1      39.946 -11.805   4.936  1.00  0.00    -0.074 N 
HETATM    9  H   UNL     1      39.612 -11.151   4.213  1.00  0.00     0.277 HD
HETATM   10  H   UNL     1      39.371 -11.588   5.764  1.00  0.00     0.277 HD
HETATM   11  C   UNL     1      41.360 -11.460   5.245  1.00  0.00     0.233 C 
HETATM   12  C   UNL     1      42.088 -12.576   5.964  1.00  0.00     0.043 C 
HETATM   13  C   UNL     1      42.701 -13.582   4.993  1.00  0.00     0.109 C 
ENDBRANCH   1   4
BRANCH   1  14
HETATM   14  C   UNL     1      43.009 -16.989   5.096  1.00  0.00     0.088 A 
HETATM   15  C   UNL     1      42.680 -16.509   6.380  1.00  0.00     0.026 A 
HETATM   16  C   UNL     1      42.896 -17.291   7.507  1.00  0.00     0.002 A 
HETATM   17  C   UNL     1      43.422 -18.568   7.364  1.00  0.00     0.014 A 
HETATM   18  C   UNL     1      43.768 -19.068   6.099  1.00  0.00    -0.004 A 
HETATM   19  C   UNL     1      44.301 -20.357   5.989  1.00  0.00     0.128 A 
HETATM   20  C   UNL     1      43.594 -18.287   4.926  1.00  0.00     0.038 A 
HETATM   21  N   UNL     1      44.701 -20.931   4.836  1.00  0.00    -0.269 NA
HETATM   22  C   UNL     1      44.571 -20.180   3.728  1.00  0.00     0.159 A 
HETATM   23  C   UNL     1      44.055 -18.892   3.728  1.00  0.00     0.146 A 
HETATM   24  F   UNL     1      44.128 -18.211   2.579  1.00  0.00    -0.204 F 
ENDBRANCH   1  14
TORSDOF 2
ENDMDL
MODEL 9
REMARK VINA RESULT:      -6.7      3.315      4.765
REMARK  2 active torsions:
REMARK  status: ('A' for Active; 'I' for Inactive)
REMARK    1  A    between atoms: N_10  and  S_11 
REMARK    2  A    between atoms: S_11  and  C_14 
ROOT
HETATM    1  S   UNL     1      41.741 -15.271   3.652  1.00  0.00     0.245 S 
HETATM    2  O   UNL     1      42.647 -14.308   4.246  1.00  0.00    -0.206 OA
HETATM    3  O   UNL     1      40.363 -15.315   4.082  1.00  0.00    -0.206 OA
ENDROOT
BRANCH   1   4
HETATM    4  N   UNL     1      41.734 -14.926   1.936  1.00  0.00    -0.201 NA
HETATM    5  C   UNL     1      41.270 -13.506   1.577  1.00  0.00     0.096 C 
HETATM    6  C   UNL     1      41.571 -12.426   2.619  1.00  0.00     0.029 C 
HETATM    7  C   UNL     1      41.991 -13.072   0.276  1.00  0.00     0.252 C 
HETATM    8  N   UNL     1      41.269 -13.474  -0.981  1.00  0.00    -0.074 N 
HETATM    9  H   UNL     1      40.578 -12.744  -1.207  1.00  0.00     0.277 HD
HETATM   10  H   UNL     1      41.956 -13.424  -1.748  1.00  0.00     0.277 HD
HETATM   11  C   UNL     1      40.581 -14.791  -1.054  1.00  0.00     0.233 C 
HETATM   12  C   UNL     1      41.349 -15.890  -0.352  1.00  0.00     0.043 C 
HETATM   13  C   UNL     1      41.015 -15.965   1.136  1.00  0.00     0.109 C 
ENDBRANCH   1   4
BRANCH   1  14
HETATM   14  C   UNL     1      42.523 -16.873   3.844  1.00  0.00     0.088 A 
HETATM   15  C   UNL     1      42.965 -17.461   2.642  1.00  0.00     0.026 A 
HETATM   16  C   UNL     1      43.756 -18.603   2.659  1.00  0.00     0.002 A 
HETATM   17  C   UNL     1      44.133 -19.157   3.875  1.00  0.00     0.014 A 
HETATM   18  C   UNL     1      43.699 -18.598   5.087  1.00  0.00    -0.004 A 
HETATM   19  C   UNL     1      44.092 -19.183   6.296  1.00  0.00     0.128 A 
HETATM   20  C   UNL     1      42.862 -17.451   5.112  1.00  0.00     0.038 A 
HETATM   21  N   UNL     1      43.712 -18.758   7.518  1.00  0.00    -0.269 NA
HETATM   22  C   UNL     1      42.890 -17.694   7.543  1.00  0.00     0.159 A 
HETATM   23  C   UNL     1      42.442 -17.041   6.403  1.00  0.00     0.146 A 
HETATM   24  F   UNL     1      41.509 -16.098   6.574  1.00  0.00    -0.204 F 
ENDBRANCH   1  14
TORSDOF 2
ENDMDL
MODEL 10
REMARK VINA RESULT:      -6.7      2.841      6.659
REMARK  2 active torsions:
REMARK  status: ('A' for Active; 'I' for Inactive)
REMARK    1  A    between atoms: N_10  and  S_11 
REMARK    2  A    between atoms: S_11  and  C_14 
ROOT
HETATM    1  S   UNL     1      42.647 -16.758   5.606  1.00  0.00     0.245 S 
HETATM    2  O   UNL     1      41.707 -16.917   6.697  1.00  0.00    -0.206 OA
HETATM    3  O   UNL     1      43.810 -15.920   5.781  1.00  0.00    -0.206 OA
ENDROOT
BRANCH   1   4
HETATM    4  N   UNL     1      43.224 -18.368   5.234  1.00  0.00    -0.201 NA
HETATM    5  C   UNL     1      44.030 -19.029   6.363  1.00  0.00     0.096 C 
HETATM    6  C   UNL     1      43.642 -18.616   7.785  1.00  0.00     0.029 C 
HETATM    7  C   UNL     1      43.819 -20.561   6.279  1.00  0.00     0.252 C 
HETATM    8  N   UNL     1      44.791 -21.260   5.369  1.00  0.00    -0.074 N 
HETATM    9  H   UNL     1      45.642 -21.479   5.907  1.00  0.00     0.277 HD
HETATM   10  H   UNL     1      44.383 -22.179   5.146  1.00  0.00     0.277 HD
HETATM   11  C   UNL     1      45.213 -20.614   4.096  1.00  0.00     0.233 C 
HETATM   12  C   UNL     1      44.081 -19.875   3.415  1.00  0.00     0.043 C 
HETATM   13  C   UNL     1      43.940 -18.442   3.923  1.00  0.00     0.109 C 
ENDBRANCH   1   4
BRANCH   1  14
HETATM   14  C   UNL     1      41.682 -16.226   4.191  1.00  0.00     0.088 A 
HETATM   15  C   UNL     1      41.487 -17.214   3.205  1.00  0.00     0.026 A 
HETATM   16  C   UNL     1      40.604 -17.005   2.154  1.00  0.00     0.002 A 
HETATM   17  C   UNL     1      39.889 -15.817   2.088  1.00  0.00     0.014 A 
HETATM   18  C   UNL     1      40.070 -14.811   3.050  1.00  0.00    -0.004 A 
HETATM   19  C   UNL     1      39.338 -13.622   2.953  1.00  0.00     0.128 A 
HETATM   20  C   UNL     1      40.989 -14.974   4.121  1.00  0.00     0.038 A 
HETATM   21  N   UNL     1      39.451 -12.575   3.795  1.00  0.00    -0.269 NA
HETATM   22  C   UNL     1      40.347 -12.712   4.788  1.00  0.00     0.159 A 
HETATM   23  C   UNL     1      41.122 -13.848   4.974  1.00  0.00     0.146 A 
HETATM   24  F   UNL     1      42.077 -13.782   5.908  1.00  0.00    -0.204 F 
ENDBRANCH   1  14
TORSDOF 2
ENDMDL
