MODEL 1
REMARK VINA RESULT:      -8.6      0.000      0.000
REMARK  5 active torsions:
REMARK  status: ('A' for Active; 'I' for Inactive)
REMARK       I    between atoms: C_2  and  N_3 
REMARK    1  A    between atoms: C_2  and  C_11 
REMARK    2  A    between atoms: N_3  and  C_4 
REMARK    3  A    between atoms: C_4  and  C_5 
REMARK    4  A    between atoms: C_5  and  C_6 
REMARK    5  A    between atoms: C_17  and  C_21 
ROOT
HETATM    1  C   UNL     1      43.607 -16.463   7.213  1.00  0.00     0.059 A 
HETATM    2  C   UNL     1      43.455 -17.106   8.433  1.00  0.00     0.106 A 
HETATM    3  N   UNL     1      43.577 -18.456   8.234  1.00  0.00    -0.364 N 
HETATM    4  H   UNL     1      43.515 -19.160   8.957  1.00  0.00     0.165 HD
HETATM    5  C   UNL     1      43.819 -18.722   6.908  1.00  0.00     0.044 A 
HETATM    6  C   UNL     1      44.023 -19.949   6.260  1.00  0.00     0.042 A 
HETATM    7  C   UNL     1      44.254 -19.942   4.873  1.00  0.00    -0.021 A 
HETATM    8  C   UNL     1      44.272 -18.725   4.184  1.00  0.00     0.013 A 
HETATM    9  C   UNL     1      44.068 -17.508   4.850  1.00  0.00     0.016 A 
HETATM   10  C   UNL     1      43.839 -17.498   6.241  1.00  0.00     0.008 A 
ENDROOT
BRANCH   1  11
HETATM   11  C   UNL     1      43.567 -15.020   6.960  1.00  0.00     0.253 C 
HETATM   12  O   UNL     1      42.874 -14.519   6.079  1.00  0.00    -0.268 OA
HETATM   13  N   UNL     1      44.358 -14.257   7.794  1.00  0.00    -0.356 N 
HETATM   14  H   UNL     1      44.696 -14.690   8.643  1.00  0.00     0.162 HD
BRANCH  13  15
HETATM   15  C   UNL     1      44.315 -12.808   7.752  1.00  0.00     0.128 C 
BRANCH  15  16
HETATM   16  C   UNL     1      45.219 -12.159   8.802  1.00  0.00     0.066 C 
BRANCH  16  17
HETATM   17  C   UNL     1      44.444 -11.328   9.788  1.00  0.00    -0.016 A 
HETATM   18  C   UNL     1      44.819 -10.947  11.061  1.00  0.00     0.015 A 
HETATM   19  C   UNL     1      43.826 -10.152  11.703  1.00  0.00     0.008 A 
HETATM   20  C   UNL     1      42.724  -9.956  10.901  1.00  0.00     0.050 A 
HETATM   21  S   UNL     1      42.889 -10.728   9.385  1.00  0.00    -0.107 SA
ENDBRANCH  16  17
ENDBRANCH  15  16
ENDBRANCH  13  15
ENDBRANCH   1  11
BRANCH   7  22
HETATM   22  C   UNL     1      44.485 -21.198   4.179  1.00  0.00     0.010 A 
HETATM   23  C   UNL     1      44.441 -21.514   2.800  1.00  0.00     0.152 A 
HETATM   24  N   UNL     1      44.732 -22.794   2.551  1.00  0.00    -0.187 NA
HETATM   25  N   UNL     1      44.961 -23.304   3.772  1.00  0.00    -0.289 N 
HETATM   26  H   UNL     1      45.207 -24.286   3.845  1.00  0.00     0.188 HD
HETATM   27  C   UNL     1      44.830 -22.392   4.778  1.00  0.00     0.123 A 
ENDBRANCH   7  22
TORSDOF 5
ENDMDL
MODEL 2
REMARK VINA RESULT:      -8.4      3.685      5.751
REMARK  5 active torsions:
REMARK  status: ('A' for Active; 'I' for Inactive)
REMARK       I    between atoms: C_2  and  N_3 
REMARK    1  A    between atoms: C_2  and  C_11 
REMARK    2  A    between atoms: N_3  and  C_4 
REMARK    3  A    between atoms: C_4  and  C_5 
REMARK    4  A    between atoms: C_5  and  C_6 
REMARK    5  A    between atoms: C_17  and  C_21 
ROOT
HETATM    1  C   UNL     1      43.484 -15.547   5.442  1.00  0.00     0.059 A 
HETATM    2  C   UNL     1      43.976 -15.630   6.737  1.00  0.00     0.106 A 
HETATM    3  N   UNL     1      44.390 -16.916   6.966  1.00  0.00    -0.364 N 
HETATM    4  H   UNL     1      44.797 -17.253   7.828  1.00  0.00     0.165 HD
HETATM    5  C   UNL     1      44.194 -17.686   5.846  1.00  0.00     0.044 A 
HETATM    6  C   UNL     1      44.481 -19.041   5.624  1.00  0.00     0.042 A 
HETATM    7  C   UNL     1      44.176 -19.592   4.367  1.00  0.00    -0.021 A 
HETATM    8  C   UNL     1      43.599 -18.784   3.382  1.00  0.00     0.013 A 
HETATM    9  C   UNL     1      43.322 -17.430   3.622  1.00  0.00     0.016 A 
HETATM   10  C   UNL     1      43.624 -16.862   4.876  1.00  0.00     0.008 A 
ENDROOT
BRANCH   1  11
HETATM   11  C   UNL     1      42.953 -14.358   4.770  1.00  0.00     0.253 C 
HETATM   12  O   UNL     1      43.655 -13.397   4.469  1.00  0.00    -0.268 OA
HETATM   13  N   UNL     1      41.604 -14.399   4.486  1.00  0.00    -0.356 N 
HETATM   14  H   UNL     1      41.145 -15.299   4.525  1.00  0.00     0.162 HD
BRANCH  13  15
HETATM   15  C   UNL     1      40.968 -13.356   3.704  1.00  0.00     0.128 C 
BRANCH  15  16
HETATM   16  C   UNL     1      39.945 -13.905   2.707  1.00  0.00     0.066 C 
BRANCH  16  17
HETATM   17  C   UNL     1      40.478 -15.077   1.928  1.00  0.00    -0.016 A 
HETATM   18  C   UNL     1      40.108 -16.403   2.029  1.00  0.00     0.015 A 
HETATM   19  C   UNL     1      40.827 -17.236   1.123  1.00  0.00     0.008 A 
HETATM   20  C   UNL     1      41.723 -16.517   0.363  1.00  0.00     0.050 A 
HETATM   21  S   UNL     1      41.696 -14.851   0.744  1.00  0.00    -0.107 SA
ENDBRANCH  16  17
ENDBRANCH  15  16
ENDBRANCH  13  15
ENDBRANCH   1  11
BRANCH   7  22
HETATM   22  C   UNL     1      44.478 -20.990   4.105  1.00  0.00     0.010 A 
HETATM   23  C   UNL     1      44.468 -21.726   2.897  1.00  0.00     0.152 A 
HETATM   24  N   UNL     1      44.826 -23.003   3.064  1.00  0.00    -0.187 NA
HETATM   25  N   UNL     1      45.063 -23.089   4.384  1.00  0.00    -0.289 N 
HETATM   26  H   UNL     1      45.356 -23.984   4.762  1.00  0.00     0.188 HD
HETATM   27  C   UNL     1      44.874 -21.913   5.050  1.00  0.00     0.123 A 
ENDBRANCH   7  22
TORSDOF 5
ENDMDL
MODEL 3
REMARK VINA RESULT:      -8.2      5.977      8.177
REMARK  5 active torsions:
REMARK  status: ('A' for Active; 'I' for Inactive)
REMARK       I    between atoms: C_2  and  N_3 
REMARK    1  A    between atoms: C_2  and  C_11 
REMARK    2  A    between atoms: N_3  and  C_4 
REMARK    3  A    between atoms: C_4  and  C_5 
REMARK    4  A    between atoms: C_5  and  C_6 
REMARK    5  A    between atoms: C_17  and  C_21 
ROOT
HETATM    1  C   UNL     1      41.810 -15.071   2.436  1.00  0.00     0.059 A 
HETATM    2  C   UNL     1      40.932 -15.217   3.501  1.00  0.00     0.106 A 
HETATM    3  N   UNL     1      41.050 -16.489   3.995  1.00  0.00    -0.364 N 
HETATM    4  H   UNL     1      40.530 -16.861   4.778  1.00  0.00     0.165 HD
HETATM    5  C   UNL     1      41.996 -17.189   3.287  1.00  0.00     0.044 A 
HETATM    6  C   UNL     1      42.450 -18.506   3.451  1.00  0.00     0.042 A 
HETATM    7  C   UNL     1      43.443 -18.984   2.577  1.00  0.00    -0.021 A 
HETATM    8  C   UNL     1      43.945 -18.143   1.578  1.00  0.00     0.013 A 
HETATM    9  C   UNL     1      43.480 -16.828   1.432  1.00  0.00     0.016 A 
HETATM   10  C   UNL     1      42.487 -16.333   2.302  1.00  0.00     0.008 A 
ENDROOT
BRANCH   1  11
HETATM   11  C   UNL     1      42.028 -13.871   1.625  1.00  0.00     0.253 C 
HETATM   12  O   UNL     1      42.735 -12.939   1.995  1.00  0.00    -0.268 OA
HETATM   13  N   UNL     1      41.390 -13.867   0.401  1.00  0.00    -0.356 N 
HETATM   14  H   UNL     1      41.041 -14.750   0.053  1.00  0.00     0.162 HD
BRANCH  13  15
HETATM   15  C   UNL     1      41.622 -12.810  -0.564  1.00  0.00     0.128 C 
BRANCH  15  16
HETATM   16  C   UNL     1      42.073 -13.342  -1.926  1.00  0.00     0.066 C 
BRANCH  16  17
HETATM   17  C   UNL     1      41.012 -14.173  -2.594  1.00  0.00    -0.016 A 
HETATM   18  C   UNL     1      41.056 -15.518  -2.905  1.00  0.00     0.015 A 
HETATM   19  C   UNL     1      39.857 -15.968  -3.532  1.00  0.00     0.008 A 
HETATM   20  C   UNL     1      38.942 -14.951  -3.683  1.00  0.00     0.050 A 
HETATM   21  S   UNL     1      39.526 -13.465  -3.072  1.00  0.00    -0.107 SA
ENDBRANCH  16  17
ENDBRANCH  15  16
ENDBRANCH  13  15
ENDBRANCH   1  11
BRANCH   7  22
HETATM   22  C   UNL     1      43.944 -20.340   2.735  1.00  0.00     0.010 A 
HETATM   23  C   UNL     1      43.942 -21.435   1.840  1.00  0.00     0.152 A 
HETATM   24  N   UNL     1      44.517 -22.527   2.354  1.00  0.00    -0.187 NA
HETATM   25  N   UNL     1      44.887 -22.133   3.584  1.00  0.00    -0.289 N 
HETATM   26  H   UNL     1      45.355 -22.805   4.183  1.00  0.00     0.188 HD
HETATM   27  C   UNL     1      44.570 -20.835   3.860  1.00  0.00     0.123 A 
ENDBRANCH   7  22
TORSDOF 5
ENDMDL
MODEL 4
REMARK VINA RESULT:      -8.0      1.797      2.455
REMARK  5 active torsions:
REMARK  status: ('A' for Active; 'I' for Inactive)
REMARK       I    between atoms: C_2  and  N_3 
REMARK    1  A    between atoms: C_2  and  C_11 
REMARK    2  A    between atoms: N_3  and  C_4 
REMARK    3  A    between atoms: C_4  and  C_5 
REMARK    4  A    between atoms: C_5  and  C_6 
REMARK    5  A    between atoms: C_17  and  C_21 
ROOT
HETATM    1  C   UNL     1      43.119 -15.458   4.172  1.00  0.00     0.059 A 
HETATM    2  C   UNL     1      43.220 -15.205   2.811  1.00  0.00     0.106 A 
HETATM    3  N   UNL     1      43.573 -16.365   2.175  1.00  0.00    -0.364 N 
HETATM    4  H   UNL     1      43.709 -16.466   1.179  1.00  0.00     0.165 HD
HETATM    5  C   UNL     1      43.697 -17.388   3.084  1.00  0.00     0.044 A 
HETATM    6  C   UNL     1      44.025 -18.737   2.881  1.00  0.00     0.042 A 
HETATM    7  C   UNL     1      44.085 -19.585   4.000  1.00  0.00    -0.021 A 
HETATM    8  C   UNL     1      43.820 -19.068   5.273  1.00  0.00     0.013 A 
HETATM    9  C   UNL     1      43.491 -17.717   5.455  1.00  0.00     0.016 A 
HETATM   10  C   UNL     1      43.425 -16.853   4.342  1.00  0.00     0.008 A 
ENDROOT
BRANCH   1  11
HETATM   11  C   UNL     1      42.749 -14.509   5.225  1.00  0.00     0.253 C 
HETATM   12  O   UNL     1      41.586 -14.313   5.563  1.00  0.00    -0.268 OA
HETATM   13  N   UNL     1      43.807 -13.857   5.824  1.00  0.00    -0.356 N 
HETATM   14  H   UNL     1      44.732 -14.241   5.685  1.00  0.00     0.162 HD
BRANCH  13  15
HETATM   15  C   UNL     1      43.605 -12.994   6.972  1.00  0.00     0.128 C 
BRANCH  15  16
HETATM   16  C   UNL     1      44.707 -13.140   8.024  1.00  0.00     0.066 C 
BRANCH  16  17
HETATM   17  C   UNL     1      44.557 -12.154   9.149  1.00  0.00    -0.016 A 
HETATM   18  C   UNL     1      45.378 -11.984  10.247  1.00  0.00     0.015 A 
HETATM   19  C   UNL     1      44.923 -10.942  11.107  1.00  0.00     0.008 A 
HETATM   20  C   UNL     1      43.769 -10.355  10.639  1.00  0.00     0.050 A 
HETATM   21  S   UNL     1      43.239 -11.058   9.174  1.00  0.00    -0.107 SA
ENDBRANCH  16  17
ENDBRANCH  15  16
ENDBRANCH  13  15
ENDBRANCH   1  11
BRANCH   7  22
HETATM   22  C   UNL     1      44.406 -20.991   3.818  1.00  0.00     0.010 A 
HETATM   23  C   UNL     1      44.431 -21.789   2.650  1.00  0.00     0.152 A 
HETATM   24  N   UNL     1      44.796 -23.052   2.891  1.00  0.00    -0.187 NA
HETATM   25  N   UNL     1      45.003 -23.068   4.218  1.00  0.00    -0.289 N 
HETATM   26  H   UNL     1      45.295 -23.939   4.649  1.00  0.00     0.188 HD
HETATM   27  C   UNL     1      44.787 -21.861   4.818  1.00  0.00     0.123 A 
ENDBRANCH   7  22
TORSDOF 5
ENDMDL
MODEL 5
REMARK VINA RESULT:      -7.9      5.944      8.865
REMARK  5 active torsions:
REMARK  status: ('A' for Active; 'I' for Inactive)
REMARK       I    between atoms: C_2  and  N_3 
REMARK    1  A    between atoms: C_2  and  C_11 
REMARK    2  A    between atoms: N_3  and  C_4 
REMARK    3  A    between atoms: C_4  and  C_5 
REMARK    4  A    between atoms: C_5  and  C_6 
REMARK    5  A    between atoms: C_17  and  C_21 
ROOT
HETATM    1  C   UNL     1      41.496 -16.136   3.960  1.00  0.00     0.059 A 
HETATM    2  C   UNL     1      41.137 -14.868   4.394  1.00  0.00     0.106 A 
HETATM    3  N   UNL     1      40.885 -14.085   3.298  1.00  0.00    -0.364 N 
HETATM    4  H   UNL     1      40.598 -13.117   3.327  1.00  0.00     0.165 HD
HETATM    5  C   UNL     1      41.058 -14.811   2.145  1.00  0.00     0.044 A 
HETATM    6  C   UNL     1      40.896 -14.425   0.806  1.00  0.00     0.042 A 
HETATM    7  C   UNL     1      41.140 -15.377  -0.199  1.00  0.00    -0.021 A 
HETATM    8  C   UNL     1      41.534 -16.671   0.159  1.00  0.00     0.013 A 
HETATM    9  C   UNL     1      41.688 -17.039   1.504  1.00  0.00     0.016 A 
HETATM   10  C   UNL     1      41.444 -16.096   2.523  1.00  0.00     0.008 A 
ENDROOT
BRANCH   1  11
HETATM   11  C   UNL     1      41.833 -17.295   4.791  1.00  0.00     0.253 C 
HETATM   12  O   UNL     1      41.007 -18.142   5.116  1.00  0.00    -0.268 OA
HETATM   13  N   UNL     1      43.156 -17.376   5.175  1.00  0.00    -0.356 N 
HETATM   14  H   UNL     1      43.823 -16.803   4.675  1.00  0.00     0.162 HD
BRANCH  13  15
HETATM   15  C   UNL     1      43.664 -18.535   5.881  1.00  0.00     0.128 C 
BRANCH  15  16
HETATM   16  C   UNL     1      44.956 -19.082   5.270  1.00  0.00     0.066 C 
BRANCH  16  17
HETATM   17  C   UNL     1      44.694 -20.142   4.236  1.00  0.00    -0.016 A 
HETATM   18  C   UNL     1      44.321 -19.971   2.917  1.00  0.00     0.015 A 
HETATM   19  C   UNL     1      44.168 -21.212   2.232  1.00  0.00     0.008 A 
HETATM   20  C   UNL     1      44.425 -22.288   3.052  1.00  0.00     0.050 A 
HETATM   21  S   UNL     1      44.847 -21.802   4.636  1.00  0.00    -0.107 SA
ENDBRANCH  16  17
ENDBRANCH  15  16
ENDBRANCH  13  15
ENDBRANCH   1  11
BRANCH   7  22
HETATM   22  C   UNL     1      40.964 -15.009  -1.594  1.00  0.00     0.010 A 
HETATM   23  C   UNL     1      40.987 -15.797  -2.768  1.00  0.00     0.152 A 
HETATM   24  N   UNL     1      40.766 -15.084  -3.877  1.00  0.00    -0.187 NA
HETATM   25  N   UNL     1      40.604 -13.833  -3.415  1.00  0.00    -0.289 N 
HETATM   26  H   UNL     1      40.420 -13.094  -4.085  1.00  0.00     0.188 HD
HETATM   27  C   UNL     1      40.709 -13.735  -2.058  1.00  0.00     0.123 A 
ENDBRANCH   7  22
TORSDOF 5
ENDMDL
MODEL 6
REMARK VINA RESULT:      -7.7      2.354      2.915
REMARK  5 active torsions:
REMARK  status: ('A' for Active; 'I' for Inactive)
REMARK       I    between atoms: C_2  and  N_3 
REMARK    1  A    between atoms: C_2  and  C_11 
REMARK    2  A    between atoms: N_3  and  C_4 
REMARK    3  A    between atoms: C_4  and  C_5 
REMARK    4  A    between atoms: C_5  and  C_6 
REMARK    5  A    between atoms: C_17  and  C_21 
ROOT
HETATM    1  C   UNL     1      43.517 -15.391   5.773  1.00  0.00     0.059 A 
HETATM    2  C   UNL     1      43.892 -15.875   7.018  1.00  0.00     0.106 A 
HETATM    3  N   UNL     1      44.153 -17.215   6.907  1.00  0.00    -0.364 N 
HETATM    4  H   UNL     1      44.452 -17.815   7.663  1.00  0.00     0.165 HD
HETATM    5  C   UNL     1      43.970 -17.630   5.611  1.00  0.00     0.044 A 
HETATM    6  C   UNL     1      44.134 -18.901   5.042  1.00  0.00     0.042 A 
HETATM    7  C   UNL     1      43.877 -19.057   3.668  1.00  0.00    -0.021 A 
HETATM    8  C   UNL     1      43.467 -17.953   2.914  1.00  0.00     0.013 A 
HETATM    9  C   UNL     1      43.311 -16.688   3.501  1.00  0.00     0.016 A 
HETATM   10  C   UNL     1      43.568 -16.515   4.876  1.00  0.00     0.008 A 
ENDROOT
BRANCH   1  11
HETATM   11  C   UNL     1      43.166 -14.011   5.426  1.00  0.00     0.253 C 
HETATM   12  O   UNL     1      43.685 -13.410   4.490  1.00  0.00    -0.268 OA
HETATM   13  N   UNL     1      42.196 -13.436   6.220  1.00  0.00    -0.356 N 
HETATM   14  H   UNL     1      41.637 -14.051   6.796  1.00  0.00     0.162 HD
BRANCH  13  15
HETATM   15  C   UNL     1      41.651 -12.128   5.912  1.00  0.00     0.128 C 
BRANCH  15  16
HETATM   16  C   UNL     1      40.208 -11.960   6.393  1.00  0.00     0.066 C 
BRANCH  16  17
HETATM   17  C   UNL     1      40.120 -11.170   7.670  1.00  0.00    -0.016 A 
HETATM   18  C   UNL     1      39.251 -11.357   8.728  1.00  0.00     0.015 A 
HETATM   19  C   UNL     1      39.465 -10.415   9.776  1.00  0.00     0.008 A 
HETATM   20  C   UNL     1      40.487  -9.540   9.482  1.00  0.00     0.050 A 
HETATM   21  S   UNL     1      41.180  -9.853   7.951  1.00  0.00    -0.107 SA
ENDBRANCH  16  17
ENDBRANCH  15  16
ENDBRANCH  13  15
ENDBRANCH   1  11
BRANCH   7  22
HETATM   22  C   UNL     1      44.056 -20.360   3.049  1.00  0.00     0.010 A 
HETATM   23  C   UNL     1      44.644 -21.547   3.546  1.00  0.00     0.152 A 
HETATM   24  N   UNL     1      44.604 -22.554   2.668  1.00  0.00    -0.187 NA
HETATM   25  N   UNL     1      43.990 -22.013   1.603  1.00  0.00    -0.289 N 
HETATM   26  H   UNL     1      43.840 -22.597   0.787  1.00  0.00     0.188 HD
HETATM   27  C   UNL     1      43.639 -20.706   1.780  1.00  0.00     0.123 A 
ENDBRANCH   7  22
TORSDOF 5
ENDMDL
MODEL 7
REMARK VINA RESULT:      -7.6      4.766      6.517
REMARK  5 active torsions:
REMARK  status: ('A' for Active; 'I' for Inactive)
REMARK       I    between atoms: C_2  and  N_3 
REMARK    1  A    between atoms: C_2  and  C_11 
REMARK    2  A    between atoms: N_3  and  C_4 
REMARK    3  A    between atoms: C_4  and  C_5 
REMARK    4  A    between atoms: C_5  and  C_6 
REMARK    5  A    between atoms: C_17  and  C_21 
ROOT
HETATM    1  C   UNL     1      43.319 -15.396   4.543  1.00  0.00     0.059 A 
HETATM    2  C   UNL     1      43.399 -15.397   5.928  1.00  0.00     0.106 A 
HETATM    3  N   UNL     1      43.670 -16.672   6.350  1.00  0.00    -0.364 N 
HETATM    4  H   UNL     1      43.786 -16.955   7.313  1.00  0.00     0.165 HD
HETATM    5  C   UNL     1      43.782 -17.517   5.272  1.00  0.00     0.044 A 
HETATM    6  C   UNL     1      44.064 -18.890   5.231  1.00  0.00     0.042 A 
HETATM    7  C   UNL     1      44.124 -19.523   3.977  1.00  0.00    -0.021 A 
HETATM    8  C   UNL     1      43.902 -18.775   2.816  1.00  0.00     0.013 A 
HETATM    9  C   UNL     1      43.625 -17.401   2.878  1.00  0.00     0.016 A 
HETATM   10  C   UNL     1      43.564 -16.752   4.127  1.00  0.00     0.008 A 
ENDROOT
BRANCH   1  11
HETATM   11  C   UNL     1      43.064 -14.247   3.670  1.00  0.00     0.253 C 
HETATM   12  O   UNL     1      43.907 -13.382   3.448  1.00  0.00    -0.268 OA
HETATM   13  N   UNL     1      41.808 -14.210   3.101  1.00  0.00    -0.356 N 
HETATM   14  H   UNL     1      41.263 -15.062   3.116  1.00  0.00     0.162 HD
BRANCH  13  15
HETATM   15  C   UNL     1      41.461 -13.209   2.111  1.00  0.00     0.128 C 
BRANCH  15  16
HETATM   16  C   UNL     1      41.697 -13.688   0.677  1.00  0.00     0.066 C 
BRANCH  16  17
HETATM   17  C   UNL     1      40.446 -13.636  -0.157  1.00  0.00    -0.016 A 
HETATM   18  C   UNL     1      40.324 -13.287  -1.487  1.00  0.00     0.015 A 
HETATM   19  C   UNL     1      38.976 -13.359  -1.944  1.00  0.00     0.008 A 
HETATM   20  C   UNL     1      38.114 -13.755  -0.946  1.00  0.00     0.050 A 
HETATM   21  S   UNL     1      38.928 -14.037   0.530  1.00  0.00    -0.107 SA
ENDBRANCH  16  17
ENDBRANCH  15  16
ENDBRANCH  13  15
ENDBRANCH   1  11
BRANCH   7  22
HETATM   22  C   UNL     1      44.430 -20.942   3.905  1.00  0.00     0.010 A 
HETATM   23  C   UNL     1      44.463 -21.825   2.800  1.00  0.00     0.152 A 
HETATM   24  N   UNL     1      44.808 -23.071   3.141  1.00  0.00    -0.187 NA
HETATM   25  N   UNL     1      44.994 -22.990   4.469  1.00  0.00    -0.289 N 
HETATM   26  H   UNL     1      45.268 -23.830   4.968  1.00  0.00     0.188 HD
HETATM   27  C   UNL     1      44.784 -21.740   4.974  1.00  0.00     0.123 A 
ENDBRANCH   7  22
TORSDOF 5
ENDMDL
MODEL 8
REMARK VINA RESULT:      -7.5      6.812      8.849
REMARK  5 active torsions:
REMARK  status: ('A' for Active; 'I' for Inactive)
REMARK       I    between atoms: C_2  and  N_3 
REMARK    1  A    between atoms: C_2  and  C_11 
REMARK    2  A    between atoms: N_3  and  C_4 
REMARK    3  A    between atoms: C_4  and  C_5 
REMARK    4  A    between atoms: C_5  and  C_6 
REMARK    5  A    between atoms: C_17  and  C_21 
ROOT
HETATM    1  C   UNL     1      39.645 -14.911   2.415  1.00  0.00     0.059 A 
HETATM    2  C   UNL     1      39.657 -14.534   3.750  1.00  0.00     0.106 A 
HETATM    3  N   UNL     1      40.505 -15.366   4.432  1.00  0.00    -0.364 N 
HETATM    4  H   UNL     1      40.706 -15.310   5.421  1.00  0.00     0.165 HD
HETATM    5  C   UNL     1      41.065 -16.282   3.575  1.00  0.00     0.044 A 
HETATM    6  C   UNL     1      41.991 -17.304   3.832  1.00  0.00     0.042 A 
HETATM    7  C   UNL     1      42.407 -18.113   2.759  1.00  0.00    -0.021 A 
HETATM    8  C   UNL     1      41.893 -17.879   1.479  1.00  0.00     0.013 A 
HETATM    9  C   UNL     1      40.970 -16.849   1.243  1.00  0.00     0.016 A 
HETATM   10  C   UNL     1      40.545 -16.028   2.307  1.00  0.00     0.008 A 
ENDROOT
BRANCH   1  11
HETATM   11  C   UNL     1      38.891 -14.288   1.324  1.00  0.00     0.253 C 
HETATM   12  O   UNL     1      37.704 -14.524   1.117  1.00  0.00    -0.268 OA
HETATM   13  N   UNL     1      39.609 -13.400   0.548  1.00  0.00    -0.356 N 
HETATM   14  H   UNL     1      40.487 -13.061   0.917  1.00  0.00     0.162 HD
BRANCH  13  15
HETATM   15  C   UNL     1      38.962 -12.607  -0.479  1.00  0.00     0.128 C 
BRANCH  15  16
HETATM   16  C   UNL     1      39.709 -12.645  -1.814  1.00  0.00     0.066 C 
BRANCH  16  17
HETATM   17  C   UNL     1      39.348 -13.851  -2.637  1.00  0.00    -0.016 A 
HETATM   18  C   UNL     1      38.210 -14.057  -3.390  1.00  0.00     0.015 A 
HETATM   19  C   UNL     1      38.215 -15.324  -4.044  1.00  0.00     0.008 A 
HETATM   20  C   UNL     1      39.356 -16.043  -3.764  1.00  0.00     0.050 A 
HETATM   21  S   UNL     1      40.409 -15.195  -2.719  1.00  0.00    -0.107 SA
ENDBRANCH  16  17
ENDBRANCH  15  16
ENDBRANCH  13  15
ENDBRANCH   1  11
BRANCH   7  22
HETATM   22  C   UNL     1      43.378 -19.169   2.993  1.00  0.00     0.010 A 
HETATM   23  C   UNL     1      43.719 -20.300   2.214  1.00  0.00     0.152 A 
HETATM   24  N   UNL     1      44.685 -21.040   2.768  1.00  0.00    -0.187 NA
HETATM   25  N   UNL     1      44.964 -20.385   3.907  1.00  0.00    -0.289 N 
HETATM   26  H   UNL     1      45.684 -20.763   4.514  1.00  0.00     0.188 HD
HETATM   27  C   UNL     1      44.214 -19.259   4.087  1.00  0.00     0.123 A 
ENDBRANCH   7  22
TORSDOF 5
ENDMDL
MODEL 9
REMARK VINA RESULT:      -7.4      7.004      8.731
REMARK  5 active torsions:
REMARK  status: ('A' for Active; 'I' for Inactive)
REMARK       I    between atoms: C_2  and  N_3 
REMARK    1  A    between atoms: C_2  and  C_11 
REMARK    2  A    between atoms: N_3  and  C_4 
REMARK    3  A    between atoms: C_4  and  C_5 
REMARK    4  A    between atoms: C_5  and  C_6 
REMARK    5  A    between atoms: C_17  and  C_21 
ROOT
HETATM    1  C   UNL     1      40.494 -15.039   1.539  1.00  0.00     0.059 A 
HETATM    2  C   UNL     1      39.855 -14.950   2.768  1.00  0.00     0.106 A 
HETATM    3  N   UNL     1      40.315 -15.956   3.575  1.00  0.00    -0.364 N 
HETATM    4  H   UNL     1      40.020 -16.120   4.528  1.00  0.00     0.165 HD
HETATM    5  C   UNL     1      41.256 -16.706   2.912  1.00  0.00     0.044 A 
HETATM    6  C   UNL     1      41.995 -17.815   3.351  1.00  0.00     0.042 A 
HETATM    7  C   UNL     1      42.907 -18.406   2.459  1.00  0.00    -0.021 A 
HETATM    8  C   UNL     1      43.051 -17.879   1.171  1.00  0.00     0.013 A 
HETATM    9  C   UNL     1      42.305 -16.768   0.752  1.00  0.00     0.016 A 
HETATM   10  C   UNL     1      41.388 -16.162   1.636  1.00  0.00     0.008 A 
ENDROOT
BRANCH   1  11
HETATM   11  C   UNL     1      40.321 -14.156   0.383  1.00  0.00     0.253 C 
HETATM   12  O   UNL     1      40.880 -13.067   0.289  1.00  0.00    -0.268 OA
HETATM   13  N   UNL     1      39.491 -14.642  -0.606  1.00  0.00    -0.356 N 
HETATM   14  H   UNL     1      39.272 -15.629  -0.589  1.00  0.00     0.162 HD
BRANCH  13  15
HETATM   15  C   UNL     1      39.334 -13.942  -1.866  1.00  0.00     0.128 C 
BRANCH  15  16
HETATM   16  C   UNL     1      40.545 -14.101  -2.787  1.00  0.00     0.066 C 
BRANCH  16  17
HETATM   17  C   UNL     1      40.998 -12.789  -3.367  1.00  0.00    -0.016 A 
HETATM   18  C   UNL     1      42.291 -12.346  -3.563  1.00  0.00     0.015 A 
HETATM   19  C   UNL     1      42.335 -11.046  -4.145  1.00  0.00     0.008 A 
HETATM   20  C   UNL     1      41.075 -10.539  -4.370  1.00  0.00     0.050 A 
HETATM   21  S   UNL     1      39.849 -11.625  -3.881  1.00  0.00    -0.107 SA
ENDBRANCH  16  17
ENDBRANCH  15  16
ENDBRANCH  13  15
ENDBRANCH   1  11
BRANCH   7  22
HETATM   22  C   UNL     1      43.697 -19.546   2.893  1.00  0.00     0.010 A 
HETATM   23  C   UNL     1      44.429 -19.763   4.084  1.00  0.00     0.152 A 
HETATM   24  N   UNL     1      45.020 -20.961   4.119  1.00  0.00    -0.187 NA
HETATM   25  N   UNL     1      44.670 -21.515   2.946  1.00  0.00    -0.289 N 
HETATM   26  H   UNL     1      45.006 -22.450   2.737  1.00  0.00     0.188 HD
HETATM   27  C   UNL     1      43.878 -20.712   2.179  1.00  0.00     0.123 A 
ENDBRANCH   7  22
TORSDOF 5
ENDMDL
MODEL 10
REMARK VINA RESULT:      -7.1      6.450      9.194
REMARK  5 active torsions:
REMARK  status: ('A' for Active; 'I' for Inactive)
REMARK       I    between atoms: C_2  and  N_3 
REMARK    1  A    between atoms: C_2  and  C_11 
REMARK    2  A    between atoms: N_3  and  C_4 
REMARK    3  A    between atoms: C_4  and  C_5 
REMARK    4  A    between atoms: C_5  and  C_6 
REMARK    5  A    between atoms: C_17  and  C_21 
ROOT
HETATM    1  C   UNL     1      41.533 -15.943   1.085  1.00  0.00     0.059 A 
HETATM    2  C   UNL     1      41.339 -17.239   0.626  1.00  0.00     0.106 A 
HETATM    3  N   UNL     1      41.677 -18.112   1.626  1.00  0.00    -0.364 N 
HETATM    4  H   UNL     1      41.624 -19.120   1.563  1.00  0.00     0.165 HD
HETATM    5  C   UNL     1      42.081 -17.424   2.744  1.00  0.00     0.044 A 
HETATM    6  C   UNL     1      42.499 -17.904   3.994  1.00  0.00     0.042 A 
HETATM    7  C   UNL     1      42.865 -16.971   4.980  1.00  0.00    -0.021 A 
HETATM    8  C   UNL     1      42.804 -15.603   4.691  1.00  0.00     0.013 A 
HETATM    9  C   UNL     1      42.381 -15.143   3.436  1.00  0.00     0.016 A 
HETATM   10  C   UNL     1      42.008 -16.066   2.437  1.00  0.00     0.008 A 
ENDROOT
BRANCH   1  11
HETATM   11  C   UNL     1      41.283 -14.698   0.355  1.00  0.00     0.253 C 
HETATM   12  O   UNL     1      40.509 -13.835   0.760  1.00  0.00    -0.268 OA
HETATM   13  N   UNL     1      41.992 -14.553  -0.820  1.00  0.00    -0.356 N 
HETATM   14  H   UNL     1      42.785 -15.163  -0.964  1.00  0.00     0.162 HD
BRANCH  13  15
HETATM   15  C   UNL     1      41.951 -13.317  -1.575  1.00  0.00     0.128 C 
BRANCH  15  16
HETATM   16  C   UNL     1      41.667 -13.541  -3.062  1.00  0.00     0.066 C 
BRANCH  16  17
HETATM   17  C   UNL     1      40.341 -14.213  -3.296  1.00  0.00    -0.016 A 
HETATM   18  C   UNL     1      40.104 -15.522  -3.667  1.00  0.00     0.015 A 
HETATM   19  C   UNL     1      38.713 -15.806  -3.789  1.00  0.00     0.008 A 
HETATM   20  C   UNL     1      37.935 -14.704  -3.511  1.00  0.00     0.050 A 
HETATM   21  S   UNL     1      38.880 -13.337  -3.108  1.00  0.00    -0.107 SA
ENDBRANCH  16  17
ENDBRANCH  15  16
ENDBRANCH  13  15
ENDBRANCH   1  11
BRANCH   7  22
HETATM   22  C   UNL     1      43.286 -17.440   6.289  1.00  0.00     0.010 A 
HETATM   23  C   UNL     1      44.302 -18.351   6.662  1.00  0.00     0.152 A 
HETATM   24  N   UNL     1      44.393 -18.514   7.985  1.00  0.00    -0.187 NA
HETATM   25  N   UNL     1      43.432 -17.709   8.465  1.00  0.00    -0.289 N 
HETATM   26  H   UNL     1      43.303 -17.660   9.471  1.00  0.00     0.188 HD
HETATM   27  C   UNL     1      42.744 -17.042   7.494  1.00  0.00     0.123 A 
ENDBRANCH   7  22
TORSDOF 5
ENDMDL
