MODEL 1
REMARK VINA RESULT:      -8.7      0.000      0.000
REMARK  6 active torsions:
REMARK  status: ('A' for Active; 'I' for Inactive)
REMARK    1  A    between atoms: O_2  and  C_3 
REMARK    2  A    between atoms: C_6  and  C_7 
REMARK    3  A    between atoms: C_7  and  N_8 
REMARK       I    between atoms: N_8  and  C_9 
REMARK    4  A    between atoms: C_9  and  C_10 
REMARK    5  A    between atoms: C_13  and  C_14 
REMARK    6  A    between atoms: C_19  and  C_20 
ROOT
HETATM    1  C   UNL     1      41.354 -14.157   3.342  1.00  0.00     0.096 A 
HETATM    2  C   UNL     1      41.751 -15.231   4.119  1.00  0.00     0.138 A 
HETATM    3  N   UNL     1      42.891 -14.818   4.775  1.00  0.00    -0.240 N 
HETATM    4  C   UNL     1      43.619 -15.630   5.735  1.00  0.00     0.221 C 
HETATM    5  C   UNL     1      42.690 -16.722   6.297  1.00  0.00     0.066 C 
HETATM    6  C   UNL     1      41.937 -17.450   5.175  1.00  0.00     0.118 C 
HETATM    7  N   UNL     1      41.240 -16.470   4.342  1.00  0.00    -0.365 N 
HETATM    8  N   UNL     1      43.303 -13.594   4.420  1.00  0.00    -0.181 NA
HETATM    9  C   UNL     1      42.345 -13.175   3.590  1.00  0.00     0.160 A 
HETATM   10  H   UNL     1      40.298 -16.729   4.059  1.00  0.00     0.161 HD
ENDROOT
BRANCH   1  11
HETATM   11  C   UNL     1      40.203 -14.000   2.476  1.00  0.00     0.257 C 
HETATM   12  N   UNL     1      40.235 -12.894   1.658  1.00  0.00    -0.352 N 
HETATM   13  H   UNL     1      40.913 -12.174   1.867  1.00  0.00     0.163 HD
HETATM   14  O   UNL     1      39.264 -14.788   2.501  1.00  0.00    -0.267 OA
BRANCH  12  15
HETATM   15  C   UNL     1      39.179 -12.606   0.718  1.00  0.00     0.161 C 
BRANCH  15  16
HETATM   16  C   UNL     1      39.397 -13.274  -0.615  1.00  0.00    -0.040 A 
HETATM   17  C   UNL     1      40.693 -13.514  -1.090  1.00  0.00     0.011 A 
HETATM   18  C   UNL     1      40.901 -14.197  -2.295  1.00  0.00     0.037 A 
HETATM   19  C   UNL     1      39.813 -14.652  -3.039  1.00  0.00     0.068 A 
HETATM   20  C   UNL     1      38.519 -14.390  -2.586  1.00  0.00     0.037 A 
HETATM   21  C   UNL     1      38.309 -13.715  -1.380  1.00  0.00     0.011 A 
BRANCH  19  22
HETATM   22  O   UNL     1      39.885 -15.344  -4.216  1.00  0.00    -0.356 OA
HETATM   23  C   UNL     1      38.847 -16.286  -4.458  1.00  0.00     0.210 C 
ENDBRANCH  19  22
ENDBRANCH  15  16
ENDBRANCH  12  15
ENDBRANCH   1  11
BRANCH   4  24
HETATM   24  C   UNL     1      44.174 -14.811   6.883  1.00  0.00     0.409 C 
HETATM   25  F   UNL     1      43.494 -13.658   7.074  1.00  0.00    -0.169 F 
HETATM   26  F   UNL     1      44.054 -15.520   8.041  1.00  0.00    -0.169 F 
HETATM   27  F   UNL     1      45.485 -14.522   6.761  1.00  0.00    -0.169 F 
ENDBRANCH   4  24
BRANCH   6  28
HETATM   28  C   UNL     1      42.837 -18.381   4.372  1.00  0.00    -0.035 A 
HETATM   29  C   UNL     1      43.796 -19.156   5.051  1.00  0.00     0.009 A 
HETATM   30  C   UNL     1      44.663 -20.002   4.356  1.00  0.00     0.001 A 
HETATM   31  C   UNL     1      44.583 -20.096   2.970  1.00  0.00     0.000 A 
HETATM   32  C   UNL     1      43.634 -19.347   2.280  1.00  0.00     0.001 A 
HETATM   33  C   UNL     1      42.770 -18.497   2.974  1.00  0.00     0.009 A 
ENDBRANCH   6  28
TORSDOF 6
ENDMDL
MODEL 2
REMARK VINA RESULT:      -8.5      4.395      8.232
REMARK  6 active torsions:
REMARK  status: ('A' for Active; 'I' for Inactive)
REMARK    1  A    between atoms: O_2  and  C_3 
REMARK    2  A    between atoms: C_6  and  C_7 
REMARK    3  A    between atoms: C_7  and  N_8 
REMARK       I    between atoms: N_8  and  C_9 
REMARK    4  A    between atoms: C_9  and  C_10 
REMARK    5  A    between atoms: C_13  and  C_14 
REMARK    6  A    between atoms: C_19  and  C_20 
ROOT
HETATM    1  C   UNL     1      42.717 -15.531   5.984  1.00  0.00     0.096 A 
HETATM    2  C   UNL     1      42.912 -16.055   4.719  1.00  0.00     0.138 A 
HETATM    3  N   UNL     1      41.657 -16.170   4.162  1.00  0.00    -0.240 N 
HETATM    4  C   UNL     1      41.403 -16.642   2.812  1.00  0.00     0.221 C 
HETATM    5  C   UNL     1      42.675 -16.476   1.960  1.00  0.00     0.066 C 
HETATM    6  C   UNL     1      43.911 -17.024   2.685  1.00  0.00     0.118 C 
HETATM    7  N   UNL     1      44.015 -16.403   4.005  1.00  0.00    -0.365 N 
HETATM    8  N   UNL     1      40.665 -15.836   4.999  1.00  0.00    -0.181 NA
HETATM    9  C   UNL     1      41.310 -15.403   6.084  1.00  0.00     0.160 A 
HETATM   10  H   UNL     1      44.954 -16.130   4.286  1.00  0.00     0.161 HD
ENDROOT
BRANCH   1  11
HETATM   11  C   UNL     1      43.677 -15.160   7.005  1.00  0.00     0.257 C 
HETATM   12  N   UNL     1      44.060 -13.839   6.993  1.00  0.00    -0.352 N 
HETATM   13  H   UNL     1      43.837 -13.292   6.173  1.00  0.00     0.163 HD
HETATM   14  O   UNL     1      44.126 -15.981   7.798  1.00  0.00    -0.267 OA
BRANCH  12  15
HETATM   15  C   UNL     1      44.987 -13.301   7.959  1.00  0.00     0.161 C 
BRANCH  15  16
HETATM   16  C   UNL     1      44.378 -12.206   8.794  1.00  0.00    -0.040 A 
HETATM   17  C   UNL     1      43.224 -11.538   8.365  1.00  0.00     0.011 A 
HETATM   18  C   UNL     1      42.615 -10.568   9.171  1.00  0.00     0.037 A 
HETATM   19  C   UNL     1      43.152 -10.255  10.419  1.00  0.00     0.068 A 
HETATM   20  C   UNL     1      44.318 -10.896  10.840  1.00  0.00     0.037 A 
HETATM   21  C   UNL     1      44.924 -11.869  10.041  1.00  0.00     0.011 A 
BRANCH  19  22
HETATM   22  O   UNL     1      42.641  -9.344  11.302  1.00  0.00    -0.356 OA
HETATM   23  C   UNL     1      41.312  -9.581  11.753  1.00  0.00     0.210 C 
ENDBRANCH  19  22
ENDBRANCH  15  16
ENDBRANCH  12  15
ENDBRANCH   1  11
BRANCH   4  24
HETATM   24  C   UNL     1      40.259 -15.905   2.146  1.00  0.00     0.409 C 
HETATM   25  F   UNL     1      40.088 -14.657   2.639  1.00  0.00    -0.169 F 
HETATM   26  F   UNL     1      40.531 -15.756   0.819  1.00  0.00    -0.169 F 
HETATM   27  F   UNL     1      39.081 -16.557   2.210  1.00  0.00    -0.169 F 
ENDBRANCH   4  24
BRANCH   6  28
HETATM   28  C   UNL     1      43.934 -18.546   2.740  1.00  0.00    -0.035 A 
HETATM   29  C   UNL     1      44.474 -19.180   3.875  1.00  0.00     0.009 A 
HETATM   30  C   UNL     1      44.544 -20.573   3.959  1.00  0.00     0.001 A 
HETATM   31  C   UNL     1      44.068 -21.358   2.914  1.00  0.00     0.000 A 
HETATM   32  C   UNL     1      43.520 -20.752   1.787  1.00  0.00     0.001 A 
HETATM   33  C   UNL     1      43.454 -19.360   1.700  1.00  0.00     0.009 A 
ENDBRANCH   6  28
TORSDOF 6
ENDMDL
MODEL 3
REMARK VINA RESULT:      -8.5      2.015      2.619
REMARK  6 active torsions:
REMARK  status: ('A' for Active; 'I' for Inactive)
REMARK    1  A    between atoms: O_2  and  C_3 
REMARK    2  A    between atoms: C_6  and  C_7 
REMARK    3  A    between atoms: C_7  and  N_8 
REMARK       I    between atoms: N_8  and  C_9 
REMARK    4  A    between atoms: C_9  and  C_10 
REMARK    5  A    between atoms: C_13  and  C_14 
REMARK    6  A    between atoms: C_19  and  C_20 
ROOT
HETATM    1  C   UNL     1      41.909 -14.693   1.913  1.00  0.00     0.096 A 
HETATM    2  C   UNL     1      42.054 -15.582   2.963  1.00  0.00     0.138 A 
HETATM    3  N   UNL     1      42.987 -15.019   3.805  1.00  0.00    -0.240 N 
HETATM    4  C   UNL     1      43.409 -15.606   5.065  1.00  0.00     0.221 C 
HETATM    5  C   UNL     1      42.334 -16.591   5.561  1.00  0.00     0.066 C 
HETATM    6  C   UNL     1      41.890 -17.545   4.444  1.00  0.00     0.118 C 
HETATM    7  N   UNL     1      41.468 -16.767   3.279  1.00  0.00    -0.365 N 
HETATM    8  N   UNL     1      43.512 -13.877   3.341  1.00  0.00    -0.181 NA
HETATM    9  C   UNL     1      42.823 -13.655   2.219  1.00  0.00     0.160 A 
HETATM   10  H   UNL     1      40.629 -17.103   2.811  1.00  0.00     0.161 HD
ENDROOT
BRANCH   1  11
HETATM   11  C   UNL     1      41.036 -14.740   0.757  1.00  0.00     0.257 C 
HETATM   12  N   UNL     1      41.666 -14.988  -0.440  1.00  0.00    -0.352 N 
HETATM   13  H   UNL     1      42.672 -14.896  -0.470  1.00  0.00     0.163 HD
HETATM   14  O   UNL     1      39.828 -14.546   0.851  1.00  0.00    -0.267 OA
BRANCH  12  15
HETATM   15  C   UNL     1      40.938 -15.093  -1.682  1.00  0.00     0.161 C 
BRANCH  15  16
HETATM   16  C   UNL     1      41.063 -13.854  -2.529  1.00  0.00    -0.040 A 
HETATM   17  C   UNL     1      39.931 -13.270  -3.114  1.00  0.00     0.011 A 
HETATM   18  C   UNL     1      40.033 -12.079  -3.843  1.00  0.00     0.037 A 
HETATM   19  C   UNL     1      41.271 -11.454  -3.995  1.00  0.00     0.068 A 
HETATM   20  C   UNL     1      42.406 -12.046  -3.439  1.00  0.00     0.037 A 
HETATM   21  C   UNL     1      42.306 -13.231  -2.705  1.00  0.00     0.011 A 
BRANCH  19  22
HETATM   22  O   UNL     1      41.496 -10.284  -4.665  1.00  0.00    -0.356 OA
HETATM   23  C   UNL     1      42.313  -9.326  -4.002  1.00  0.00     0.210 C 
ENDBRANCH  19  22
ENDBRANCH  15  16
ENDBRANCH  12  15
ENDBRANCH   1  11
BRANCH   4  24
HETATM   24  C   UNL     1      43.658 -14.563   6.136  1.00  0.00     0.409 C 
HETATM   25  F   UNL     1      42.647 -13.671   6.237  1.00  0.00    -0.169 F 
HETATM   26  F   UNL     1      43.747 -15.176   7.350  1.00  0.00    -0.169 F 
HETATM   27  F   UNL     1      44.814 -13.887   5.979  1.00  0.00    -0.169 F 
ENDBRANCH   4  24
BRANCH   6  28
HETATM   28  C   UNL     1      42.946 -18.591   4.110  1.00  0.00    -0.035 A 
HETATM   29  C   UNL     1      43.717 -19.139   5.153  1.00  0.00     0.009 A 
HETATM   30  C   UNL     1      44.718 -20.079   4.894  1.00  0.00     0.001 A 
HETATM   31  C   UNL     1      44.961 -20.495   3.589  1.00  0.00     0.000 A 
HETATM   32  C   UNL     1      44.203 -19.975   2.544  1.00  0.00     0.001 A 
HETATM   33  C   UNL     1      43.205 -19.031   2.802  1.00  0.00     0.009 A 
ENDBRANCH   6  28
TORSDOF 6
ENDMDL
MODEL 4
REMARK VINA RESULT:      -8.2      3.735      7.940
REMARK  6 active torsions:
REMARK  status: ('A' for Active; 'I' for Inactive)
REMARK    1  A    between atoms: O_2  and  C_3 
REMARK    2  A    between atoms: C_6  and  C_7 
REMARK    3  A    between atoms: C_7  and  N_8 
REMARK       I    between atoms: N_8  and  C_9 
REMARK    4  A    between atoms: C_9  and  C_10 
REMARK    5  A    between atoms: C_13  and  C_14 
REMARK    6  A    between atoms: C_19  and  C_20 
ROOT
HETATM    1  C   UNL     1      41.634 -13.460   1.646  1.00  0.00     0.096 A 
HETATM    2  C   UNL     1      41.641 -13.665   0.278  1.00  0.00     0.138 A 
HETATM    3  N   UNL     1      41.640 -12.409  -0.289  1.00  0.00    -0.240 N 
HETATM    4  C   UNL     1      41.689 -12.160  -1.719  1.00  0.00     0.221 C 
HETATM    5  C   UNL     1      42.268 -13.393  -2.438  1.00  0.00     0.066 C 
HETATM    6  C   UNL     1      41.593 -14.687  -1.964  1.00  0.00     0.118 C 
HETATM    7  N   UNL     1      41.680 -14.774  -0.506  1.00  0.00    -0.365 N 
HETATM    8  N   UNL     1      41.551 -11.415   0.605  1.00  0.00    -0.181 NA
HETATM    9  C   UNL     1      41.598 -12.050   1.778  1.00  0.00     0.160 A 
HETATM   10  H   UNL     1      41.905 -15.695  -0.137  1.00  0.00     0.161 HD
ENDROOT
BRANCH   1  11
HETATM   11  C   UNL     1      41.674 -14.412   2.739  1.00  0.00     0.257 C 
HETATM   12  N   UNL     1      42.898 -15.002   2.955  1.00  0.00    -0.352 N 
HETATM   13  H   UNL     1      43.597 -14.912   2.230  1.00  0.00     0.163 HD
HETATM   14  O   UNL     1      40.674 -14.682   3.396  1.00  0.00    -0.267 OA
BRANCH  12  15
HETATM   15  C   UNL     1      43.113 -15.952   4.019  1.00  0.00     0.161 C 
BRANCH  15  16
HETATM   16  C   UNL     1      43.495 -17.315   3.505  1.00  0.00    -0.040 A 
HETATM   17  C   UNL     1      43.996 -18.293   4.376  1.00  0.00     0.011 A 
HETATM   18  C   UNL     1      44.285 -19.583   3.915  1.00  0.00     0.037 A 
HETATM   19  C   UNL     1      44.075 -19.913   2.577  1.00  0.00     0.068 A 
HETATM   20  C   UNL     1      43.603 -18.936   1.699  1.00  0.00     0.037 A 
HETATM   21  C   UNL     1      43.307 -17.649   2.158  1.00  0.00     0.011 A 
BRANCH  19  22
HETATM   22  O   UNL     1      44.300 -21.138   2.013  1.00  0.00    -0.356 OA
HETATM   23  C   UNL     1      44.425 -22.233   2.913  1.00  0.00     0.210 C 
ENDBRANCH  19  22
ENDBRANCH  15  16
ENDBRANCH  12  15
ENDBRANCH   1  11
BRANCH   4  24
HETATM   24  C   UNL     1      42.523 -10.944  -2.067  1.00  0.00     0.409 C 
HETATM   25  F   UNL     1      41.906  -9.783  -1.750  1.00  0.00    -0.169 F 
HETATM   26  F   UNL     1      43.680 -10.970  -1.346  1.00  0.00    -0.169 F 
HETATM   27  F   UNL     1      42.897 -10.893  -3.361  1.00  0.00    -0.169 F 
ENDBRANCH   4  24
BRANCH   6  28
HETATM   28  C   UNL     1      40.169 -14.833  -2.485  1.00  0.00    -0.035 A 
HETATM   29  C   UNL     1      39.914 -15.745  -3.527  1.00  0.00     0.009 A 
HETATM   30  C   UNL     1      38.631 -15.892  -4.058  1.00  0.00     0.001 A 
HETATM   31  C   UNL     1      37.577 -15.138  -3.554  1.00  0.00     0.000 A 
HETATM   32  C   UNL     1      37.804 -14.238  -2.516  1.00  0.00     0.001 A 
HETATM   33  C   UNL     1      39.089 -14.086  -1.987  1.00  0.00     0.009 A 
ENDBRANCH   6  28
TORSDOF 6
ENDMDL
MODEL 5
REMARK VINA RESULT:      -8.1      6.560      9.933
REMARK  6 active torsions:
REMARK  status: ('A' for Active; 'I' for Inactive)
REMARK    1  A    between atoms: O_2  and  C_3 
REMARK    2  A    between atoms: C_6  and  C_7 
REMARK    3  A    between atoms: C_7  and  N_8 
REMARK       I    between atoms: N_8  and  C_9 
REMARK    4  A    between atoms: C_9  and  C_10 
REMARK    5  A    between atoms: C_13  and  C_14 
REMARK    6  A    between atoms: C_19  and  C_20 
ROOT
HETATM    1  C   UNL     1      42.729 -10.843   8.999  1.00  0.00     0.096 A 
HETATM    2  C   UNL     1      41.965 -10.899  10.151  1.00  0.00     0.138 A 
HETATM    3  N   UNL     1      40.952  -9.982   9.974  1.00  0.00    -0.240 N 
HETATM    4  C   UNL     1      39.888  -9.746  10.933  1.00  0.00     0.221 C 
HETATM    5  C   UNL     1      39.742 -10.971  11.854  1.00  0.00     0.066 C 
HETATM    6  C   UNL     1      41.103 -11.429  12.398  1.00  0.00     0.118 C 
HETATM    7  N   UNL     1      42.022 -11.650  11.282  1.00  0.00    -0.365 N 
HETATM    8  N   UNL     1      41.052  -9.283   8.834  1.00  0.00    -0.181 NA
HETATM    9  C   UNL     1      42.099  -9.840   8.223  1.00  0.00     0.160 A 
HETATM   10  H   UNL     1      42.608 -12.479  11.357  1.00  0.00     0.161 HD
ENDROOT
BRANCH   1  11
HETATM   11  C   UNL     1      43.895 -11.611   8.608  1.00  0.00     0.257 C 
HETATM   12  N   UNL     1      43.629 -12.735   7.860  1.00  0.00    -0.352 N 
HETATM   13  H   UNL     1      42.674 -13.064   7.829  1.00  0.00     0.163 HD
HETATM   14  O   UNL     1      45.027 -11.285   8.948  1.00  0.00    -0.267 OA
BRANCH  12  15
HETATM   15  C   UNL     1      44.679 -13.594   7.368  1.00  0.00     0.161 C 
BRANCH  15  16
HETATM   16  C   UNL     1      44.152 -14.712   6.506  1.00  0.00    -0.040 A 
HETATM   17  C   UNL     1      43.517 -14.436   5.288  1.00  0.00     0.011 A 
HETATM   18  C   UNL     1      43.089 -15.475   4.452  1.00  0.00     0.037 A 
HETATM   19  C   UNL     1      43.293 -16.803   4.823  1.00  0.00     0.068 A 
HETATM   20  C   UNL     1      43.899 -17.084   6.049  1.00  0.00     0.037 A 
HETATM   21  C   UNL     1      44.333 -16.049   6.882  1.00  0.00     0.011 A 
BRANCH  19  22
HETATM   22  O   UNL     1      42.939 -17.900   4.087  1.00  0.00    -0.356 OA
HETATM   23  C   UNL     1      43.996 -18.579   3.419  1.00  0.00     0.210 C 
ENDBRANCH  19  22
ENDBRANCH  15  16
ENDBRANCH  12  15
ENDBRANCH   1  11
BRANCH   4  24
HETATM   24  C   UNL     1      38.557  -9.466  10.266  1.00  0.00     0.409 C 
HETATM   25  F   UNL     1      38.233 -10.399   9.341  1.00  0.00    -0.169 F 
HETATM   26  F   UNL     1      37.566  -9.499  11.202  1.00  0.00    -0.169 F 
HETATM   27  F   UNL     1      38.481  -8.249   9.692  1.00  0.00    -0.169 F 
ENDBRANCH   4  24
BRANCH   6  28
HETATM   28  C   UNL     1      41.663 -10.482  13.452  1.00  0.00    -0.035 A 
HETATM   29  C   UNL     1      42.895  -9.844  13.212  1.00  0.00     0.009 A 
HETATM   30  C   UNL     1      43.463  -8.992  14.161  1.00  0.00     0.001 A 
HETATM   31  C   UNL     1      42.807  -8.753  15.364  1.00  0.00     0.000 A 
HETATM   32  C   UNL     1      41.582  -9.364  15.618  1.00  0.00     0.001 A 
HETATM   33  C   UNL     1      41.016 -10.221  14.671  1.00  0.00     0.009 A 
ENDBRANCH   6  28
TORSDOF 6
ENDMDL
MODEL 6
REMARK VINA RESULT:      -8.1      2.184      3.684
REMARK  6 active torsions:
REMARK  status: ('A' for Active; 'I' for Inactive)
REMARK    1  A    between atoms: O_2  and  C_3 
REMARK    2  A    between atoms: C_6  and  C_7 
REMARK    3  A    between atoms: C_7  and  N_8 
REMARK       I    between atoms: N_8  and  C_9 
REMARK    4  A    between atoms: C_9  and  C_10 
REMARK    5  A    between atoms: C_13  and  C_14 
REMARK    6  A    between atoms: C_19  and  C_20 
ROOT
HETATM    1  C   UNL     1      41.891 -14.406   2.608  1.00  0.00     0.096 A 
HETATM    2  C   UNL     1      42.121 -15.394   3.548  1.00  0.00     0.138 A 
HETATM    3  N   UNL     1      43.159 -14.934   4.329  1.00  0.00    -0.240 N 
HETATM    4  C   UNL     1      43.697 -15.648   5.474  1.00  0.00     0.221 C 
HETATM    5  C   UNL     1      42.651 -16.652   5.994  1.00  0.00     0.066 C 
HETATM    6  C   UNL     1      42.056 -17.485   4.850  1.00  0.00     0.118 C 
HETATM    7  N   UNL     1      41.535 -16.590   3.818  1.00  0.00    -0.365 N 
HETATM    8  N   UNL     1      43.667 -13.765   3.916  1.00  0.00    -0.181 NA
HETATM    9  C   UNL     1      42.867 -13.422   2.904  1.00  0.00     0.160 A 
HETATM   10  H   UNL     1      40.639 -16.860   3.418  1.00  0.00     0.161 HD
ENDROOT
BRANCH   1  11
HETATM   11  C   UNL     1      40.895 -14.322   1.558  1.00  0.00     0.257 C 
HETATM   12  N   UNL     1      39.594 -14.224   1.994  1.00  0.00    -0.352 N 
HETATM   13  H   UNL     1      39.406 -14.439   2.964  1.00  0.00     0.163 HD
HETATM   14  O   UNL     1      41.203 -14.364   0.372  1.00  0.00    -0.267 OA
BRANCH  12  15
HETATM   15  C   UNL     1      38.486 -14.106   1.077  1.00  0.00     0.161 C 
BRANCH  15  16
HETATM   16  C   UNL     1      37.780 -12.780   1.195  1.00  0.00    -0.040 A 
HETATM   17  C   UNL     1      36.634 -12.511   0.436  1.00  0.00     0.011 A 
HETATM   18  C   UNL     1      35.935 -11.307   0.594  1.00  0.00     0.037 A 
HETATM   19  C   UNL     1      36.374 -10.357   1.516  1.00  0.00     0.068 A 
HETATM   20  C   UNL     1      37.532 -10.608   2.254  1.00  0.00     0.037 A 
HETATM   21  C   UNL     1      38.227 -11.811   2.103  1.00  0.00     0.011 A 
BRANCH  19  22
HETATM   22  O   UNL     1      35.771  -9.158   1.774  1.00  0.00    -0.356 OA
HETATM   23  C   UNL     1      34.410  -9.213   2.186  1.00  0.00     0.210 C 
ENDBRANCH  19  22
ENDBRANCH  15  16
ENDBRANCH  12  15
ENDBRANCH   1  11
BRANCH   4  24
HETATM   24  C   UNL     1      44.097 -14.719   6.602  1.00  0.00     0.409 C 
HETATM   25  F   UNL     1      43.276 -13.649   6.708  1.00  0.00    -0.169 F 
HETATM   26  F   UNL     1      44.008 -15.385   7.788  1.00  0.00    -0.169 F 
HETATM   27  F   UNL     1      45.368 -14.279   6.520  1.00  0.00    -0.169 F 
ENDBRANCH   4  24
BRANCH   6  28
HETATM   28  C   UNL     1      43.034 -18.518   4.305  1.00  0.00    -0.035 A 
HETATM   29  C   UNL     1      43.072 -18.756   2.918  1.00  0.00     0.009 A 
HETATM   30  C   UNL     1      43.931 -19.714   2.373  1.00  0.00     0.001 A 
HETATM   31  C   UNL     1      44.774 -20.445   3.203  1.00  0.00     0.000 A 
HETATM   32  C   UNL     1      44.760 -20.219   4.577  1.00  0.00     0.001 A 
HETATM   33  C   UNL     1      43.899 -19.264   5.122  1.00  0.00     0.009 A 
ENDBRANCH   6  28
TORSDOF 6
ENDMDL
MODEL 7
REMARK VINA RESULT:      -8.1      4.490      7.648
REMARK  6 active torsions:
REMARK  status: ('A' for Active; 'I' for Inactive)
REMARK    1  A    between atoms: O_2  and  C_3 
REMARK    2  A    between atoms: C_6  and  C_7 
REMARK    3  A    between atoms: C_7  and  N_8 
REMARK       I    between atoms: N_8  and  C_9 
REMARK    4  A    between atoms: C_9  and  C_10 
REMARK    5  A    between atoms: C_13  and  C_14 
REMARK    6  A    between atoms: C_19  and  C_20 
ROOT
HETATM    1  C   UNL     1      42.930 -13.988   6.116  1.00  0.00     0.096 A 
HETATM    2  C   UNL     1      42.621 -15.268   5.691  1.00  0.00     0.138 A 
HETATM    3  N   UNL     1      43.552 -16.094   6.282  1.00  0.00    -0.240 N 
HETATM    4  C   UNL     1      43.569 -17.540   6.137  1.00  0.00     0.221 C 
HETATM    5  C   UNL     1      42.171 -18.032   5.719  1.00  0.00     0.066 C 
HETATM    6  C   UNL     1      41.611 -17.206   4.553  1.00  0.00     0.118 C 
HETATM    7  N   UNL     1      41.642 -15.786   4.905  1.00  0.00    -0.365 N 
HETATM    8  N   UNL     1      44.483 -15.439   6.989  1.00  0.00    -0.181 NA
HETATM    9  C   UNL     1      44.077 -14.169   6.929  1.00  0.00     0.160 A 
HETATM   10  H   UNL     1      40.819 -15.252   4.636  1.00  0.00     0.161 HD
ENDROOT
BRANCH   1  11
HETATM   11  C   UNL     1      42.271 -12.725   5.850  1.00  0.00     0.257 C 
HETATM   12  N   UNL     1      41.996 -11.964   6.962  1.00  0.00    -0.352 N 
HETATM   13  H   UNL     1      42.059 -12.413   7.866  1.00  0.00     0.163 HD
HETATM   14  O   UNL     1      41.962 -12.386   4.712  1.00  0.00    -0.267 OA
BRANCH  12  15
HETATM   15  C   UNL     1      41.367 -10.669   6.868  1.00  0.00     0.161 C 
BRANCH  15  16
HETATM   16  C   UNL     1      40.797 -10.209   8.184  1.00  0.00    -0.040 A 
HETATM   17  C   UNL     1      39.445  -9.860   8.294  1.00  0.00     0.011 A 
HETATM   18  C   UNL     1      38.896  -9.499   9.531  1.00  0.00     0.037 A 
HETATM   19  C   UNL     1      39.693  -9.485  10.675  1.00  0.00     0.068 A 
HETATM   20  C   UNL     1      41.047  -9.804  10.566  1.00  0.00     0.037 A 
HETATM   21  C   UNL     1      41.596 -10.171   9.335  1.00  0.00     0.011 A 
BRANCH  19  22
HETATM   22  O   UNL     1      39.271  -9.171  11.937  1.00  0.00    -0.356 OA
HETATM   23  C   UNL     1      37.863  -9.141  12.143  1.00  0.00     0.210 C 
ENDBRANCH  19  22
ENDBRANCH  15  16
ENDBRANCH  12  15
ENDBRANCH   1  11
BRANCH   4  24
HETATM   24  C   UNL     1      43.983 -18.245   7.412  1.00  0.00     0.409 C 
HETATM   25  F   UNL     1      43.557 -19.528   7.458  1.00  0.00    -0.169 F 
HETATM   26  F   UNL     1      45.344 -18.295   7.478  1.00  0.00    -0.169 F 
HETATM   27  F   UNL     1      43.582 -17.619   8.536  1.00  0.00    -0.169 F 
ENDBRANCH   4  24
BRANCH   6  28
HETATM   28  C   UNL     1      42.306 -17.508   3.232  1.00  0.00    -0.035 A 
HETATM   29  C   UNL     1      42.942 -18.753   3.064  1.00  0.00     0.009 A 
HETATM   30  C   UNL     1      43.618 -19.064   1.882  1.00  0.00     0.001 A 
HETATM   31  C   UNL     1      43.664 -18.141   0.842  1.00  0.00     0.000 A 
HETATM   32  C   UNL     1      43.033 -16.908   0.982  1.00  0.00     0.001 A 
HETATM   33  C   UNL     1      42.360 -16.594   2.166  1.00  0.00     0.009 A 
ENDBRANCH   6  28
TORSDOF 6
ENDMDL
MODEL 8
REMARK VINA RESULT:      -8.0      1.443      2.041
REMARK  6 active torsions:
REMARK  status: ('A' for Active; 'I' for Inactive)
REMARK    1  A    between atoms: O_2  and  C_3 
REMARK    2  A    between atoms: C_6  and  C_7 
REMARK    3  A    between atoms: C_7  and  N_8 
REMARK       I    between atoms: N_8  and  C_9 
REMARK    4  A    between atoms: C_9  and  C_10 
REMARK    5  A    between atoms: C_13  and  C_14 
REMARK    6  A    between atoms: C_19  and  C_20 
ROOT
HETATM    1  C   UNL     1      40.747 -14.600   2.971  1.00  0.00     0.096 A 
HETATM    2  C   UNL     1      41.339 -15.526   3.810  1.00  0.00     0.138 A 
HETATM    3  N   UNL     1      42.458 -14.907   4.324  1.00  0.00    -0.240 N 
HETATM    4  C   UNL     1      43.355 -15.514   5.291  1.00  0.00     0.221 C 
HETATM    5  C   UNL     1      42.623 -16.649   6.032  1.00  0.00     0.066 C 
HETATM    6  C   UNL     1      41.896 -17.580   5.053  1.00  0.00     0.118 C 
HETATM    7  N   UNL     1      41.015 -16.789   4.193  1.00  0.00    -0.365 N 
HETATM    8  N   UNL     1      42.675 -13.684   3.820  1.00  0.00    -0.181 NA
HETATM    9  C   UNL     1      41.613 -13.480   3.038  1.00  0.00     0.160 A 
HETATM   10  H   UNL     1      40.099 -17.194   4.018  1.00  0.00     0.161 HD
ENDROOT
BRANCH   1  11
HETATM   11  C   UNL     1      39.525 -14.681   2.195  1.00  0.00     0.257 C 
HETATM   12  N   UNL     1      38.994 -13.470   1.815  1.00  0.00    -0.352 N 
HETATM   13  H   UNL     1      39.342 -12.639   2.273  1.00  0.00     0.163 HD
HETATM   14  O   UNL     1      39.001 -15.757   1.927  1.00  0.00    -0.267 OA
BRANCH  12  15
HETATM   15  C   UNL     1      37.795 -13.377   1.017  1.00  0.00     0.161 C 
BRANCH  15  16
HETATM   16  C   UNL     1      38.067 -12.854  -0.370  1.00  0.00    -0.040 A 
HETATM   17  C   UNL     1      38.458 -11.523  -0.567  1.00  0.00     0.011 A 
HETATM   18  C   UNL     1      38.779 -11.052  -1.847  1.00  0.00     0.037 A 
HETATM   19  C   UNL     1      38.716 -11.909  -2.945  1.00  0.00     0.068 A 
HETATM   20  C   UNL     1      38.299 -13.228  -2.759  1.00  0.00     0.037 A 
HETATM   21  C   UNL     1      37.985 -13.702  -1.482  1.00  0.00     0.011 A 
BRANCH  19  22
HETATM   22  O   UNL     1      39.021 -11.575  -4.235  1.00  0.00    -0.356 OA
HETATM   23  C   UNL     1      40.303 -10.996  -4.450  1.00  0.00     0.210 C 
ENDBRANCH  19  22
ENDBRANCH  15  16
ENDBRANCH  12  15
ENDBRANCH   1  11
BRANCH   4  24
HETATM   24  C   UNL     1      43.877 -14.515   6.304  1.00  0.00     0.409 C 
HETATM   25  F   UNL     1      44.958 -13.837   5.855  1.00  0.00    -0.169 F 
HETATM   26  F   UNL     1      42.917 -13.579   6.550  1.00  0.00    -0.169 F 
HETATM   27  F   UNL     1      44.177 -15.059   7.500  1.00  0.00    -0.169 F 
ENDBRANCH   4  24
BRANCH   6  28
HETATM   28  C   UNL     1      42.852 -18.470   4.269  1.00  0.00    -0.035 A 
HETATM   29  C   UNL     1      42.720 -18.547   2.869  1.00  0.00     0.009 A 
HETATM   30  C   UNL     1      43.553 -19.372   2.110  1.00  0.00     0.001 A 
HETATM   31  C   UNL     1      44.539 -20.129   2.734  1.00  0.00     0.000 A 
HETATM   32  C   UNL     1      44.694 -20.060   4.116  1.00  0.00     0.001 A 
HETATM   33  C   UNL     1      43.858 -19.239   4.876  1.00  0.00     0.009 A 
ENDBRANCH   6  28
TORSDOF 6
ENDMDL
MODEL 9
REMARK VINA RESULT:      -8.0      5.271      9.456
REMARK  6 active torsions:
REMARK  status: ('A' for Active; 'I' for Inactive)
REMARK    1  A    between atoms: O_2  and  C_3 
REMARK    2  A    between atoms: C_6  and  C_7 
REMARK    3  A    between atoms: C_7  and  N_8 
REMARK       I    between atoms: N_8  and  C_9 
REMARK    4  A    between atoms: C_9  and  C_10 
REMARK    5  A    between atoms: C_13  and  C_14 
REMARK    6  A    between atoms: C_19  and  C_20 
ROOT
HETATM    1  C   UNL     1      41.687 -11.913   6.665  1.00  0.00     0.096 A 
HETATM    2  C   UNL     1      42.209 -12.991   5.972  1.00  0.00     0.138 A 
HETATM    3  N   UNL     1      41.166 -13.499   5.229  1.00  0.00    -0.240 N 
HETATM    4  C   UNL     1      41.287 -14.622   4.314  1.00  0.00     0.221 C 
HETATM    5  C   UNL     1      42.761 -14.793   3.899  1.00  0.00     0.066 C 
HETATM    6  C   UNL     1      43.693 -14.763   5.118  1.00  0.00     0.118 C 
HETATM    7  N   UNL     1      43.447 -13.544   5.889  1.00  0.00    -0.365 N 
HETATM    8  N   UNL     1      39.997 -12.884   5.450  1.00  0.00    -0.181 NA
HETATM    9  C   UNL     1      40.323 -11.892   6.281  1.00  0.00     0.160 A 
HETATM   10  H   UNL     1      44.279 -13.074   6.238  1.00  0.00     0.161 HD
ENDROOT
BRANCH   1  11
HETATM   11  C   UNL     1      42.329 -10.976   7.566  1.00  0.00     0.257 C 
HETATM   12  N   UNL     1      43.102 -11.549   8.549  1.00  0.00    -0.352 N 
HETATM   13  H   UNL     1      42.993 -12.540   8.715  1.00  0.00     0.163 HD
HETATM   14  O   UNL     1      42.165  -9.765   7.463  1.00  0.00    -0.267 OA
BRANCH  12  15
HETATM   15  C   UNL     1      43.830 -10.756   9.511  1.00  0.00     0.161 C 
BRANCH  15  16
HETATM   16  C   UNL     1      43.106 -10.640  10.827  1.00  0.00    -0.040 A 
HETATM   17  C   UNL     1      41.775 -11.060  10.950  1.00  0.00     0.011 A 
HETATM   18  C   UNL     1      41.122 -11.019  12.188  1.00  0.00     0.037 A 
HETATM   19  C   UNL     1      41.793 -10.560  13.320  1.00  0.00     0.068 A 
HETATM   20  C   UNL     1      43.110 -10.113  13.198  1.00  0.00     0.037 A 
HETATM   21  C   UNL     1      43.766 -10.159  11.965  1.00  0.00     0.011 A 
BRANCH  19  22
HETATM   22  O   UNL     1      41.273 -10.490  14.583  1.00  0.00    -0.356 OA
HETATM   23  C   UNL     1      41.902  -9.577  15.474  1.00  0.00     0.210 C 
ENDBRANCH  19  22
ENDBRANCH  15  16
ENDBRANCH  12  15
ENDBRANCH   1  11
BRANCH   4  24
HETATM   24  C   UNL     1      40.438 -14.450   3.071  1.00  0.00     0.409 C 
HETATM   25  F   UNL     1      40.539 -13.211   2.540  1.00  0.00    -0.169 F 
HETATM   26  F   UNL     1      40.870 -15.313   2.108  1.00  0.00    -0.169 F 
HETATM   27  F   UNL     1      39.134 -14.732   3.260  1.00  0.00    -0.169 F 
ENDBRANCH   4  24
BRANCH   6  28
HETATM   28  C   UNL     1      43.600 -16.029   5.960  1.00  0.00    -0.035 A 
HETATM   29  C   UNL     1      43.558 -17.278   5.311  1.00  0.00     0.009 A 
HETATM   30  C   UNL     1      43.443 -18.465   6.039  1.00  0.00     0.001 A 
HETATM   31  C   UNL     1      43.376 -18.427   7.428  1.00  0.00     0.000 A 
HETATM   32  C   UNL     1      43.427 -17.204   8.090  1.00  0.00     0.001 A 
HETATM   33  C   UNL     1      43.537 -16.016   7.363  1.00  0.00     0.009 A 
ENDBRANCH   6  28
TORSDOF 6
ENDMDL
MODEL 10
REMARK VINA RESULT:      -7.8      4.785      8.909
REMARK  6 active torsions:
REMARK  status: ('A' for Active; 'I' for Inactive)
REMARK    1  A    between atoms: O_2  and  C_3 
REMARK    2  A    between atoms: C_6  and  C_7 
REMARK    3  A    between atoms: C_7  and  N_8 
REMARK       I    between atoms: N_8  and  C_9 
REMARK    4  A    between atoms: C_9  and  C_10 
REMARK    5  A    between atoms: C_13  and  C_14 
REMARK    6  A    between atoms: C_19  and  C_20 
ROOT
HETATM    1  C   UNL     1      43.112 -13.628   6.570  1.00  0.00     0.096 A 
HETATM    2  C   UNL     1      42.584 -14.737   5.932  1.00  0.00     0.138 A 
HETATM    3  N   UNL     1      43.578 -15.691   5.955  1.00  0.00    -0.240 N 
HETATM    4  C   UNL     1      43.430 -17.036   5.426  1.00  0.00     0.221 C 
HETATM    5  C   UNL     1      41.936 -17.398   5.348  1.00  0.00     0.066 C 
HETATM    6  C   UNL     1      41.121 -16.279   4.686  1.00  0.00     0.118 C 
HETATM    7  N   UNL     1      41.374 -15.017   5.381  1.00  0.00    -0.365 N 
HETATM    8  N   UNL     1      44.729 -15.257   6.486  1.00  0.00    -0.181 NA
HETATM    9  C   UNL     1      44.431 -14.024   6.902  1.00  0.00     0.160 A 
HETATM   10  H   UNL     1      40.555 -14.434   5.539  1.00  0.00     0.161 HD
ENDROOT
BRANCH   1  11
HETATM   11  C   UNL     1      42.509 -12.346   6.876  1.00  0.00     0.257 C 
HETATM   12  N   UNL     1      42.867 -11.808   8.090  1.00  0.00    -0.352 N 
HETATM   13  H   UNL     1      43.320 -12.416   8.758  1.00  0.00     0.163 HD
HETATM   14  O   UNL     1      41.720 -11.804   6.109  1.00  0.00    -0.267 OA
BRANCH  12  15
HETATM   15  C   UNL     1      42.376 -10.526   8.534  1.00  0.00     0.161 C 
BRANCH  15  16
HETATM   16  C   UNL     1      42.466 -10.361  10.029  1.00  0.00    -0.040 A 
HETATM   17  C   UNL     1      41.309 -10.370  10.819  1.00  0.00     0.011 A 
HETATM   18  C   UNL     1      41.393 -10.288  12.215  1.00  0.00     0.037 A 
HETATM   19  C   UNL     1      42.637 -10.199  12.839  1.00  0.00     0.068 A 
HETATM   20  C   UNL     1      43.791 -10.161  12.055  1.00  0.00     0.037 A 
HETATM   21  C   UNL     1      43.711 -10.249  10.663  1.00  0.00     0.011 A 
BRANCH  19  22
HETATM   22  O   UNL     1      42.850 -10.133  14.188  1.00  0.00    -0.356 OA
HETATM   23  C   UNL     1      41.699  -9.921  14.998  1.00  0.00     0.210 C 
ENDBRANCH  19  22
ENDBRANCH  15  16
ENDBRANCH  12  15
ENDBRANCH   1  11
BRANCH   4  24
HETATM   24  C   UNL     1      44.150 -18.071   6.266  1.00  0.00     0.409 C 
HETATM   25  F   UNL     1      45.489 -18.052   6.079  1.00  0.00    -0.169 F 
HETATM   26  F   UNL     1      43.946 -17.802   7.587  1.00  0.00    -0.169 F 
HETATM   27  F   UNL     1      43.708 -19.330   6.074  1.00  0.00    -0.169 F 
ENDBRANCH   4  24
BRANCH   6  28
HETATM   28  C   UNL     1      41.358 -16.189   3.184  1.00  0.00    -0.035 A 
HETATM   29  C   UNL     1      41.277 -17.362   2.409  1.00  0.00     0.009 A 
HETATM   30  C   UNL     1      41.516 -17.335   1.033  1.00  0.00     0.001 A 
HETATM   31  C   UNL     1      41.832 -16.135   0.404  1.00  0.00     0.000 A 
HETATM   32  C   UNL     1      41.907 -14.962   1.149  1.00  0.00     0.001 A 
HETATM   33  C   UNL     1      41.672 -14.989   2.526  1.00  0.00     0.009 A 
ENDBRANCH   6  28
TORSDOF 6
ENDMDL
