MODEL 1
REMARK VINA RESULT:      -9.0      0.000      0.000
REMARK  3 active torsions:
REMARK  status: ('A' for Active; 'I' for Inactive)
REMARK    1  A    between atoms: C_6  and  C_7 
REMARK    2  A    between atoms: C_14  and  N_15 
REMARK    3  A    between atoms: N_15  and  C_16 
ROOT
HETATM    1  C   UNL     1      41.932 -13.198   5.543  1.00  0.00     0.001 A 
HETATM    2  C   UNL     1      41.229 -14.015   4.660  1.00  0.00     0.018 A 
HETATM    3  C   UNL     1      41.730 -15.291   4.293  1.00  0.00     0.039 A 
HETATM    4  C   UNL     1      42.953 -15.727   4.815  1.00  0.00     0.073 A 
HETATM    5  N   UNL     1      43.494 -16.909   4.504  1.00  0.00    -0.228 NA
HETATM    6  C   UNL     1      42.823 -17.692   3.647  1.00  0.00     0.164 A 
HETATM    7  N   UNL     1      41.648 -17.371   3.087  1.00  0.00    -0.210 NA
HETATM    8  C   UNL     1      41.101 -16.186   3.410  1.00  0.00     0.143 A 
HETATM    9  C   UNL     1      43.635 -14.895   5.694  1.00  0.00     0.032 A 
HETATM   10  C   UNL     1      43.140 -13.642   6.064  1.00  0.00     0.002 A 
ENDROOT
BRANCH   8  11
HETATM   11  N   UNL     1      39.835 -15.843   2.861  1.00  0.00    -0.340 N 
HETATM   12  H   UNL     1      39.207 -16.632   2.973  1.00  0.00     0.167 HD
BRANCH  11  13
HETATM   13  C   UNL     1      39.590 -15.137   1.661  1.00  0.00     0.036 A 
HETATM   14  C   UNL     1      40.576 -15.108   0.664  1.00  0.00     0.069 A 
HETATM   15  C   UNL     1      40.337 -14.468  -0.555  1.00  0.00     0.104 A 
HETATM   16  C   UNL     1      39.109 -13.849  -0.795  1.00  0.00     0.102 A 
HETATM   17  O   UNL     1      41.362 -14.485  -1.469  1.00  0.00    -0.346 OA
HETATM   18  O   UNL     1      38.817 -13.178  -1.955  1.00  0.00    -0.346 OA
HETATM   19  C   UNL     1      38.105 -13.911   0.164  1.00  0.00     0.042 A 
HETATM   20  C   UNL     1      40.004 -12.888  -2.699  1.00  0.00     0.202 C 
HETATM   21  C   UNL     1      40.904 -14.111  -2.773  1.00  0.00     0.202 C 
HETATM   22  C   UNL     1      38.344 -14.558   1.380  1.00  0.00     0.032 A 
ENDBRANCH  11  13
ENDBRANCH   8  11
BRANCH   6  23
HETATM   23  C   UNL     1      43.399 -19.000   3.309  1.00  0.00     0.029 A 
HETATM   24  C   UNL     1      44.275 -19.666   4.167  1.00  0.00     0.131 A 
HETATM   25  N   UNL     1      44.843 -20.878   3.924  1.00  0.00    -0.272 NA
HETATM   26  C   UNL     1      44.520 -21.472   2.757  1.00  0.00     0.116 A 
HETATM   27  C   UNL     1      43.665 -20.913   1.826  1.00  0.00     0.020 A 
HETATM   28  C   UNL     1      43.103 -19.668   2.108  1.00  0.00     0.018 A 
ENDBRANCH   6  23
TORSDOF 3
ENDMDL
MODEL 2
REMARK VINA RESULT:      -9.0      1.462      4.663
REMARK  3 active torsions:
REMARK  status: ('A' for Active; 'I' for Inactive)
REMARK    1  A    between atoms: C_6  and  C_7 
REMARK    2  A    between atoms: C_14  and  N_15 
REMARK    3  A    between atoms: N_15  and  C_16 
ROOT
HETATM    1  C   UNL     1      43.849 -21.538   1.954  1.00  0.00     0.001 A 
HETATM    2  C   UNL     1      43.152 -20.349   1.750  1.00  0.00     0.018 A 
HETATM    3  C   UNL     1      43.275 -19.269   2.661  1.00  0.00     0.039 A 
HETATM    4  C   UNL     1      44.098 -19.405   3.785  1.00  0.00     0.073 A 
HETATM    5  N   UNL     1      44.253 -18.437   4.693  1.00  0.00    -0.228 NA
HETATM    6  C   UNL     1      43.575 -17.295   4.505  1.00  0.00     0.164 A 
HETATM    7  N   UNL     1      42.759 -17.061   3.466  1.00  0.00    -0.210 NA
HETATM    8  C   UNL     1      42.614 -18.033   2.549  1.00  0.00     0.143 A 
HETATM    9  C   UNL     1      44.783 -20.601   3.966  1.00  0.00     0.032 A 
HETATM   10  C   UNL     1      44.670 -21.663   3.065  1.00  0.00     0.002 A 
ENDROOT
BRANCH   8  11
HETATM   11  N   UNL     1      41.788 -17.790   1.417  1.00  0.00    -0.340 N 
HETATM   12  H   UNL     1      42.231 -18.191   0.598  1.00  0.00     0.167 HD
BRANCH  11  13
HETATM   13  C   UNL     1      41.090 -16.599   1.112  1.00  0.00     0.036 A 
HETATM   14  C   UNL     1      41.395 -15.903  -0.067  1.00  0.00     0.069 A 
HETATM   15  C   UNL     1      40.681 -14.757  -0.423  1.00  0.00     0.104 A 
HETATM   16  C   UNL     1      39.650 -14.289   0.396  1.00  0.00     0.102 A 
HETATM   17  O   UNL     1      41.052 -14.138  -1.591  1.00  0.00    -0.346 OA
HETATM   18  O   UNL     1      38.927 -13.156   0.124  1.00  0.00    -0.346 OA
HETATM   19  C   UNL     1      39.304 -14.995   1.542  1.00  0.00     0.042 A 
HETATM   20  C   UNL     1      39.581 -12.347  -0.859  1.00  0.00     0.202 C 
HETATM   21  C   UNL     1      40.060 -13.200  -2.022  1.00  0.00     0.202 C 
HETATM   22  C   UNL     1      40.016 -16.146   1.892  1.00  0.00     0.032 A 
ENDBRANCH  11  13
ENDBRANCH   8  11
BRANCH   6  23
HETATM   23  C   UNL     1      43.748 -16.217   5.487  1.00  0.00     0.029 A 
HETATM   24  C   UNL     1      44.108 -16.474   6.810  1.00  0.00     0.131 A 
HETATM   25  N   UNL     1      44.290 -15.530   7.771  1.00  0.00    -0.272 NA
HETATM   26  C   UNL     1      44.106 -14.247   7.399  1.00  0.00     0.116 A 
HETATM   27  C   UNL     1      43.748 -13.866   6.120  1.00  0.00     0.020 A 
HETATM   28  C   UNL     1      43.568 -14.862   5.160  1.00  0.00     0.018 A 
ENDBRANCH   6  23
TORSDOF 3
ENDMDL
MODEL 3
REMARK VINA RESULT:      -8.9      1.779      2.365
REMARK  3 active torsions:
REMARK  status: ('A' for Active; 'I' for Inactive)
REMARK    1  A    between atoms: C_6  and  C_7 
REMARK    2  A    between atoms: C_14  and  N_15 
REMARK    3  A    between atoms: N_15  and  C_16 
ROOT
HETATM    1  C   UNL     1      39.731 -13.840   4.637  1.00  0.00     0.001 A 
HETATM    2  C   UNL     1      39.890 -14.436   3.388  1.00  0.00     0.018 A 
HETATM    3  C   UNL     1      40.693 -15.595   3.231  1.00  0.00     0.039 A 
HETATM    4  C   UNL     1      41.343 -16.139   4.345  1.00  0.00     0.073 A 
HETATM    5  N   UNL     1      42.126 -17.219   4.272  1.00  0.00    -0.228 NA
HETATM    6  C   UNL     1      42.289 -17.787   3.068  1.00  0.00     0.164 A 
HETATM    7  N   UNL     1      41.716 -17.347   1.938  1.00  0.00    -0.210 NA
HETATM    8  C   UNL     1      40.920 -16.266   2.017  1.00  0.00     0.143 A 
HETATM    9  C   UNL     1      41.168 -15.527   5.580  1.00  0.00     0.032 A 
HETATM   10  C   UNL     1      40.371 -14.391   5.739  1.00  0.00     0.002 A 
ENDROOT
BRANCH   8  11
HETATM   11  N   UNL     1      40.268 -15.807   0.839  1.00  0.00    -0.340 N 
HETATM   12  H   UNL     1      39.762 -16.582   0.424  1.00  0.00     0.167 HD
BRANCH  11  13
HETATM   13  C   UNL     1      40.794 -14.933  -0.140  1.00  0.00     0.036 A 
HETATM   14  C   UNL     1      41.390 -13.728   0.260  1.00  0.00     0.069 A 
HETATM   15  C   UNL     1      41.971 -12.874  -0.681  1.00  0.00     0.104 A 
HETATM   16  C   UNL     1      41.964 -13.213  -2.036  1.00  0.00     0.102 A 
HETATM   17  O   UNL     1      42.526 -11.714  -0.199  1.00  0.00    -0.346 OA
HETATM   18  O   UNL     1      42.488 -12.410  -3.016  1.00  0.00    -0.346 OA
HETATM   19  C   UNL     1      41.420 -14.426  -2.442  1.00  0.00     0.042 A 
HETATM   20  C   UNL     1      42.696 -11.077  -2.538  1.00  0.00     0.202 C 
HETATM   21  C   UNL     1      43.370 -11.095  -1.176  1.00  0.00     0.202 C 
HETATM   22  C   UNL     1      40.846 -15.282  -1.497  1.00  0.00     0.032 A 
ENDBRANCH  11  13
ENDBRANCH   8  11
BRANCH   6  23
HETATM   23  C   UNL     1      43.134 -18.985   2.976  1.00  0.00     0.029 A 
HETATM   24  C   UNL     1      44.077 -19.300   3.955  1.00  0.00     0.131 A 
HETATM   25  N   UNL     1      44.890 -20.390   3.939  1.00  0.00    -0.272 NA
HETATM   26  C   UNL     1      44.760 -21.225   2.889  1.00  0.00     0.116 A 
HETATM   27  C   UNL     1      43.863 -21.021   1.857  1.00  0.00     0.020 A 
HETATM   28  C   UNL     1      43.047 -19.891   1.905  1.00  0.00     0.018 A 
ENDBRANCH   6  23
TORSDOF 3
ENDMDL
MODEL 4
REMARK VINA RESULT:      -8.8      3.363      7.342
REMARK  3 active torsions:
REMARK  status: ('A' for Active; 'I' for Inactive)
REMARK    1  A    between atoms: C_6  and  C_7 
REMARK    2  A    between atoms: C_14  and  N_15 
REMARK    3  A    between atoms: N_15  and  C_16 
ROOT
HETATM    1  C   UNL     1      41.408 -15.210   5.745  1.00  0.00     0.001 A 
HETATM    2  C   UNL     1      42.195 -15.735   4.722  1.00  0.00     0.018 A 
HETATM    3  C   UNL     1      41.839 -15.550   3.362  1.00  0.00     0.039 A 
HETATM    4  C   UNL     1      40.674 -14.842   3.044  1.00  0.00     0.073 A 
HETATM    5  N   UNL     1      40.267 -14.641   1.788  1.00  0.00    -0.228 NA
HETATM    6  C   UNL     1      41.018 -15.154   0.802  1.00  0.00     0.164 A 
HETATM    7  N   UNL     1      42.148 -15.850   0.995  1.00  0.00    -0.210 NA
HETATM    8  C   UNL     1      42.561 -16.042   2.260  1.00  0.00     0.143 A 
HETATM    9  C   UNL     1      39.906 -14.327   4.082  1.00  0.00     0.032 A 
HETATM   10  C   UNL     1      40.260 -14.500   5.423  1.00  0.00     0.002 A 
ENDROOT
BRANCH   8  11
HETATM   11  N   UNL     1      43.779 -16.740   2.486  1.00  0.00    -0.340 N 
HETATM   12  H   UNL     1      44.493 -16.354   1.877  1.00  0.00     0.167 HD
BRANCH  11  13
HETATM   13  C   UNL     1      43.940 -18.131   2.675  1.00  0.00     0.036 A 
HETATM   14  C   UNL     1      44.301 -18.618   3.941  1.00  0.00     0.069 A 
HETATM   15  C   UNL     1      44.409 -19.992   4.171  1.00  0.00     0.104 A 
HETATM   16  C   UNL     1      44.158 -20.899   3.139  1.00  0.00     0.102 A 
HETATM   17  O   UNL     1      44.772 -20.376   5.438  1.00  0.00    -0.346 OA
HETATM   18  O   UNL     1      44.273 -22.257   3.286  1.00  0.00    -0.346 OA
HETATM   19  C   UNL     1      43.753 -20.434   1.893  1.00  0.00     0.042 A 
HETATM   20  C   UNL     1      45.010 -22.591   4.466  1.00  0.00     0.202 C 
HETATM   21  C   UNL     1      44.526 -21.771   5.650  1.00  0.00     0.202 C 
HETATM   22  C   UNL     1      43.639 -19.059   1.668  1.00  0.00     0.032 A 
ENDBRANCH  11  13
ENDBRANCH   8  11
BRANCH   6  23
HETATM   23  C   UNL     1      40.591 -14.927  -0.584  1.00  0.00     0.029 A 
HETATM   24  C   UNL     1      39.632 -13.969  -0.914  1.00  0.00     0.131 A 
HETATM   25  N   UNL     1      39.191 -13.700  -2.172  1.00  0.00    -0.272 NA
HETATM   26  C   UNL     1      39.737 -14.424  -3.170  1.00  0.00     0.116 A 
HETATM   27  C   UNL     1      40.694 -15.400  -2.970  1.00  0.00     0.020 A 
HETATM   28  C   UNL     1      41.121 -15.650  -1.666  1.00  0.00     0.018 A 
ENDBRANCH   6  23
TORSDOF 3
ENDMDL
MODEL 5
REMARK VINA RESULT:      -8.8      1.608      2.136
REMARK  3 active torsions:
REMARK  status: ('A' for Active; 'I' for Inactive)
REMARK    1  A    between atoms: C_6  and  C_7 
REMARK    2  A    between atoms: C_14  and  N_15 
REMARK    3  A    between atoms: N_15  and  C_16 
ROOT
HETATM    1  C   UNL     1      43.502 -14.023   6.004  1.00  0.00     0.001 A 
HETATM    2  C   UNL     1      43.307 -14.514   4.715  1.00  0.00     0.018 A 
HETATM    3  C   UNL     1      43.523 -15.884   4.417  1.00  0.00     0.039 A 
HETATM    4  C   UNL     1      43.951 -16.750   5.430  1.00  0.00     0.073 A 
HETATM    5  N   UNL     1      44.189 -18.048   5.221  1.00  0.00    -0.228 NA
HETATM    6  C   UNL     1      44.011 -18.521   3.978  1.00  0.00     0.164 A 
HETATM    7  N   UNL     1      43.608 -17.779   2.937  1.00  0.00    -0.210 NA
HETATM    8  C   UNL     1      43.358 -16.476   3.152  1.00  0.00     0.143 A 
HETATM    9  C   UNL     1      44.139 -16.237   6.707  1.00  0.00     0.032 A 
HETATM   10  C   UNL     1      43.918 -14.890   7.005  1.00  0.00     0.002 A 
ENDROOT
BRANCH   8  11
HETATM   11  N   UNL     1      42.888 -15.679   2.071  1.00  0.00    -0.340 N 
HETATM   12  H   UNL     1      43.538 -14.915   1.923  1.00  0.00     0.167 HD
BRANCH  11  13
HETATM   13  C   UNL     1      41.552 -15.296   1.814  1.00  0.00     0.036 A 
HETATM   14  C   UNL     1      41.288 -14.338   0.824  1.00  0.00     0.069 A 
HETATM   15  C   UNL     1      39.974 -13.985   0.508  1.00  0.00     0.104 A 
HETATM   16  C   UNL     1      38.904 -14.585   1.177  1.00  0.00     0.102 A 
HETATM   17  O   UNL     1      39.810 -13.035  -0.469  1.00  0.00    -0.346 OA
HETATM   18  O   UNL     1      37.592 -14.266   0.940  1.00  0.00    -0.346 OA
HETATM   19  C   UNL     1      39.149 -15.571   2.126  1.00  0.00     0.042 A 
HETATM   20  C   UNL     1      37.480 -13.033   0.222  1.00  0.00     0.202 C 
HETATM   21  C   UNL     1      38.458 -12.998  -0.940  1.00  0.00     0.202 C 
HETATM   22  C   UNL     1      40.465 -15.927   2.435  1.00  0.00     0.032 A 
ENDBRANCH  11  13
ENDBRANCH   8  11
BRANCH   6  23
HETATM   23  C   UNL     1      44.254 -19.949   3.739  1.00  0.00     0.029 A 
HETATM   24  C   UNL     1      44.637 -20.815   4.764  1.00  0.00     0.131 A 
HETATM   25  N   UNL     1      44.874 -22.146   4.618  1.00  0.00    -0.272 NA
HETATM   26  C   UNL     1      44.720 -22.655   3.380  1.00  0.00     0.116 A 
HETATM   27  C   UNL     1      44.346 -21.899   2.285  1.00  0.00     0.020 A 
HETATM   28  C   UNL     1      44.112 -20.537   2.470  1.00  0.00     0.018 A 
ENDBRANCH   6  23
TORSDOF 3
ENDMDL
MODEL 6
REMARK VINA RESULT:      -8.7      2.889      5.538
REMARK  3 active torsions:
REMARK  status: ('A' for Active; 'I' for Inactive)
REMARK    1  A    between atoms: C_6  and  C_7 
REMARK    2  A    between atoms: C_14  and  N_15 
REMARK    3  A    between atoms: N_15  and  C_16 
ROOT
HETATM    1  C   UNL     1      39.850 -14.327   0.117  1.00  0.00     0.001 A 
HETATM    2  C   UNL     1      39.922 -14.718   1.452  1.00  0.00     0.018 A 
HETATM    3  C   UNL     1      40.741 -15.807   1.848  1.00  0.00     0.039 A 
HETATM    4  C   UNL     1      41.476 -16.503   0.883  1.00  0.00     0.073 A 
HETATM    5  N   UNL     1      42.257 -17.547   1.178  1.00  0.00    -0.228 NA
HETATM    6  C   UNL     1      42.320 -17.931   2.462  1.00  0.00     0.164 A 
HETATM    7  N   UNL     1      41.656 -17.337   3.464  1.00  0.00    -0.210 NA
HETATM    8  C   UNL     1      40.879 -16.281   3.165  1.00  0.00     0.143 A 
HETATM    9  C   UNL     1      41.389 -16.094  -0.442  1.00  0.00     0.032 A 
HETATM   10  C   UNL     1      40.590 -15.017  -0.834  1.00  0.00     0.002 A 
ENDROOT
BRANCH   8  11
HETATM   11  N   UNL     1      40.200 -15.609   4.218  1.00  0.00    -0.340 N 
HETATM   12  H   UNL     1      39.208 -15.592   4.007  1.00  0.00     0.167 HD
BRANCH  11  13
HETATM   13  C   UNL     1      40.618 -14.439   4.891  1.00  0.00     0.036 A 
HETATM   14  C   UNL     1      39.667 -13.644   5.550  1.00  0.00     0.069 A 
HETATM   15  C   UNL     1      40.061 -12.516   6.273  1.00  0.00     0.104 A 
HETATM   16  C   UNL     1      41.411 -12.164   6.348  1.00  0.00     0.102 A 
HETATM   17  O   UNL     1      39.062 -11.796   6.880  1.00  0.00    -0.346 OA
HETATM   18  O   UNL     1      41.865 -11.055   7.013  1.00  0.00    -0.346 OA
HETATM   19  C   UNL     1      42.369 -12.968   5.741  1.00  0.00     0.042 A 
HETATM   20  C   UNL     1      40.797 -10.143   7.291  1.00  0.00     0.202 C 
HETATM   21  C   UNL     1      39.592 -10.883   7.849  1.00  0.00     0.202 C 
HETATM   22  C   UNL     1      41.973 -14.101   5.024  1.00  0.00     0.032 A 
ENDBRANCH  11  13
ENDBRANCH   8  11
BRANCH   6  23
HETATM   23  C   UNL     1      43.186 -19.066   2.804  1.00  0.00     0.029 A 
HETATM   24  C   UNL     1      43.841 -19.152   4.033  1.00  0.00     0.131 A 
HETATM   25  N   UNL     1      44.653 -20.172   4.420  1.00  0.00    -0.272 NA
HETATM   26  C   UNL     1      44.827 -21.174   3.535  1.00  0.00     0.116 A 
HETATM   27  C   UNL     1      44.234 -21.202   2.287  1.00  0.00     0.020 A 
HETATM   28  C   UNL     1      43.409 -20.138   1.923  1.00  0.00     0.018 A 
ENDBRANCH   6  23
TORSDOF 3
ENDMDL
MODEL 7
REMARK VINA RESULT:      -8.5      1.661      2.145
REMARK  3 active torsions:
REMARK  status: ('A' for Active; 'I' for Inactive)
REMARK    1  A    between atoms: C_6  and  C_7 
REMARK    2  A    between atoms: C_14  and  N_15 
REMARK    3  A    between atoms: N_15  and  C_16 
ROOT
HETATM    1  C   UNL     1      43.294 -13.814   6.407  1.00  0.00     0.001 A 
HETATM    2  C   UNL     1      42.628 -14.285   5.278  1.00  0.00     0.018 A 
HETATM    3  C   UNL     1      42.877 -15.589   4.777  1.00  0.00     0.039 A 
HETATM    4  C   UNL     1      43.813 -16.407   5.420  1.00  0.00     0.073 A 
HETATM    5  N   UNL     1      44.110 -17.639   4.998  1.00  0.00    -0.228 NA
HETATM    6  C   UNL     1      43.478 -18.091   3.905  1.00  0.00     0.164 A 
HETATM    7  N   UNL     1      42.567 -17.390   3.213  1.00  0.00    -0.210 NA
HETATM    8  C   UNL     1      42.262 -16.155   3.646  1.00  0.00     0.143 A 
HETATM    9  C   UNL     1      44.464 -15.914   6.545  1.00  0.00     0.032 A 
HETATM   10  C   UNL     1      44.215 -14.634   7.045  1.00  0.00     0.002 A 
ENDROOT
BRANCH   8  11
HETATM   11  N   UNL     1      41.268 -15.411   2.953  1.00  0.00    -0.340 N 
HETATM   12  H   UNL     1      40.363 -15.834   3.129  1.00  0.00     0.167 HD
BRANCH  11  13
HETATM   13  C   UNL     1      41.360 -14.879   1.646  1.00  0.00     0.036 A 
HETATM   14  C   UNL     1      41.892 -13.594   1.460  1.00  0.00     0.069 A 
HETATM   15  C   UNL     1      42.048 -13.068   0.176  1.00  0.00     0.104 A 
HETATM   16  C   UNL     1      41.676 -13.818  -0.942  1.00  0.00     0.102 A 
HETATM   17  O   UNL     1      42.571 -11.801   0.090  1.00  0.00    -0.346 OA
HETATM   18  O   UNL     1      41.774 -13.355  -2.228  1.00  0.00    -0.346 OA
HETATM   19  C   UNL     1      41.193 -15.111  -0.776  1.00  0.00     0.042 A 
HETATM   20  C   UNL     1      41.947 -11.934  -2.256  1.00  0.00     0.202 C 
HETATM   21  C   UNL     1      42.996 -11.502  -1.245  1.00  0.00     0.202 C 
HETATM   22  C   UNL     1      41.043 -15.638   0.510  1.00  0.00     0.032 A 
ENDBRANCH  11  13
ENDBRANCH   8  11
BRANCH   6  23
HETATM   23  C   UNL     1      43.783 -19.450   3.440  1.00  0.00     0.029 A 
HETATM   24  C   UNL     1      43.373 -19.912   2.189  1.00  0.00     0.131 A 
HETATM   25  N   UNL     1      43.621 -21.153   1.690  1.00  0.00    -0.272 NA
HETATM   26  C   UNL     1      44.325 -21.990   2.479  1.00  0.00     0.116 A 
HETATM   27  C   UNL     1      44.785 -21.649   3.736  1.00  0.00     0.020 A 
HETATM   28  C   UNL     1      44.510 -20.368   4.217  1.00  0.00     0.018 A 
ENDBRANCH   6  23
TORSDOF 3
ENDMDL
MODEL 8
REMARK VINA RESULT:      -8.4      3.216      6.874
REMARK  3 active torsions:
REMARK  status: ('A' for Active; 'I' for Inactive)
REMARK    1  A    between atoms: C_6  and  C_7 
REMARK    2  A    between atoms: C_14  and  N_15 
REMARK    3  A    between atoms: N_15  and  C_16 
ROOT
HETATM    1  C   UNL     1      43.114 -18.657   3.742  1.00  0.00     0.001 A 
HETATM    2  C   UNL     1      42.192 -17.612   3.755  1.00  0.00     0.018 A 
HETATM    3  C   UNL     1      41.827 -16.948   2.556  1.00  0.00     0.039 A 
HETATM    4  C   UNL     1      42.410 -17.341   1.346  1.00  0.00     0.073 A 
HETATM    5  N   UNL     1      42.127 -16.754   0.179  1.00  0.00    -0.228 NA
HETATM    6  C   UNL     1      41.247 -15.741   0.192  1.00  0.00     0.164 A 
HETATM    7  N   UNL     1      40.633 -15.284   1.293  1.00  0.00    -0.210 NA
HETATM    8  C   UNL     1      40.913 -15.884   2.463  1.00  0.00     0.143 A 
HETATM    9  C   UNL     1      43.326 -18.386   1.358  1.00  0.00     0.032 A 
HETATM   10  C   UNL     1      43.681 -19.047   2.536  1.00  0.00     0.002 A 
ENDROOT
BRANCH   8  11
HETATM   11  N   UNL     1      40.241 -15.444   3.637  1.00  0.00    -0.340 N 
HETATM   12  H   UNL     1      39.241 -15.518   3.487  1.00  0.00     0.167 HD
BRANCH  11  13
HETATM   13  C   UNL     1      40.575 -14.332   4.443  1.00  0.00     0.036 A 
HETATM   14  C   UNL     1      39.625 -13.818   5.338  1.00  0.00     0.069 A 
HETATM   15  C   UNL     1      39.948 -12.758   6.189  1.00  0.00     0.104 A 
HETATM   16  C   UNL     1      41.226 -12.195   6.156  1.00  0.00     0.102 A 
HETATM   17  O   UNL     1      38.954 -12.317   7.027  1.00  0.00    -0.346 OA
HETATM   18  O   UNL     1      41.603 -11.136   6.940  1.00  0.00    -0.346 OA
HETATM   19  C   UNL     1      42.193 -12.725   5.309  1.00  0.00     0.042 A 
HETATM   20  C   UNL     1      40.465 -10.471   7.497  1.00  0.00     0.202 C 
HETATM   21  C   UNL     1      39.479 -11.480   8.064  1.00  0.00     0.202 C 
HETATM   22  C   UNL     1      41.869 -13.791   4.465  1.00  0.00     0.032 A 
ENDBRANCH  11  13
ENDBRANCH   8  11
BRANCH   6  23
HETATM   23  C   UNL     1      40.914 -15.097  -1.085  1.00  0.00     0.029 A 
HETATM   24  C   UNL     1      41.027 -15.769  -2.303  1.00  0.00     0.131 A 
HETATM   25  N   UNL     1      40.733 -15.241  -3.521  1.00  0.00    -0.272 NA
HETATM   26  C   UNL     1      40.297 -13.965  -3.536  1.00  0.00     0.116 A 
HETATM   27  C   UNL     1      40.145 -13.196  -2.398  1.00  0.00     0.020 A 
HETATM   28  C   UNL     1      40.457 -13.770  -1.165  1.00  0.00     0.018 A 
ENDBRANCH   6  23
TORSDOF 3
ENDMDL
MODEL 9
REMARK VINA RESULT:      -8.3      2.301      5.326
REMARK  3 active torsions:
REMARK  status: ('A' for Active; 'I' for Inactive)
REMARK    1  A    between atoms: C_6  and  C_7 
REMARK    2  A    between atoms: C_14  and  N_15 
REMARK    3  A    between atoms: N_15  and  C_16 
ROOT
HETATM    1  C   UNL     1      43.471 -19.407   2.255  1.00  0.00     0.001 A 
HETATM    2  C   UNL     1      42.659 -18.535   1.533  1.00  0.00     0.018 A 
HETATM    3  C   UNL     1      42.038 -17.428   2.165  1.00  0.00     0.039 A 
HETATM    4  C   UNL     1      42.233 -17.217   3.535  1.00  0.00     0.073 A 
HETATM    5  N   UNL     1      41.670 -16.206   4.201  1.00  0.00    -0.228 NA
HETATM    6  C   UNL     1      40.879 -15.371   3.510  1.00  0.00     0.164 A 
HETATM    7  N   UNL     1      40.623 -15.482   2.199  1.00  0.00    -0.210 NA
HETATM    8  C   UNL     1      41.200 -16.495   1.529  1.00  0.00     0.143 A 
HETATM    9  C   UNL     1      43.048 -18.101   4.233  1.00  0.00     0.032 A 
HETATM   10  C   UNL     1      43.668 -19.187   3.611  1.00  0.00     0.002 A 
ENDROOT
BRANCH   8  11
HETATM   11  N   UNL     1      40.975 -16.607   0.129  1.00  0.00    -0.340 N 
HETATM   12  H   UNL     1      41.330 -17.504  -0.186  1.00  0.00     0.167 HD
BRANCH  11  13
HETATM   13  C   UNL     1      41.148 -15.597  -0.845  1.00  0.00     0.036 A 
HETATM   14  C   UNL     1      41.683 -14.357  -0.466  1.00  0.00     0.069 A 
HETATM   15  C   UNL     1      41.920 -13.363  -1.418  1.00  0.00     0.104 A 
HETATM   16  C   UNL     1      41.624 -13.593  -2.763  1.00  0.00     0.102 A 
HETATM   17  O   UNL     1      42.440 -12.180  -0.955  1.00  0.00    -0.346 OA
HETATM   18  O   UNL     1      41.802 -12.654  -3.746  1.00  0.00    -0.346 OA
HETATM   19  C   UNL     1      41.138 -14.833  -3.161  1.00  0.00     0.042 A 
HETATM   20  C   UNL     1      41.968 -11.346  -3.189  1.00  0.00     0.202 C 
HETATM   21  C   UNL     1      42.948 -11.378  -2.027  1.00  0.00     0.202 C 
HETATM   22  C   UNL     1      40.909 -15.829  -2.207  1.00  0.00     0.032 A 
ENDBRANCH  11  13
ENDBRANCH   8  11
BRANCH   6  23
HETATM   23  C   UNL     1      40.266 -14.245   4.227  1.00  0.00     0.029 A 
HETATM   24  C   UNL     1      39.685 -13.170   3.554  1.00  0.00     0.131 A 
HETATM   25  N   UNL     1      39.096 -12.098   4.149  1.00  0.00    -0.272 NA
HETATM   26  C   UNL     1      39.078 -12.090   5.497  1.00  0.00     0.116 A 
HETATM   27  C   UNL     1      39.620 -13.096   6.274  1.00  0.00     0.020 A 
HETATM   28  C   UNL     1      40.218 -14.179   5.630  1.00  0.00     0.018 A 
ENDBRANCH   6  23
TORSDOF 3
ENDMDL
MODEL 10
REMARK VINA RESULT:      -8.1      3.066      6.179
REMARK  3 active torsions:
REMARK  status: ('A' for Active; 'I' for Inactive)
REMARK    1  A    between atoms: C_6  and  C_7 
REMARK    2  A    between atoms: C_14  and  N_15 
REMARK    3  A    between atoms: N_15  and  C_16 
ROOT
HETATM    1  C   UNL     1      43.173 -18.608   3.898  1.00  0.00     0.001 A 
HETATM    2  C   UNL     1      42.144 -17.673   3.806  1.00  0.00     0.018 A 
HETATM    3  C   UNL     1      41.883 -16.996   2.587  1.00  0.00     0.039 A 
HETATM    4  C   UNL     1      42.677 -17.263   1.466  1.00  0.00     0.073 A 
HETATM    5  N   UNL     1      42.500 -16.655   0.290  1.00  0.00    -0.228 NA
HETATM    6  C   UNL     1      41.517 -15.748   0.202  1.00  0.00     0.164 A 
HETATM    7  N   UNL     1      40.700 -15.415   1.213  1.00  0.00    -0.210 NA
HETATM    8  C   UNL     1      40.874 -16.036   2.392  1.00  0.00     0.143 A 
HETATM    9  C   UNL     1      43.697 -18.200   1.583  1.00  0.00     0.032 A 
HETATM   10  C   UNL     1      43.951 -18.874   2.780  1.00  0.00     0.002 A 
ENDROOT
BRANCH   8  11
HETATM   11  N   UNL     1      39.993 -15.729   3.465  1.00  0.00    -0.340 N 
HETATM   12  H   UNL     1      39.103 -16.187   3.296  1.00  0.00     0.167 HD
BRANCH  11  13
HETATM   13  C   UNL     1      39.832 -14.479   4.105  1.00  0.00     0.036 A 
HETATM   14  C   UNL     1      39.396 -13.374   3.359  1.00  0.00     0.069 A 
HETATM   15  C   UNL     1      39.171 -12.142   3.978  1.00  0.00     0.104 A 
HETATM   16  C   UNL     1      39.380 -11.997   5.352  1.00  0.00     0.102 A 
HETATM   17  O   UNL     1      38.751 -11.115   3.169  1.00  0.00    -0.346 OA
HETATM   18  O   UNL     1      39.208 -10.811   6.019  1.00  0.00    -0.346 OA
HETATM   19  C   UNL     1      39.765 -13.095   6.112  1.00  0.00     0.042 A 
HETATM   20  C   UNL     1      39.154  -9.707   5.110  1.00  0.00     0.202 C 
HETATM   21  C   UNL     1      38.238 -10.022   3.939  1.00  0.00     0.202 C 
HETATM   22  C   UNL     1      39.982 -14.328   5.491  1.00  0.00     0.032 A 
ENDBRANCH  11  13
ENDBRANCH   8  11
BRANCH   6  23
HETATM   23  C   UNL     1      41.301 -15.083  -1.090  1.00  0.00     0.029 A 
HETATM   24  C   UNL     1      40.935 -15.794  -2.233  1.00  0.00     0.131 A 
HETATM   25  N   UNL     1      40.714 -15.248  -3.459  1.00  0.00    -0.272 NA
HETATM   26  C   UNL     1      40.861 -13.912  -3.560  1.00  0.00     0.116 A 
HETATM   27  C   UNL     1      41.221 -13.101  -2.501  1.00  0.00     0.020 A 
HETATM   28  C   UNL     1      41.441 -13.695  -1.258  1.00  0.00     0.018 A 
ENDBRANCH   6  23
TORSDOF 3
ENDMDL
