MODEL 1
REMARK VINA RESULT:      -7.7      0.000      0.000
REMARK  2 active torsions:
REMARK  status: ('A' for Active; 'I' for Inactive)
REMARK    1  A    between atoms: C_8  and  S_9 
REMARK    2  A    between atoms: S_9  and  C_10 
ROOT
HETATM    1  C   UNL     1      44.037 -21.895   1.981  1.00  0.00     0.002 A 
HETATM    2  C   UNL     1      43.485 -20.625   1.802  1.00  0.00     0.034 A 
HETATM    3  C   UNL     1      43.592 -19.647   2.783  1.00  0.00     0.087 A 
HETATM    4  C   UNL     1      44.282 -19.952   3.988  1.00  0.00     0.087 A 
HETATM    5  N   UNL     1      44.414 -19.040   4.973  1.00  0.00    -0.231 NA
HETATM    6  C   UNL     1      43.880 -17.819   4.763  1.00  0.00     0.167 A 
HETATM    7 CL   UNL     1      44.070 -16.750   6.085  1.00  0.00    -0.059 Cl
HETATM    8  C   UNL     1      43.218 -17.536   3.593  1.00  0.00     0.193 A 
HETATM    9  N   UNL     1      43.038 -18.431   2.579  1.00  0.00    -0.232 NA
HETATM   10  C   UNL     1      44.825 -21.219   4.153  1.00  0.00     0.034 A 
HETATM   11  C   UNL     1      44.708 -22.192   3.160  1.00  0.00     0.002 A 
ENDROOT
BRANCH   8  12
HETATM   12  S   UNL     1      42.493 -15.962   3.306  1.00  0.00     0.201 S 
HETATM   13  O   UNL     1      41.458 -15.762   4.312  1.00  0.00    -0.221 OA
HETATM   14  O   UNL     1      43.561 -15.004   3.116  1.00  0.00    -0.221 OA
BRANCH  12  15
HETATM   15  C   UNL     1      41.612 -16.089   1.752  1.00  0.00     0.141 C 
HETATM   16  C   UNL     1      40.168 -16.513   2.011  1.00  0.00     0.252 C 
HETATM   17  N   UNL     1      39.365 -15.383   2.597  1.00  0.00    -0.074 N 
HETATM   18  H   UNL     1      39.761 -15.151   3.533  1.00  0.00     0.277 HD
HETATM   19  H   UNL     1      38.401 -15.692   2.786  1.00  0.00     0.277 HD
HETATM   20  C   UNL     1      39.340 -14.143   1.769  1.00  0.00     0.232 C 
HETATM   21  C   UNL     1      40.767 -13.671   1.542  1.00  0.00     0.029 C 
HETATM   22  C   UNL     1      41.651 -14.774   0.954  1.00  0.00     0.024 C 
ENDBRANCH  12  15
ENDBRANCH   8  12
TORSDOF 2
ENDMDL
MODEL 2
REMARK VINA RESULT:      -7.6      2.499      2.603
REMARK  2 active torsions:
REMARK  status: ('A' for Active; 'I' for Inactive)
REMARK    1  A    between atoms: C_8  and  S_9 
REMARK    2  A    between atoms: S_9  and  C_10 
ROOT
HETATM    1  C   UNL     1      43.672 -20.825   1.733  1.00  0.00     0.002 A 
HETATM    2  C   UNL     1      43.280 -19.606   2.292  1.00  0.00     0.034 A 
HETATM    3  C   UNL     1      43.597 -19.280   3.604  1.00  0.00     0.087 A 
HETATM    4  C   UNL     1      44.339 -20.208   4.385  1.00  0.00     0.087 A 
HETATM    5  N   UNL     1      44.673 -19.942   5.664  1.00  0.00    -0.231 NA
HETATM    6  C   UNL     1      44.291 -18.751   6.171  1.00  0.00     0.167 A 
HETATM    7 CL   UNL     1      44.731 -18.527   7.808  1.00  0.00    -0.059 Cl
HETATM    8  C   UNL     1      43.576 -17.862   5.404  1.00  0.00     0.193 A 
HETATM    9  N   UNL     1      43.195 -18.095   4.115  1.00  0.00    -0.232 NA
HETATM   10  C   UNL     1      44.722 -21.416   3.816  1.00  0.00     0.034 A 
HETATM   11  C   UNL     1      44.394 -21.730   2.498  1.00  0.00     0.002 A 
ENDROOT
BRANCH   8  12
HETATM   12  S   UNL     1      43.045 -16.316   6.048  1.00  0.00     0.201 S 
HETATM   13  O   UNL     1      42.078 -16.585   7.105  1.00  0.00    -0.221 OA
HETATM   14  O   UNL     1      44.217 -15.501   6.282  1.00  0.00    -0.221 OA
BRANCH  12  15
HETATM   15  C   UNL     1      42.102 -15.526   4.747  1.00  0.00     0.141 C 
HETATM   16  C   UNL     1      40.610 -15.611   5.067  1.00  0.00     0.252 C 
HETATM   17  N   UNL     1      40.237 -14.666   6.176  1.00  0.00    -0.074 N 
HETATM   18  H   UNL     1      40.728 -14.971   7.045  1.00  0.00     0.277 HD
HETATM   19  H   UNL     1      39.234 -14.751   6.395  1.00  0.00     0.277 HD
HETATM   20  C   UNL     1      40.573 -13.237   5.916  1.00  0.00     0.232 C 
HETATM   21  C   UNL     1      42.065 -13.120   5.647  1.00  0.00     0.029 C 
HETATM   22  C   UNL     1      42.523 -14.062   4.531  1.00  0.00     0.024 C 
ENDBRANCH  12  15
ENDBRANCH   8  12
TORSDOF 2
ENDMDL
MODEL 3
REMARK VINA RESULT:      -7.5      1.913      2.012
REMARK  2 active torsions:
REMARK  status: ('A' for Active; 'I' for Inactive)
REMARK    1  A    between atoms: C_8  and  S_9 
REMARK    2  A    between atoms: S_9  and  C_10 
ROOT
HETATM    1  C   UNL     1      43.908 -21.717   1.847  1.00  0.00     0.002 A 
HETATM    2  C   UNL     1      43.468 -20.392   1.869  1.00  0.00     0.034 A 
HETATM    3  C   UNL     1      43.695 -19.576   2.970  1.00  0.00     0.087 A 
HETATM    4  C   UNL     1      44.395 -20.106   4.089  1.00  0.00     0.087 A 
HETATM    5  N   UNL     1      44.642 -19.357   5.183  1.00  0.00    -0.231 NA
HETATM    6  C   UNL     1      44.215 -18.077   5.169  1.00  0.00     0.167 A 
HETATM    7 CL   UNL     1      44.546 -17.226   6.614  1.00  0.00    -0.059 Cl
HETATM    8  C   UNL     1      43.543 -17.576   4.080  1.00  0.00     0.193 A 
HETATM    9  N   UNL     1      43.248 -18.300   2.961  1.00  0.00    -0.232 NA
HETATM   10  C   UNL     1      44.826 -21.425   4.052  1.00  0.00     0.034 A 
HETATM   11  C   UNL     1      44.588 -22.234   2.941  1.00  0.00     0.002 A 
ENDROOT
BRANCH   8  12
HETATM   12  S   UNL     1      42.955 -15.922   4.047  1.00  0.00     0.201 S 
HETATM   13  O   UNL     1      43.539 -15.221   5.183  1.00  0.00    -0.221 OA
HETATM   14  O   UNL     1      43.093 -15.423   2.696  1.00  0.00    -0.221 OA
BRANCH  12  15
HETATM   15  C   UNL     1      41.202 -16.003   4.404  1.00  0.00     0.141 C 
HETATM   16  C   UNL     1      40.969 -15.790   5.899  1.00  0.00     0.252 C 
HETATM   17  N   UNL     1      41.177 -14.351   6.283  1.00  0.00    -0.074 N 
HETATM   18  H   UNL     1      42.179 -14.110   6.118  1.00  0.00     0.277 HD
HETATM   19  H   UNL     1      41.039 -14.228   7.296  1.00  0.00     0.277 HD
HETATM   20  C   UNL     1      40.325 -13.379   5.541  1.00  0.00     0.232 C 
HETATM   21  C   UNL     1      40.578 -13.535   4.050  1.00  0.00     0.029 C 
HETATM   22  C   UNL     1      40.394 -14.982   3.584  1.00  0.00     0.024 C 
ENDBRANCH  12  15
ENDBRANCH   8  12
TORSDOF 2
ENDMDL
MODEL 4
REMARK VINA RESULT:      -7.5      2.322      2.780
REMARK  2 active torsions:
REMARK  status: ('A' for Active; 'I' for Inactive)
REMARK    1  A    between atoms: C_8  and  S_9 
REMARK    2  A    between atoms: S_9  and  C_10 
ROOT
HETATM    1  C   UNL     1      44.970 -22.198   4.766  1.00  0.00     0.002 A 
HETATM    2  C   UNL     1      44.687 -20.873   5.101  1.00  0.00     0.034 A 
HETATM    3  C   UNL     1      44.212 -19.976   4.153  1.00  0.00     0.087 A 
HETATM    4  C   UNL     1      44.007 -20.425   2.820  1.00  0.00     0.087 A 
HETATM    5  N   UNL     1      43.548 -19.595   1.861  1.00  0.00    -0.231 NA
HETATM    6  C   UNL     1      43.271 -18.324   2.220  1.00  0.00     0.167 A 
HETATM    7 CL   UNL     1      42.730 -17.347   0.925  1.00  0.00    -0.059 Cl
HETATM    8  C   UNL     1      43.471 -17.903   3.513  1.00  0.00     0.193 A 
HETATM    9  N   UNL     1      43.955 -18.697   4.511  1.00  0.00    -0.232 NA
HETATM   10  C   UNL     1      44.294 -21.746   2.501  1.00  0.00     0.034 A 
HETATM   11  C   UNL     1      44.773 -22.634   3.463  1.00  0.00     0.002 A 
ENDROOT
BRANCH   8  12
HETATM   12  S   UNL     1      43.142 -16.248   3.999  1.00  0.00     0.201 S 
HETATM   13  O   UNL     1      43.604 -16.090   5.373  1.00  0.00    -0.221 OA
HETATM   14  O   UNL     1      43.596 -15.371   2.942  1.00  0.00    -0.221 OA
BRANCH  12  15
HETATM   15  C   UNL     1      41.360 -16.093   4.088  1.00  0.00     0.141 C 
HETATM   16  C   UNL     1      40.909 -16.153   5.547  1.00  0.00     0.252 C 
HETATM   17  N   UNL     1      41.250 -14.881   6.274  1.00  0.00    -0.074 N 
HETATM   18  H   UNL     1      42.289 -14.789   6.305  1.00  0.00     0.277 HD
HETATM   19  H   UNL     1      40.960 -14.945   7.260  1.00  0.00     0.277 HD
HETATM   20  C   UNL     1      40.681 -13.644   5.665  1.00  0.00     0.232 C 
HETATM   21  C   UNL     1      41.160 -13.535   4.226  1.00  0.00     0.029 C 
HETATM   22  C   UNL     1      40.856 -14.802   3.422  1.00  0.00     0.024 C 
ENDBRANCH  12  15
ENDBRANCH   8  12
TORSDOF 2
ENDMDL
MODEL 5
REMARK VINA RESULT:      -7.2      2.635      3.361
REMARK  2 active torsions:
REMARK  status: ('A' for Active; 'I' for Inactive)
REMARK    1  A    between atoms: C_8  and  S_9 
REMARK    2  A    between atoms: S_9  and  C_10 
ROOT
HETATM    1  C   UNL     1      44.405 -21.476   6.152  1.00  0.00     0.002 A 
HETATM    2  C   UNL     1      43.840 -20.200   6.125  1.00  0.00     0.034 A 
HETATM    3  C   UNL     1      43.791 -19.459   4.951  1.00  0.00     0.087 A 
HETATM    4  C   UNL     1      44.323 -20.020   3.758  1.00  0.00     0.087 A 
HETATM    5  N   UNL     1      44.301 -19.344   2.591  1.00  0.00    -0.231 NA
HETATM    6  C   UNL     1      43.737 -18.119   2.595  1.00  0.00     0.167 A 
HETATM    7 CL   UNL     1      43.792 -17.332   1.077  1.00  0.00    -0.059 Cl
HETATM    8  C   UNL     1      43.223 -17.588   3.754  1.00  0.00     0.193 A 
HETATM    9  N   UNL     1      43.243 -18.223   4.961  1.00  0.00    -0.232 NA
HETATM   10  C   UNL     1      44.883 -21.291   3.801  1.00  0.00     0.034 A 
HETATM   11  C   UNL     1      44.928 -22.022   4.988  1.00  0.00     0.002 A 
ENDROOT
BRANCH   8  12
HETATM   12  S   UNL     1      42.506 -15.986   3.790  1.00  0.00     0.201 S 
HETATM   13  O   UNL     1      43.550 -15.026   3.454  1.00  0.00    -0.221 OA
HETATM   14  O   UNL     1      41.258 -16.035   3.059  1.00  0.00    -0.221 OA
BRANCH  12  15
HETATM   15  C   UNL     1      42.104 -15.652   5.503  1.00  0.00     0.141 C 
HETATM   16  C   UNL     1      43.069 -14.610   6.066  1.00  0.00     0.252 C 
HETATM   17  N   UNL     1      42.765 -13.239   5.527  1.00  0.00    -0.074 N 
HETATM   18  H   UNL     1      42.932 -13.248   4.497  1.00  0.00     0.277 HD
HETATM   19  H   UNL     1      43.437 -12.553   5.898  1.00  0.00     0.277 HD
HETATM   20  C   UNL     1      41.374 -12.765   5.780  1.00  0.00     0.232 C 
HETATM   21  C   UNL     1      40.394 -13.761   5.181  1.00  0.00     0.029 C 
HETATM   22  C   UNL     1      40.648 -15.187   5.678  1.00  0.00     0.024 C 
ENDBRANCH  12  15
ENDBRANCH   8  12
TORSDOF 2
ENDMDL
MODEL 6
REMARK VINA RESULT:      -7.0      1.595      2.188
REMARK  2 active torsions:
REMARK  status: ('A' for Active; 'I' for Inactive)
REMARK    1  A    between atoms: C_8  and  S_9 
REMARK    2  A    between atoms: S_9  and  C_10 
ROOT
HETATM    1  C   UNL     1      44.110 -21.114   6.509  1.00  0.00     0.002 A 
HETATM    2  C   UNL     1      43.589 -19.835   6.304  1.00  0.00     0.034 A 
HETATM    3  C   UNL     1      43.671 -19.213   5.065  1.00  0.00     0.087 A 
HETATM    4  C   UNL     1      44.296 -19.901   3.988  1.00  0.00     0.087 A 
HETATM    5  N   UNL     1      44.403 -19.343   2.765  1.00  0.00    -0.231 NA
HETATM    6  C   UNL     1      43.877 -18.112   2.596  1.00  0.00     0.167 A 
HETATM    7 CL   UNL     1      44.097 -17.480   1.022  1.00  0.00    -0.059 Cl
HETATM    8  C   UNL     1      43.273 -17.459   3.644  1.00  0.00     0.193 A 
HETATM    9  N   UNL     1      43.162 -17.971   4.904  1.00  0.00    -0.232 NA
HETATM   10  C   UNL     1      44.810 -21.172   4.207  1.00  0.00     0.034 A 
HETATM   11  C   UNL     1      44.722 -21.783   5.458  1.00  0.00     0.002 A 
ENDROOT
BRANCH   8  12
HETATM   12  S   UNL     1      42.604 -15.846   3.457  1.00  0.00     0.201 S 
HETATM   13  O   UNL     1      41.657 -15.630   4.543  1.00  0.00    -0.221 OA
HETATM   14  O   UNL     1      43.699 -14.932   3.212  1.00  0.00    -0.221 OA
BRANCH  12  15
HETATM   15  C   UNL     1      41.604 -15.885   1.972  1.00  0.00     0.141 C 
HETATM   16  C   UNL     1      40.167 -16.259   2.327  1.00  0.00     0.252 C 
HETATM   17  N   UNL     1      39.459 -15.118   3.006  1.00  0.00    -0.074 N 
HETATM   18  H   UNL     1      39.934 -14.933   3.916  1.00  0.00     0.277 HD
HETATM   19  H   UNL     1      38.499 -15.394   3.259  1.00  0.00     0.277 HD
HETATM   20  C   UNL     1      39.425 -13.852   2.221  1.00  0.00     0.232 C 
HETATM   21  C   UNL     1      40.850 -13.430   1.899  1.00  0.00     0.029 C 
HETATM   22  C   UNL     1      41.640 -14.547   1.213  1.00  0.00     0.024 C 
ENDBRANCH  12  15
ENDBRANCH   8  12
TORSDOF 2
ENDMDL
MODEL 7
REMARK VINA RESULT:      -7.0      2.324      2.701
REMARK  2 active torsions:
REMARK  status: ('A' for Active; 'I' for Inactive)
REMARK    1  A    between atoms: C_8  and  S_9 
REMARK    2  A    between atoms: S_9  and  C_10 
ROOT
HETATM    1  C   UNL     1      44.076 -20.841   2.260  1.00  0.00     0.002 A 
HETATM    2  C   UNL     1      43.361 -19.643   2.302  1.00  0.00     0.034 A 
HETATM    3  C   UNL     1      43.346 -18.852   3.444  1.00  0.00     0.087 A 
HETATM    4  C   UNL     1      44.081 -19.275   4.585  1.00  0.00     0.087 A 
HETATM    5  N   UNL     1      44.101 -18.545   5.719  1.00  0.00    -0.231 NA
HETATM    6  C   UNL     1      43.410 -17.386   5.723  1.00  0.00     0.167 A 
HETATM    7 CL   UNL     1      43.469 -16.556   7.217  1.00  0.00    -0.059 Cl
HETATM    8  C   UNL     1      42.706 -16.987   4.612  1.00  0.00     0.193 A 
HETATM    9  N   UNL     1      42.637 -17.701   3.452  1.00  0.00    -0.232 NA
HETATM   10  C   UNL     1      44.787 -20.469   4.529  1.00  0.00     0.034 A 
HETATM   11  C   UNL     1      44.790 -21.254   3.376  1.00  0.00     0.002 A 
ENDROOT
BRANCH   8  12
HETATM   12  S   UNL     1      41.779 -15.495   4.601  1.00  0.00     0.201 S 
HETATM   13  O   UNL     1      41.270 -15.300   3.249  1.00  0.00    -0.221 OA
HETATM   14  O   UNL     1      40.898 -15.506   5.748  1.00  0.00    -0.221 OA
BRANCH  12  15
HETATM   15  C   UNL     1      42.956 -14.169   4.848  1.00  0.00     0.141 C 
HETATM   16  C   UNL     1      43.196 -13.438   3.528  1.00  0.00     0.252 C 
HETATM   17  N   UNL     1      42.015 -12.582   3.158  1.00  0.00    -0.074 N 
HETATM   18  H   UNL     1      41.198 -13.208   2.988  1.00  0.00     0.277 HD
HETATM   19  H   UNL     1      42.183 -12.115   2.255  1.00  0.00     0.277 HD
HETATM   20  C   UNL     1      41.635 -11.569   4.183  1.00  0.00     0.232 C 
HETATM   21  C   UNL     1      41.340 -12.278   5.495  1.00  0.00     0.029 C 
HETATM   22  C   UNL     1      42.496 -13.180   5.934  1.00  0.00     0.024 C 
ENDBRANCH  12  15
ENDBRANCH   8  12
TORSDOF 2
ENDMDL
MODEL 8
REMARK VINA RESULT:      -6.8      1.627      1.952
REMARK  2 active torsions:
REMARK  status: ('A' for Active; 'I' for Inactive)
REMARK    1  A    between atoms: C_8  and  S_9 
REMARK    2  A    between atoms: S_9  and  C_10 
ROOT
HETATM    1  C   UNL     1      44.424 -20.992   2.595  1.00  0.00     0.002 A 
HETATM    2  C   UNL     1      43.468 -20.075   2.155  1.00  0.00     0.034 A 
HETATM    3  C   UNL     1      43.139 -18.958   2.912  1.00  0.00     0.087 A 
HETATM    4  C   UNL     1      43.797 -18.749   4.155  1.00  0.00     0.087 A 
HETATM    5  N   UNL     1      43.516 -17.681   4.929  1.00  0.00    -0.231 NA
HETATM    6  C   UNL     1      42.596 -16.807   4.470  1.00  0.00     0.167 A 
HETATM    7 CL   UNL     1      42.286 -15.510   5.541  1.00  0.00    -0.059 Cl
HETATM    8  C   UNL     1      41.969 -17.019   3.265  1.00  0.00     0.193 A 
HETATM    9  N   UNL     1      42.203 -18.094   2.459  1.00  0.00    -0.232 NA
HETATM   10  C   UNL     1      44.746 -19.669   4.579  1.00  0.00     0.034 A 
HETATM   11  C   UNL     1      45.064 -20.788   3.810  1.00  0.00     0.002 A 
ENDROOT
BRANCH   8  12
HETATM   12  S   UNL     1      40.751 -15.909   2.658  1.00  0.00     0.201 S 
HETATM   13  O   UNL     1      39.864 -16.662   1.780  1.00  0.00    -0.221 OA
HETATM   14  O   UNL     1      40.241 -15.146   3.776  1.00  0.00    -0.221 OA
BRANCH  12  15
HETATM   15  C   UNL     1      41.607 -14.762   1.581  1.00  0.00     0.141 C 
HETATM   16  C   UNL     1      41.588 -15.290   0.147  1.00  0.00     0.252 C 
HETATM   17  N   UNL     1      40.222 -15.148  -0.468  1.00  0.00    -0.074 N 
HETATM   18  H   UNL     1      39.560 -15.756   0.063  1.00  0.00     0.277 HD
HETATM   19  H   UNL     1      40.221 -15.528  -1.425  1.00  0.00     0.277 HD
HETATM   20  C   UNL     1      39.686 -13.758  -0.480  1.00  0.00     0.232 C 
HETATM   21  C   UNL     1      39.645 -13.229   0.944  1.00  0.00     0.029 C 
HETATM   22  C   UNL     1      41.003 -13.349   1.641  1.00  0.00     0.024 C 
ENDBRANCH  12  15
ENDBRANCH   8  12
TORSDOF 2
ENDMDL
MODEL 9
REMARK VINA RESULT:      -6.7      1.604      1.960
REMARK  2 active torsions:
REMARK  status: ('A' for Active; 'I' for Inactive)
REMARK    1  A    between atoms: C_8  and  S_9 
REMARK    2  A    between atoms: S_9  and  C_10 
ROOT
HETATM    1  C   UNL     1      44.173 -21.115   2.447  1.00  0.00     0.002 A 
HETATM    2  C   UNL     1      43.501 -20.025   1.890  1.00  0.00     0.034 A 
HETATM    3  C   UNL     1      43.372 -18.828   2.583  1.00  0.00     0.087 A 
HETATM    4  C   UNL     1      43.943 -18.717   3.881  1.00  0.00     0.087 A 
HETATM    5  N   UNL     1      43.848 -17.578   4.597  1.00  0.00    -0.231 NA
HETATM    6  C   UNL     1      43.203 -16.539   4.026  1.00  0.00     0.167 A 
HETATM    7 CL   UNL     1      43.105 -15.157   5.029  1.00  0.00    -0.059 Cl
HETATM    8  C   UNL     1      42.658 -16.658   2.770  1.00  0.00     0.193 A 
HETATM    9  N   UNL     1      42.708 -17.795   2.018  1.00  0.00    -0.232 NA
HETATM   10  C   UNL     1      44.609 -19.810   4.421  1.00  0.00     0.034 A 
HETATM   11  C   UNL     1      44.728 -21.007   3.715  1.00  0.00     0.002 A 
ENDROOT
BRANCH   8  12
HETATM   12  S   UNL     1      41.792 -15.329   2.016  1.00  0.00     0.201 S 
HETATM   13  O   UNL     1      42.511 -14.100   2.327  1.00  0.00    -0.221 OA
HETATM   14  O   UNL     1      41.490 -15.706   0.653  1.00  0.00    -0.221 OA
BRANCH  12  15
HETATM   15  C   UNL     1      40.233 -15.187   2.885  1.00  0.00     0.141 C 
HETATM   16  C   UNL     1      40.176 -13.854   3.629  1.00  0.00     0.252 C 
HETATM   17  N   UNL     1      39.972 -12.707   2.677  1.00  0.00    -0.074 N 
HETATM   18  H   UNL     1      40.807 -12.646   2.055  1.00  0.00     0.277 HD
HETATM   19  H   UNL     1      39.959 -11.814   3.191  1.00  0.00     0.277 HD
HETATM   20  C   UNL     1      38.752 -12.813   1.827  1.00  0.00     0.232 C 
HETATM   21  C   UNL     1      38.810 -14.109   1.036  1.00  0.00     0.029 C 
HETATM   22  C   UNL     1      39.027 -15.326   1.939  1.00  0.00     0.024 C 
ENDBRANCH  12  15
ENDBRANCH   8  12
TORSDOF 2
ENDMDL
MODEL 10
REMARK VINA RESULT:      -6.6      2.723      3.406
REMARK  2 active torsions:
REMARK  status: ('A' for Active; 'I' for Inactive)
REMARK    1  A    between atoms: C_8  and  S_9 
REMARK    2  A    between atoms: S_9  and  C_10 
ROOT
HETATM    1  C   UNL     1      44.716 -19.793   4.850  1.00  0.00     0.002 A 
HETATM    2  C   UNL     1      44.343 -18.485   5.167  1.00  0.00     0.034 A 
HETATM    3  C   UNL     1      43.765 -17.651   4.219  1.00  0.00     0.087 A 
HETATM    4  C   UNL     1      43.548 -18.147   2.904  1.00  0.00     0.087 A 
HETATM    5  N   UNL     1      42.991 -17.380   1.946  1.00  0.00    -0.231 NA
HETATM    6  C   UNL     1      42.629 -16.125   2.287  1.00  0.00     0.167 A 
HETATM    7 CL   UNL     1      41.967 -15.224   0.993  1.00  0.00    -0.059 Cl
HETATM    8  C   UNL     1      42.842 -15.659   3.562  1.00  0.00     0.193 A 
HETATM    9  N   UNL     1      43.423 -16.388   4.558  1.00  0.00    -0.232 NA
HETATM   10  C   UNL     1      43.924 -19.450   2.603  1.00  0.00     0.034 A 
HETATM   11  C   UNL     1      44.506 -20.275   3.565  1.00  0.00     0.002 A 
ENDROOT
BRANCH   8  12
HETATM   12  S   UNL     1      42.404 -14.022   4.025  1.00  0.00     0.201 S 
HETATM   13  O   UNL     1      42.697 -13.869   5.444  1.00  0.00    -0.221 OA
HETATM   14  O   UNL     1      42.947 -13.116   3.037  1.00  0.00    -0.221 OA
BRANCH  12  15
HETATM   15  C   UNL     1      40.619 -13.926   3.908  1.00  0.00     0.141 C 
HETATM   16  C   UNL     1      39.984 -14.708   5.056  1.00  0.00     0.252 C 
HETATM   17  N   UNL     1      40.131 -13.974   6.361  1.00  0.00    -0.074 N 
HETATM   18  H   UNL     1      41.147 -13.914   6.591  1.00  0.00     0.277 HD
HETATM   19  H   UNL     1      39.718 -14.524   7.128  1.00  0.00     0.277 HD
HETATM   20  C   UNL     1      39.560 -12.597   6.369  1.00  0.00     0.232 C 
HETATM   21  C   UNL     1      40.216 -11.782   5.266  1.00  0.00     0.029 C 
HETATM   22  C   UNL     1      40.115 -12.473   3.903  1.00  0.00     0.024 C 
ENDBRANCH  12  15
ENDBRANCH   8  12
TORSDOF 2
ENDMDL
