MODEL 1
REMARK VINA RESULT:      -9.8      0.000      0.000
REMARK  6 active torsions:
REMARK  status: ('A' for Active; 'I' for Inactive)
REMARK    1  A    between atoms: C_6  and  O_7 
REMARK    2  A    between atoms: O_7  and  C_8 
REMARK    3  A    between atoms: C_8  and  C_9 
REMARK       I    between atoms: C_9  and  N_10 
REMARK    4  A    between atoms: N_10  and  N_11 
REMARK       I    between atoms: N_11  and  C_12 
REMARK    5  A    between atoms: C_12  and  C_13 
REMARK    6  A    between atoms: C_17  and  C_18 
ROOT
HETATM    1  N   UNL     1      44.114 -14.288   7.647  1.00  0.00    -0.262 N 
HETATM    2  C   UNL     1      45.060 -13.280   7.585  1.00  0.00     0.288 C 
HETATM    3  O   UNL     1      45.994 -13.298   6.788  1.00  0.00    -0.264 OA
HETATM    4  H   UNL     1      43.195 -14.089   8.032  1.00  0.00     0.190 HD
ENDROOT
BRANCH   1   5
HETATM    5  N   UNL     1      44.164 -15.304   6.685  1.00  0.00    -0.265 N 
HETATM    6  C   UNL     1      43.257 -15.277   5.642  1.00  0.00     0.260 C 
HETATM    7  O   UNL     1      42.298 -14.508   5.603  1.00  0.00    -0.269 OA
HETATM    8  H   UNL     1      45.055 -15.781   6.560  1.00  0.00     0.190 HD
BRANCH   6   9
HETATM    9  C   UNL     1      43.582 -16.264   4.524  1.00  0.00     0.280 C 
BRANCH   9  10
HETATM   10  O   UNL     1      42.735 -17.409   4.666  1.00  0.00    -0.341 OA
BRANCH  10  11
HETATM   11  C   UNL     1      43.220 -18.476   3.955  1.00  0.00     0.081 A 
HETATM   12  C   UNL     1      44.068 -19.388   4.604  1.00  0.00    -0.028 A 
HETATM   13  C   UNL     1      44.535 -20.502   3.893  1.00  0.00     0.016 A 
HETATM   14  C   UNL     1      44.495 -19.182   6.030  1.00  0.00     0.051 C 
HETATM   15  C   UNL     1      44.140 -20.727   2.570  1.00  0.00    -0.061 A 
HETATM   16  C   UNL     1      44.626 -21.927   1.811  1.00  0.00     0.048 C 
HETATM   17  C   UNL     1      43.264 -19.824   1.954  1.00  0.00     0.016 A 
HETATM   18  C   UNL     1      42.775 -18.705   2.645  1.00  0.00    -0.028 A 
HETATM   19  C   UNL     1      41.821 -17.777   1.948  1.00  0.00     0.051 C 
ENDBRANCH  10  11
ENDBRANCH   9  10
ENDBRANCH   6   9
ENDBRANCH   1   5
BRANCH   2  20
HETATM   20  C   UNL     1      44.874 -12.221   8.539  1.00  0.00     0.121 A 
HETATM   21  N   UNL     1      45.897 -11.408   8.933  1.00  0.00    -0.272 N 
HETATM   22  H   UNL     1      46.856 -11.427   8.598  1.00  0.00     0.189 HD
HETATM   23  N   UNL     1      45.559 -10.520   9.878  1.00  0.00    -0.174 NA
HETATM   24  C   UNL     1      44.263 -10.765  10.133  1.00  0.00     0.089 A 
HETATM   25  C   UNL     1      43.789 -11.807   9.286  1.00  0.00     0.071 A 
BRANCH  24  26
HETATM   26  C   UNL     1      43.531 -10.041  11.181  1.00  0.00    -0.006 A 
HETATM   27  C   UNL     1      43.912 -10.124  12.530  1.00  0.00     0.014 A 
HETATM   28  C   UNL     1      43.230  -9.399  13.513  1.00  0.00     0.001 A 
HETATM   29  C   UNL     1      42.158  -8.582  13.162  1.00  0.00     0.000 A 
HETATM   30  C   UNL     1      41.762  -8.493  11.830  1.00  0.00     0.001 A 
HETATM   31  C   UNL     1      42.443  -9.218  10.848  1.00  0.00     0.014 A 
ENDBRANCH  24  26
ENDBRANCH   2  20
TORSDOF 6
ENDMDL
MODEL 2
REMARK VINA RESULT:      -9.6      0.838      2.034
REMARK  6 active torsions:
REMARK  status: ('A' for Active; 'I' for Inactive)
REMARK    1  A    between atoms: C_6  and  O_7 
REMARK    2  A    between atoms: O_7  and  C_8 
REMARK    3  A    between atoms: C_8  and  C_9 
REMARK       I    between atoms: C_9  and  N_10 
REMARK    4  A    between atoms: N_10  and  N_11 
REMARK       I    between atoms: N_11  and  C_12 
REMARK    5  A    between atoms: C_12  and  C_13 
REMARK    6  A    between atoms: C_17  and  C_18 
ROOT
HETATM    1  N   UNL     1      43.585 -14.200   7.073  1.00  0.00    -0.262 N 
HETATM    2  C   UNL     1      44.749 -13.497   7.326  1.00  0.00     0.288 C 
HETATM    3  O   UNL     1      45.771 -13.648   6.660  1.00  0.00    -0.264 OA
HETATM    4  H   UNL     1      42.693 -13.816   7.375  1.00  0.00     0.190 HD
ENDROOT
BRANCH   1   5
HETATM    5  N   UNL     1      43.541 -15.025   5.944  1.00  0.00    -0.265 N 
HETATM    6  C   UNL     1      42.425 -15.816   5.741  1.00  0.00     0.260 C 
HETATM    7  O   UNL     1      41.543 -15.965   6.584  1.00  0.00    -0.269 OA
HETATM    8  H   UNL     1      44.110 -14.750   5.145  1.00  0.00     0.190 HD
BRANCH   6   9
HETATM    9  C   UNL     1      42.372 -16.455   4.355  1.00  0.00     0.280 C 
BRANCH   9  10
HETATM   10  O   UNL     1      43.711 -16.722   3.926  1.00  0.00    -0.341 OA
BRANCH  10  11
HETATM   11  C   UNL     1      43.846 -18.019   3.502  1.00  0.00     0.081 A 
HETATM   12  C   UNL     1      43.583 -18.318   2.156  1.00  0.00    -0.028 A 
HETATM   13  C   UNL     1      43.758 -19.636   1.708  1.00  0.00     0.016 A 
HETATM   14  C   UNL     1      43.103 -17.264   1.198  1.00  0.00     0.051 C 
HETATM   15  C   UNL     1      44.220 -20.633   2.574  1.00  0.00    -0.061 A 
HETATM   16  C   UNL     1      44.422 -22.040   2.094  1.00  0.00     0.048 C 
HETATM   17  C   UNL     1      44.511 -20.304   3.904  1.00  0.00     0.016 A 
HETATM   18  C   UNL     1      44.353 -18.992   4.376  1.00  0.00    -0.028 A 
HETATM   19  C   UNL     1      44.699 -18.684   5.806  1.00  0.00     0.051 C 
ENDBRANCH  10  11
ENDBRANCH   9  10
ENDBRANCH   6   9
ENDBRANCH   1   5
BRANCH   2  20
HETATM   20  C   UNL     1      44.676 -12.591   8.439  1.00  0.00     0.121 A 
HETATM   21  N   UNL     1      45.676 -12.489   9.362  1.00  0.00    -0.272 N 
HETATM   22  H   UNL     1      46.561 -12.988   9.362  1.00  0.00     0.189 HD
HETATM   23  N   UNL     1      45.410 -11.644  10.368  1.00  0.00    -0.174 NA
HETATM   24  C   UNL     1      44.177 -11.180  10.111  1.00  0.00     0.089 A 
HETATM   25  C   UNL     1      43.696 -11.729   8.887  1.00  0.00     0.071 A 
BRANCH  24  26
HETATM   26  C   UNL     1      43.483 -10.271  11.035  1.00  0.00    -0.006 A 
HETATM   27  C   UNL     1      42.392  -9.495  10.614  1.00  0.00     0.014 A 
HETATM   28  C   UNL     1      41.716  -8.663  11.513  1.00  0.00     0.001 A 
HETATM   29  C   UNL     1      42.121  -8.596  12.844  1.00  0.00     0.000 A 
HETATM   30  C   UNL     1      43.207  -9.354  13.277  1.00  0.00     0.001 A 
HETATM   31  C   UNL     1      43.882 -10.184  12.378  1.00  0.00     0.014 A 
ENDBRANCH  24  26
ENDBRANCH   2  20
TORSDOF 6
ENDMDL
MODEL 3
REMARK VINA RESULT:      -9.0      1.965     10.726
REMARK  6 active torsions:
REMARK  status: ('A' for Active; 'I' for Inactive)
REMARK    1  A    between atoms: C_6  and  O_7 
REMARK    2  A    between atoms: O_7  and  C_8 
REMARK    3  A    between atoms: C_8  and  C_9 
REMARK       I    between atoms: C_9  and  N_10 
REMARK    4  A    between atoms: N_10  and  N_11 
REMARK       I    between atoms: N_11  and  C_12 
REMARK    5  A    between atoms: C_12  and  C_13 
REMARK    6  A    between atoms: C_17  and  C_18 
ROOT
HETATM    1  N   UNL     1      43.040 -13.936   5.933  1.00  0.00    -0.262 N 
HETATM    2  C   UNL     1      43.526 -15.161   6.354  1.00  0.00     0.288 C 
HETATM    3  O   UNL     1      43.851 -15.379   7.518  1.00  0.00    -0.264 OA
HETATM    4  H   UNL     1      42.460 -13.887   5.100  1.00  0.00     0.190 HD
ENDROOT
BRANCH   1   5
HETATM    5  N   UNL     1      42.805 -12.950   6.898  1.00  0.00    -0.265 N 
HETATM    6  C   UNL     1      41.907 -11.939   6.610  1.00  0.00     0.260 C 
HETATM    7  O   UNL     1      41.431 -11.760   5.491  1.00  0.00    -0.269 OA
HETATM    8  H   UNL     1      42.983 -13.199   7.869  1.00  0.00     0.190 HD
BRANCH   6   9
HETATM    9  C   UNL     1      41.532 -11.092   7.823  1.00  0.00     0.280 C 
BRANCH   9  10
HETATM   10  O   UNL     1      42.638 -10.243   8.146  1.00  0.00    -0.341 OA
BRANCH  10  11
HETATM   11  C   UNL     1      42.767 -10.092   9.503  1.00  0.00     0.081 A 
HETATM   12  C   UNL     1      43.873 -10.672  10.143  1.00  0.00    -0.028 A 
HETATM   13  C   UNL     1      44.031 -10.487  11.524  1.00  0.00     0.016 A 
HETATM   14  C   UNL     1      44.873 -11.498   9.383  1.00  0.00     0.051 C 
HETATM   15  C   UNL     1      43.124  -9.710  12.252  1.00  0.00    -0.061 A 
HETATM   16  C   UNL     1      43.300  -9.498  13.728  1.00  0.00     0.048 C 
HETATM   17  C   UNL     1      42.048  -9.110  11.587  1.00  0.00     0.016 A 
HETATM   18  C   UNL     1      41.871  -9.271  10.205  1.00  0.00    -0.028 A 
HETATM   19  C   UNL     1      40.713  -8.590   9.532  1.00  0.00     0.051 C 
ENDBRANCH  10  11
ENDBRANCH   9  10
ENDBRANCH   6   9
ENDBRANCH   1   5
BRANCH   2  20
HETATM   20  C   UNL     1      43.636 -16.153   5.319  1.00  0.00     0.121 A 
HETATM   21  N   UNL     1      43.273 -15.900   4.028  1.00  0.00    -0.272 N 
HETATM   22  H   UNL     1      42.930 -15.022   3.650  1.00  0.00     0.189 HD
HETATM   23  N   UNL     1      43.378 -16.958   3.212  1.00  0.00    -0.174 NA
HETATM   24  C   UNL     1      43.812 -17.957   3.997  1.00  0.00     0.089 A 
HETATM   25  C   UNL     1      44.016 -17.480   5.324  1.00  0.00     0.071 A 
BRANCH  24  26
HETATM   26  C   UNL     1      43.984 -19.325   3.486  1.00  0.00    -0.006 A 
HETATM   27  C   UNL     1      44.621 -20.315   4.251  1.00  0.00     0.014 A 
HETATM   28  C   UNL     1      44.743 -21.623   3.769  1.00  0.00     0.001 A 
HETATM   29  C   UNL     1      44.231 -21.958   2.518  1.00  0.00     0.000 A 
HETATM   30  C   UNL     1      43.603 -20.986   1.743  1.00  0.00     0.001 A 
HETATM   31  C   UNL     1      43.482 -19.680   2.224  1.00  0.00     0.014 A 
ENDBRANCH  24  26
ENDBRANCH   2  20
TORSDOF 6
ENDMDL
MODEL 4
REMARK VINA RESULT:      -8.9      1.754      2.270
REMARK  6 active torsions:
REMARK  status: ('A' for Active; 'I' for Inactive)
REMARK    1  A    between atoms: C_6  and  O_7 
REMARK    2  A    between atoms: O_7  and  C_8 
REMARK    3  A    between atoms: C_8  and  C_9 
REMARK       I    between atoms: C_9  and  N_10 
REMARK    4  A    between atoms: N_10  and  N_11 
REMARK       I    between atoms: N_11  and  C_12 
REMARK    5  A    between atoms: C_12  and  C_13 
REMARK    6  A    between atoms: C_17  and  C_18 
ROOT
HETATM    1  N   UNL     1      42.569 -12.954   6.407  1.00  0.00    -0.262 N 
HETATM    2  C   UNL     1      41.973 -11.784   6.841  1.00  0.00     0.288 C 
HETATM    3  O   UNL     1      41.085 -11.219   6.207  1.00  0.00    -0.264 OA
HETATM    4  H   UNL     1      43.011 -13.571   7.082  1.00  0.00     0.190 HD
ENDROOT
BRANCH   1   5
HETATM    5  N   UNL     1      42.055 -13.573   5.261  1.00  0.00    -0.265 N 
HETATM    6  C   UNL     1      42.932 -13.954   4.261  1.00  0.00     0.260 C 
HETATM    7  O   UNL     1      44.116 -13.626   4.244  1.00  0.00    -0.269 OA
HETATM    8  H   UNL     1      41.164 -14.056   5.354  1.00  0.00     0.190 HD
BRANCH   6   9
HETATM    9  C   UNL     1      42.298 -14.853   3.203  1.00  0.00     0.280 C 
BRANCH   9  10
HETATM   10  O   UNL     1      41.760 -16.010   3.851  1.00  0.00    -0.341 OA
BRANCH  10  11
HETATM   11  C   UNL     1      42.446 -17.142   3.494  1.00  0.00     0.081 A 
HETATM   12  C   UNL     1      43.378 -17.678   4.398  1.00  0.00    -0.028 A 
HETATM   13  C   UNL     1      44.053 -18.858   4.054  1.00  0.00     0.016 A 
HETATM   14  C   UNL     1      43.675 -17.005   5.708  1.00  0.00     0.051 C 
HETATM   15  C   UNL     1      43.784 -19.514   2.848  1.00  0.00    -0.061 A 
HETATM   16  C   UNL     1      44.495 -20.785   2.485  1.00  0.00     0.048 C 
HETATM   17  C   UNL     1      42.824 -18.981   1.978  1.00  0.00     0.016 A 
HETATM   18  C   UNL     1      42.128 -17.807   2.301  1.00  0.00    -0.028 A 
HETATM   19  C   UNL     1      41.092 -17.287   1.344  1.00  0.00     0.051 C 
ENDBRANCH  10  11
ENDBRANCH   9  10
ENDBRANCH   6   9
ENDBRANCH   1   5
BRANCH   2  20
HETATM   20  C   UNL     1      42.486 -11.272   8.082  1.00  0.00     0.121 A 
HETATM   21  N   UNL     1      43.639 -11.741   8.642  1.00  0.00    -0.272 N 
HETATM   22  H   UNL     1      44.261 -12.448   8.259  1.00  0.00     0.189 HD
HETATM   23  N   UNL     1      43.931 -11.199   9.832  1.00  0.00    -0.174 NA
HETATM   24  C   UNL     1      42.923 -10.347  10.080  1.00  0.00     0.089 A 
HETATM   25  C   UNL     1      42.011 -10.342   8.985  1.00  0.00     0.071 A 
BRANCH  24  26
HETATM   26  C   UNL     1      42.833  -9.600  11.342  1.00  0.00    -0.006 A 
HETATM   27  C   UNL     1      42.082  -8.418  11.439  1.00  0.00     0.014 A 
HETATM   28  C   UNL     1      41.972  -7.738  12.656  1.00  0.00     0.001 A 
HETATM   29  C   UNL     1      42.612  -8.228  13.792  1.00  0.00     0.000 A 
HETATM   30  C   UNL     1      43.368  -9.395  13.712  1.00  0.00     0.001 A 
HETATM   31  C   UNL     1      43.478 -10.075  12.495  1.00  0.00     0.014 A 
ENDBRANCH  24  26
ENDBRANCH   2  20
TORSDOF 6
ENDMDL
MODEL 5
REMARK VINA RESULT:      -8.9      1.301      2.643
REMARK  6 active torsions:
REMARK  status: ('A' for Active; 'I' for Inactive)
REMARK    1  A    between atoms: C_6  and  O_7 
REMARK    2  A    between atoms: O_7  and  C_8 
REMARK    3  A    between atoms: C_8  and  C_9 
REMARK       I    between atoms: C_9  and  N_10 
REMARK    4  A    between atoms: N_10  and  N_11 
REMARK       I    between atoms: N_11  and  C_12 
REMARK    5  A    between atoms: C_12  and  C_13 
REMARK    6  A    between atoms: C_17  and  C_18 
ROOT
HETATM    1  N   UNL     1      44.312 -14.294   7.789  1.00  0.00    -0.262 N 
HETATM    2  C   UNL     1      45.233 -13.262   7.756  1.00  0.00     0.288 C 
HETATM    3  O   UNL     1      46.221 -13.281   7.028  1.00  0.00    -0.264 OA
HETATM    4  H   UNL     1      43.362 -14.108   8.101  1.00  0.00     0.190 HD
ENDROOT
BRANCH   1   5
HETATM    5  N   UNL     1      44.457 -15.341   6.871  1.00  0.00    -0.265 N 
HETATM    6  C   UNL     1      44.016 -16.603   7.226  1.00  0.00     0.260 C 
HETATM    7  O   UNL     1      43.659 -16.895   8.365  1.00  0.00    -0.269 OA
HETATM    8  H   UNL     1      44.513 -15.090   5.886  1.00  0.00     0.190 HD
BRANCH   6   9
HETATM    9  C   UNL     1      43.975 -17.586   6.059  1.00  0.00     0.280 C 
BRANCH   9  10
HETATM   10  O   UNL     1      42.613 -17.957   5.823  1.00  0.00    -0.341 OA
BRANCH  10  11
HETATM   11  C   UNL     1      42.254 -17.722   4.521  1.00  0.00     0.081 A 
HETATM   12  C   UNL     1      41.389 -16.652   4.244  1.00  0.00    -0.028 A 
HETATM   13  C   UNL     1      41.050 -16.383   2.910  1.00  0.00     0.016 A 
HETATM   14  C   UNL     1      40.810 -15.807   5.344  1.00  0.00     0.051 C 
HETATM   15  C   UNL     1      41.587 -17.142   1.865  1.00  0.00    -0.061 A 
HETATM   16  C   UNL     1      41.238 -16.846   0.436  1.00  0.00     0.048 C 
HETATM   17  C   UNL     1      42.477 -18.183   2.162  1.00  0.00     0.016 A 
HETATM   18  C   UNL     1      42.840 -18.468   3.487  1.00  0.00    -0.028 A 
HETATM   19  C   UNL     1      43.814 -19.580   3.753  1.00  0.00     0.051 C 
ENDBRANCH  10  11
ENDBRANCH   9  10
ENDBRANCH   6   9
ENDBRANCH   1   5
BRANCH   2  20
HETATM   20  C   UNL     1      44.951 -12.176   8.654  1.00  0.00     0.121 A 
HETATM   21  N   UNL     1      45.902 -11.269   9.021  1.00  0.00    -0.272 N 
HETATM   22  H   UNL     1      46.866 -11.230   8.700  1.00  0.00     0.189 HD
HETATM   23  N   UNL     1      45.482 -10.365   9.917  1.00  0.00    -0.174 NA
HETATM   24  C   UNL     1      44.205 -10.695  10.167  1.00  0.00     0.089 A 
HETATM   25  C   UNL     1      43.826 -11.811   9.366  1.00  0.00     0.071 A 
BRANCH  24  26
HETATM   26  C   UNL     1      43.403  -9.980  11.169  1.00  0.00    -0.006 A 
HETATM   27  C   UNL     1      42.201  -9.341  10.822  1.00  0.00     0.014 A 
HETATM   28  C   UNL     1      41.427  -8.697  11.792  1.00  0.00     0.001 A 
HETATM   29  C   UNL     1      41.842  -8.682  13.122  1.00  0.00     0.000 A 
HETATM   30  C   UNL     1      43.034  -9.304  13.482  1.00  0.00     0.001 A 
HETATM   31  C   UNL     1      43.809  -9.947  12.512  1.00  0.00     0.014 A 
ENDBRANCH  24  26
ENDBRANCH   2  20
TORSDOF 6
ENDMDL
MODEL 6
REMARK VINA RESULT:      -8.6      2.026      2.868
REMARK  6 active torsions:
REMARK  status: ('A' for Active; 'I' for Inactive)
REMARK    1  A    between atoms: C_6  and  O_7 
REMARK    2  A    between atoms: O_7  and  C_8 
REMARK    3  A    between atoms: C_8  and  C_9 
REMARK       I    between atoms: C_9  and  N_10 
REMARK    4  A    between atoms: N_10  and  N_11 
REMARK       I    between atoms: N_11  and  C_12 
REMARK    5  A    between atoms: C_12  and  C_13 
REMARK    6  A    between atoms: C_17  and  C_18 
ROOT
HETATM    1  N   UNL     1      42.610 -13.136   6.455  1.00  0.00    -0.262 N 
HETATM    2  C   UNL     1      42.014 -11.907   6.240  1.00  0.00     0.288 C 
HETATM    3  O   UNL     1      41.637 -11.540   5.130  1.00  0.00    -0.264 OA
HETATM    4  H   UNL     1      42.579 -13.552   7.382  1.00  0.00     0.190 HD
ENDROOT
BRANCH   1   5
HETATM    5  N   UNL     1      42.677 -14.037   5.385  1.00  0.00    -0.265 N 
HETATM    6  C   UNL     1      42.446 -15.378   5.629  1.00  0.00     0.260 C 
HETATM    7  O   UNL     1      42.354 -15.850   6.760  1.00  0.00    -0.269 OA
HETATM    8  H   UNL     1      42.511 -13.662   4.453  1.00  0.00     0.190 HD
BRANCH   6   9
HETATM    9  C   UNL     1      42.276 -16.209   4.360  1.00  0.00     0.280 C 
BRANCH   9  10
HETATM   10  O   UNL     1      43.569 -16.449   3.796  1.00  0.00    -0.341 OA
BRANCH  10  11
HETATM   11  C   UNL     1      43.698 -17.751   3.386  1.00  0.00     0.081 A 
HETATM   12  C   UNL     1      43.396 -18.071   2.053  1.00  0.00    -0.028 A 
HETATM   13  C   UNL     1      43.564 -19.394   1.619  1.00  0.00     0.016 A 
HETATM   14  C   UNL     1      42.883 -17.033   1.096  1.00  0.00     0.051 C 
HETATM   15  C   UNL     1      44.056 -20.376   2.485  1.00  0.00    -0.061 A 
HETATM   16  C   UNL     1      44.251 -21.789   2.019  1.00  0.00     0.048 C 
HETATM   17  C   UNL     1      44.385 -20.027   3.801  1.00  0.00     0.016 A 
HETATM   18  C   UNL     1      44.235 -18.709   4.259  1.00  0.00    -0.028 A 
HETATM   19  C   UNL     1      44.623 -18.379   5.673  1.00  0.00     0.051 C 
ENDBRANCH  10  11
ENDBRANCH   9  10
ENDBRANCH   6   9
ENDBRANCH   1   5
BRANCH   2  20
HETATM   20  C   UNL     1      41.887 -11.086   7.413  1.00  0.00     0.121 A 
HETATM   21  N   UNL     1      41.167  -9.926   7.415  1.00  0.00    -0.272 N 
HETATM   22  H   UNL     1      40.635  -9.535   6.643  1.00  0.00     0.189 HD
HETATM   23  N   UNL     1      41.213  -9.255   8.574  1.00  0.00    -0.174 NA
HETATM   24  C   UNL     1      42.008  -9.990   9.368  1.00  0.00     0.089 A 
HETATM   25  C   UNL     1      42.425 -11.167   8.681  1.00  0.00     0.071 A 
BRANCH  24  26
HETATM   26  C   UNL     1      42.376  -9.548  10.720  1.00  0.00    -0.006 A 
HETATM   27  C   UNL     1      41.844  -8.373  11.274  1.00  0.00     0.014 A 
HETATM   28  C   UNL     1      42.171  -7.984  12.577  1.00  0.00     0.001 A 
HETATM   29  C   UNL     1      43.034  -8.763  13.344  1.00  0.00     0.000 A 
HETATM   30  C   UNL     1      43.577  -9.928  12.807  1.00  0.00     0.001 A 
HETATM   31  C   UNL     1      43.251 -10.316  11.505  1.00  0.00     0.014 A 
ENDBRANCH  24  26
ENDBRANCH   2  20
TORSDOF 6
ENDMDL
MODEL 7
REMARK VINA RESULT:      -8.5      2.137     10.918
REMARK  6 active torsions:
REMARK  status: ('A' for Active; 'I' for Inactive)
REMARK    1  A    between atoms: C_6  and  O_7 
REMARK    2  A    between atoms: O_7  and  C_8 
REMARK    3  A    between atoms: C_8  and  C_9 
REMARK       I    between atoms: C_9  and  N_10 
REMARK    4  A    between atoms: N_10  and  N_11 
REMARK       I    between atoms: N_11  and  C_12 
REMARK    5  A    between atoms: C_12  and  C_13 
REMARK    6  A    between atoms: C_17  and  C_18 
ROOT
HETATM    1  N   UNL     1      42.834 -12.754   6.840  1.00  0.00    -0.262 N 
HETATM    2  C   UNL     1      43.761 -13.781   6.817  1.00  0.00     0.288 C 
HETATM    3  O   UNL     1      44.640 -13.898   7.667  1.00  0.00    -0.264 OA
HETATM    4  H   UNL     1      41.940 -12.876   6.372  1.00  0.00     0.190 HD
ENDROOT
BRANCH   1   5
HETATM    5  N   UNL     1      42.833 -11.888   7.939  1.00  0.00    -0.265 N 
HETATM    6  C   UNL     1      42.094 -10.721   7.866  1.00  0.00     0.260 C 
HETATM    7  O   UNL     1      41.576 -10.317   6.828  1.00  0.00    -0.269 OA
HETATM    8  H   UNL     1      43.036 -12.294   8.851  1.00  0.00     0.190 HD
BRANCH   6   9
HETATM    9  C   UNL     1      41.950 -10.004   9.206  1.00  0.00     0.280 C 
BRANCH   9  10
HETATM   10  O   UNL     1      41.800 -10.987  10.235  1.00  0.00    -0.341 OA
BRANCH  10  11
HETATM   11  C   UNL     1      41.979 -10.436  11.478  1.00  0.00     0.081 A 
HETATM   12  C   UNL     1      40.847 -10.070  12.221  1.00  0.00    -0.028 A 
HETATM   13  C   UNL     1      41.023  -9.542  13.509  1.00  0.00     0.016 A 
HETATM   14  C   UNL     1      39.460 -10.214  11.660  1.00  0.00     0.051 C 
HETATM   15  C   UNL     1      42.302  -9.412  14.062  1.00  0.00    -0.061 A 
HETATM   16  C   UNL     1      42.492  -8.862  15.445  1.00  0.00     0.048 C 
HETATM   17  C   UNL     1      43.415  -9.817  13.316  1.00  0.00     0.016 A 
HETATM   18  C   UNL     1      43.267 -10.356  12.029  1.00  0.00    -0.028 A 
HETATM   19  C   UNL     1      44.491 -10.797  11.277  1.00  0.00     0.051 C 
ENDBRANCH  10  11
ENDBRANCH   9  10
ENDBRANCH   6   9
ENDBRANCH   1   5
BRANCH   2  20
HETATM   20  C   UNL     1      43.625 -14.689   5.711  1.00  0.00     0.121 A 
HETATM   21  N   UNL     1      43.017 -14.329   4.544  1.00  0.00    -0.272 N 
HETATM   22  H   UNL     1      42.633 -13.417   4.310  1.00  0.00     0.189 HD
HETATM   23  N   UNL     1      42.918 -15.320   3.648  1.00  0.00    -0.174 NA
HETATM   24  C   UNL     1      43.468 -16.386   4.251  1.00  0.00     0.089 A 
HETATM   25  C   UNL     1      43.954 -16.019   5.539  1.00  0.00     0.071 A 
BRANCH  24  26
HETATM   26  C   UNL     1      43.487 -17.712   3.616  1.00  0.00    -0.006 A 
HETATM   27  C   UNL     1      42.793 -17.959   2.421  1.00  0.00     0.014 A 
HETATM   28  C   UNL     1      42.850 -19.214   1.807  1.00  0.00     0.001 A 
HETATM   29  C   UNL     1      43.601 -20.239   2.378  1.00  0.00     0.000 A 
HETATM   30  C   UNL     1      44.290 -20.013   3.567  1.00  0.00     0.001 A 
HETATM   31  C   UNL     1      44.232 -18.759   4.181  1.00  0.00     0.014 A 
ENDBRANCH  24  26
ENDBRANCH   2  20
TORSDOF 6
ENDMDL
MODEL 8
REMARK VINA RESULT:      -8.3      7.912     11.731
REMARK  6 active torsions:
REMARK  status: ('A' for Active; 'I' for Inactive)
REMARK    1  A    between atoms: C_6  and  O_7 
REMARK    2  A    between atoms: O_7  and  C_8 
REMARK    3  A    between atoms: C_8  and  C_9 
REMARK       I    between atoms: C_9  and  N_10 
REMARK    4  A    between atoms: N_10  and  N_11 
REMARK       I    between atoms: N_11  and  C_12 
REMARK    5  A    between atoms: C_12  and  C_13 
REMARK    6  A    between atoms: C_17  and  C_18 
ROOT
HETATM    1  N   UNL     1      40.813 -15.879  -0.518  1.00  0.00    -0.262 N 
HETATM    2  C   UNL     1      41.651 -15.528   0.525  1.00  0.00     0.288 C 
HETATM    3  O   UNL     1      42.052 -14.379   0.694  1.00  0.00    -0.264 OA
HETATM    4  H   UNL     1      40.227 -16.704  -0.433  1.00  0.00     0.190 HD
ENDROOT
BRANCH   1   5
HETATM    5  N   UNL     1      40.315 -14.860  -1.340  1.00  0.00    -0.265 N 
HETATM    6  C   UNL     1      40.527 -14.943  -2.704  1.00  0.00     0.260 C 
HETATM    7  O   UNL     1      41.274 -15.771  -3.220  1.00  0.00    -0.269 OA
HETATM    8  H   UNL     1      39.523 -14.327  -0.988  1.00  0.00     0.190 HD
BRANCH   6   9
HETATM    9  C   UNL     1      39.712 -13.935  -3.510  1.00  0.00     0.280 C 
BRANCH   9  10
HETATM   10  O   UNL     1      39.876 -12.641  -2.921  1.00  0.00    -0.341 OA
BRANCH  10  11
HETATM   11  C   UNL     1      40.495 -11.777  -3.787  1.00  0.00     0.081 A 
HETATM   12  C   UNL     1      39.700 -10.933  -4.579  1.00  0.00    -0.028 A 
HETATM   13  C   UNL     1      40.328 -10.020  -5.437  1.00  0.00     0.016 A 
HETATM   14  C   UNL     1      38.199 -11.005  -4.537  1.00  0.00     0.051 C 
HETATM   15  C   UNL     1      41.723  -9.921  -5.483  1.00  0.00    -0.061 A 
HETATM   16  C   UNL     1      42.398  -8.933  -6.390  1.00  0.00     0.048 C 
HETATM   17  C   UNL     1      42.496 -10.747  -4.658  1.00  0.00     0.016 A 
HETATM   18  C   UNL     1      41.893 -11.664  -3.784  1.00  0.00    -0.028 A 
HETATM   19  C   UNL     1      42.764 -12.513  -2.902  1.00  0.00     0.051 C 
ENDBRANCH  10  11
ENDBRANCH   9  10
ENDBRANCH   6   9
ENDBRANCH   1   5
BRANCH   2  20
HETATM   20  C   UNL     1      42.029 -16.615   1.385  1.00  0.00     0.121 A 
HETATM   21  N   UNL     1      41.845 -16.572   2.737  1.00  0.00    -0.272 N 
HETATM   22  H   UNL     1      41.413 -15.824   3.272  1.00  0.00     0.189 HD
HETATM   23  N   UNL     1      42.317 -17.644   3.389  1.00  0.00    -0.174 NA
HETATM   24  C   UNL     1      42.851 -18.421   2.434  1.00  0.00     0.089 A 
HETATM   25  C   UNL     1      42.660 -17.821   1.155  1.00  0.00     0.071 A 
BRANCH  24  26
HETATM   26  C   UNL     1      43.550 -19.674   2.755  1.00  0.00    -0.006 A 
HETATM   27  C   UNL     1      44.226 -19.841   3.974  1.00  0.00     0.014 A 
HETATM   28  C   UNL     1      44.854 -21.052   4.284  1.00  0.00     0.001 A 
HETATM   29  C   UNL     1      44.814 -22.112   3.380  1.00  0.00     0.000 A 
HETATM   30  C   UNL     1      44.154 -21.960   2.164  1.00  0.00     0.001 A 
HETATM   31  C   UNL     1      43.528 -20.750   1.854  1.00  0.00     0.014 A 
ENDBRANCH  24  26
ENDBRANCH   2  20
TORSDOF 6
ENDMDL
MODEL 9
REMARK VINA RESULT:      -8.2      2.510      2.936
REMARK  6 active torsions:
REMARK  status: ('A' for Active; 'I' for Inactive)
REMARK    1  A    between atoms: C_6  and  O_7 
REMARK    2  A    between atoms: O_7  and  C_8 
REMARK    3  A    between atoms: C_8  and  C_9 
REMARK       I    between atoms: C_9  and  N_10 
REMARK    4  A    between atoms: N_10  and  N_11 
REMARK       I    between atoms: N_11  and  C_12 
REMARK    5  A    between atoms: C_12  and  C_13 
REMARK    6  A    between atoms: C_17  and  C_18 
ROOT
HETATM    1  N   UNL     1      42.508 -13.337   6.432  1.00  0.00    -0.262 N 
HETATM    2  C   UNL     1      41.805 -12.169   6.198  1.00  0.00     0.288 C 
HETATM    3  O   UNL     1      41.428 -11.837   5.077  1.00  0.00    -0.264 OA
HETATM    4  H   UNL     1      42.489 -13.756   7.357  1.00  0.00     0.190 HD
ENDROOT
BRANCH   1   5
HETATM    5  N   UNL     1      42.691 -14.225   5.365  1.00  0.00    -0.265 N 
HETATM    6  C   UNL     1      41.881 -15.342   5.283  1.00  0.00     0.260 C 
HETATM    7  O   UNL     1      41.123 -15.692   6.185  1.00  0.00    -0.269 OA
HETATM    8  H   UNL     1      43.114 -13.851   4.517  1.00  0.00     0.190 HD
BRANCH   6   9
HETATM    9  C   UNL     1      41.987 -16.077   3.949  1.00  0.00     0.280 C 
BRANCH   9  10
HETATM   10  O   UNL     1      43.371 -16.270   3.644  1.00  0.00    -0.341 OA
BRANCH  10  11
HETATM   11  C   UNL     1      43.624 -17.570   3.288  1.00  0.00     0.081 A 
HETATM   12  C   UNL     1      44.078 -18.461   4.272  1.00  0.00    -0.028 A 
HETATM   13  C   UNL     1      44.300 -19.801   3.922  1.00  0.00     0.016 A 
HETATM   14  C   UNL     1      44.348 -18.004   5.679  1.00  0.00     0.051 C 
HETATM   15  C   UNL     1      44.042 -20.256   2.625  1.00  0.00    -0.061 A 
HETATM   16  C   UNL     1      44.265 -21.693   2.252  1.00  0.00     0.048 C 
HETATM   17  C   UNL     1      43.555 -19.357   1.668  1.00  0.00     0.016 A 
HETATM   18  C   UNL     1      43.316 -18.014   1.993  1.00  0.00    -0.028 A 
HETATM   19  C   UNL     1      42.772 -17.093   0.938  1.00  0.00     0.051 C 
ENDBRANCH  10  11
ENDBRANCH   9  10
ENDBRANCH   6   9
ENDBRANCH   1   5
BRANCH   2  20
HETATM   20  C   UNL     1      41.567 -11.366   7.366  1.00  0.00     0.121 A 
HETATM   21  N   UNL     1      42.562 -11.044   8.243  1.00  0.00    -0.272 N 
HETATM   22  H   UNL     1      43.546 -11.289   8.169  1.00  0.00     0.189 HD
HETATM   23  N   UNL     1      42.148 -10.347   9.310  1.00  0.00    -0.174 NA
HETATM   24  C   UNL     1      40.822 -10.216   9.144  1.00  0.00     0.089 A 
HETATM   25  C   UNL     1      40.425 -10.817   7.914  1.00  0.00     0.071 A 
BRANCH  24  26
HETATM   26  C   UNL     1      39.975  -9.568  10.154  1.00  0.00    -0.006 A 
HETATM   27  C   UNL     1      38.574  -9.645  10.091  1.00  0.00     0.014 A 
HETATM   28  C   UNL     1      37.780  -9.056  11.081  1.00  0.00     0.001 A 
HETATM   29  C   UNL     1      38.374  -8.383  12.146  1.00  0.00     0.000 A 
HETATM   30  C   UNL     1      39.761  -8.290  12.220  1.00  0.00     0.001 A 
HETATM   31  C   UNL     1      40.555  -8.878  11.230  1.00  0.00     0.014 A 
ENDBRANCH  24  26
ENDBRANCH   2  20
TORSDOF 6
ENDMDL
MODEL 10
REMARK VINA RESULT:      -8.2      2.700      3.616
REMARK  6 active torsions:
REMARK  status: ('A' for Active; 'I' for Inactive)
REMARK    1  A    between atoms: C_6  and  O_7 
REMARK    2  A    between atoms: O_7  and  C_8 
REMARK    3  A    between atoms: C_8  and  C_9 
REMARK       I    between atoms: C_9  and  N_10 
REMARK    4  A    between atoms: N_10  and  N_11 
REMARK       I    between atoms: N_11  and  C_12 
REMARK    5  A    between atoms: C_12  and  C_13 
REMARK    6  A    between atoms: C_17  and  C_18 
ROOT
HETATM    1  N   UNL     1      41.710 -13.025   6.126  1.00  0.00    -0.262 N 
HETATM    2  C   UNL     1      40.464 -12.517   6.443  1.00  0.00     0.288 C 
HETATM    3  O   UNL     1      39.449 -12.814   5.818  1.00  0.00    -0.264 OA
HETATM    4  H   UNL     1      42.434 -13.060   6.839  1.00  0.00     0.190 HD
ENDROOT
BRANCH   1   5
HETATM    5  N   UNL     1      41.792 -14.005   5.128  1.00  0.00    -0.265 N 
HETATM    6  C   UNL     1      42.525 -15.150   5.379  1.00  0.00     0.260 C 
HETATM    7  O   UNL     1      43.251 -15.283   6.362  1.00  0.00    -0.269 OA
HETATM    8  H   UNL     1      41.039 -14.033   4.444  1.00  0.00     0.190 HD
BRANCH   6   9
HETATM    9  C   UNL     1      42.316 -16.248   4.340  1.00  0.00     0.280 C 
BRANCH   9  10
HETATM   10  O   UNL     1      43.559 -16.487   3.672  1.00  0.00    -0.341 OA
BRANCH  10  11
HETATM   11  C   UNL     1      43.669 -17.797   3.283  1.00  0.00     0.081 A 
HETATM   12  C   UNL     1      43.332 -18.139   1.964  1.00  0.00    -0.028 A 
HETATM   13  C   UNL     1      43.481 -19.470   1.550  1.00  0.00     0.016 A 
HETATM   14  C   UNL     1      42.800 -17.115   1.001  1.00  0.00     0.051 C 
HETATM   15  C   UNL     1      43.989 -20.440   2.421  1.00  0.00    -0.061 A 
HETATM   16  C   UNL     1      44.163 -21.863   1.975  1.00  0.00     0.048 C 
HETATM   17  C   UNL     1      44.353 -20.070   3.721  1.00  0.00     0.016 A 
HETATM   18  C   UNL     1      44.223 -18.743   4.159  1.00  0.00    -0.028 A 
HETATM   19  C   UNL     1      44.647 -18.390   5.556  1.00  0.00     0.051 C 
ENDBRANCH  10  11
ENDBRANCH   9  10
ENDBRANCH   6   9
ENDBRANCH   1   5
BRANCH   2  20
HETATM   20  C   UNL     1      40.453 -11.599   7.550  1.00  0.00     0.121 A 
HETATM   21  N   UNL     1      41.590 -11.005   8.014  1.00  0.00    -0.272 N 
HETATM   22  H   UNL     1      42.530 -11.105   7.639  1.00  0.00     0.189 HD
HETATM   23  N   UNL     1      41.405 -10.233   9.093  1.00  0.00    -0.174 NA
HETATM   24  C   UNL     1      40.094 -10.331   9.366  1.00  0.00     0.089 A 
HETATM   25  C   UNL     1      39.456 -11.157   8.396  1.00  0.00     0.071 A 
BRANCH  24  26
HETATM   26  C   UNL     1      39.496  -9.680  10.540  1.00  0.00    -0.006 A 
HETATM   27  C   UNL     1      40.234  -9.475  11.716  1.00  0.00     0.014 A 
HETATM   28  C   UNL     1      39.666  -8.819  12.813  1.00  0.00     0.001 A 
HETATM   29  C   UNL     1      38.352  -8.360  12.750  1.00  0.00     0.000 A 
HETATM   30  C   UNL     1      37.603  -8.562  11.594  1.00  0.00     0.001 A 
HETATM   31  C   UNL     1      38.171  -9.218  10.498  1.00  0.00     0.014 A 
ENDBRANCH  24  26
ENDBRANCH   2  20
TORSDOF 6
ENDMDL
