MODEL 1
REMARK VINA RESULT:      -8.2      0.000      0.000
REMARK  5 active torsions:
REMARK  status: ('A' for Active; 'I' for Inactive)
REMARK    1  A    between atoms: C_2  and  N_3 
REMARK    2  A    between atoms: C_2  and  C_19 
REMARK       I    between atoms: N_3  and  C_4 
REMARK    3  A    between atoms: C_4  and  C_5 
REMARK    4  A    between atoms: C_6  and  O_7 
REMARK    5  A    between atoms: O_7  and  C_8 
ROOT
HETATM    1  C   UNL     1      43.785 -19.522   2.425  1.00  0.00     0.065 A 
HETATM    2  C   UNL     1      44.463 -19.503   3.653  1.00  0.00     0.091 A 
HETATM    3  C   UNL     1      44.860 -20.715   4.238  1.00  0.00     0.038 A 
HETATM    4  C   UNL     1      44.631 -21.925   3.583  1.00  0.00     0.003 A 
HETATM    5  C   UNL     1      43.978 -21.942   2.352  1.00  0.00     0.001 A 
HETATM    6  C   UNL     1      43.546 -20.746   1.778  1.00  0.00     0.020 A 
ENDROOT
BRANCH   1   7
HETATM    7  C   UNL     1      43.271 -18.266   1.814  1.00  0.00     0.255 C 
HETATM    8  N   UNL     1      42.239 -17.652   2.496  1.00  0.00    -0.348 N 
HETATM    9  H   UNL     1      41.794 -18.133   3.265  1.00  0.00     0.163 HD
HETATM   10  O   UNL     1      43.753 -17.812   0.784  1.00  0.00    -0.268 OA
BRANCH   8  11
HETATM   11  C   UNL     1      41.615 -16.438   1.995  1.00  0.00     0.115 C 
HETATM   12  C   UNL     1      40.101 -16.622   1.862  1.00  0.00     0.037 C 
BRANCH  11  13
HETATM   13  C   UNL     1      41.992 -15.272   2.879  1.00  0.00    -0.018 A 
HETATM   14  C   UNL     1      43.231 -14.654   2.721  1.00  0.00     0.125 A 
HETATM   15  N   UNL     1      43.670 -13.616   3.471  1.00  0.00    -0.273 NA
HETATM   16  C   UNL     1      42.839 -13.170   4.435  1.00  0.00     0.116 A 
HETATM   17  C   UNL     1      41.593 -13.717   4.686  1.00  0.00     0.020 A 
HETATM   18  C   UNL     1      41.167 -14.784   3.899  1.00  0.00     0.012 A 
ENDBRANCH  11  13
ENDBRANCH   8  11
ENDBRANCH   1   7
BRANCH   2  19
HETATM   19  O   UNL     1      44.659 -18.290   4.278  1.00  0.00    -0.310 OA
BRANCH  19  20
HETATM   20  C   UNL     1      44.182 -18.110   5.554  1.00  0.00     0.076 A 
HETATM   21  C   UNL     1      44.944 -18.364   6.698  1.00  0.00     0.037 A 
HETATM   22  C   UNL     1      44.397 -18.122   7.960  1.00  0.00     0.003 A 
HETATM   23  C   UNL     1      43.105 -17.606   8.077  1.00  0.00     0.000 A 
HETATM   24  C   UNL     1      42.360 -17.324   6.932  1.00  0.00     0.003 A 
HETATM   25  C   UNL     1      42.901 -17.569   5.671  1.00  0.00     0.037 A 
ENDBRANCH  19  20
ENDBRANCH   2  19
TORSDOF 5
ENDMDL
MODEL 2
REMARK VINA RESULT:      -8.0      2.199      6.556
REMARK  5 active torsions:
REMARK  status: ('A' for Active; 'I' for Inactive)
REMARK    1  A    between atoms: C_2  and  N_3 
REMARK    2  A    between atoms: C_2  and  C_19 
REMARK       I    between atoms: N_3  and  C_4 
REMARK    3  A    between atoms: C_4  and  C_5 
REMARK    4  A    between atoms: C_6  and  O_7 
REMARK    5  A    between atoms: O_7  and  C_8 
ROOT
HETATM    1  C   UNL     1      43.969 -16.352   6.293  1.00  0.00     0.065 A 
HETATM    2  C   UNL     1      42.972 -15.972   5.381  1.00  0.00     0.091 A 
HETATM    3  C   UNL     1      42.669 -14.612   5.222  1.00  0.00     0.038 A 
HETATM    4  C   UNL     1      43.385 -13.641   5.924  1.00  0.00     0.003 A 
HETATM    5  C   UNL     1      44.390 -14.017   6.811  1.00  0.00     0.001 A 
HETATM    6  C   UNL     1      44.676 -15.369   7.005  1.00  0.00     0.020 A 
ENDROOT
BRANCH   1   7
HETATM    7  C   UNL     1      44.260 -17.789   6.553  1.00  0.00     0.255 C 
HETATM    8  N   UNL     1      44.411 -18.578   5.430  1.00  0.00    -0.348 N 
HETATM    9  H   UNL     1      44.182 -18.200   4.522  1.00  0.00     0.163 HD
HETATM   10  O   UNL     1      44.371 -18.221   7.693  1.00  0.00    -0.268 OA
BRANCH   8  11
HETATM   11  C   UNL     1      44.661 -20.006   5.535  1.00  0.00     0.115 C 
HETATM   12  C   UNL     1      43.790 -20.631   6.628  1.00  0.00     0.037 C 
BRANCH  11  13
HETATM   13  C   UNL     1      44.468 -20.654   4.183  1.00  0.00    -0.018 A 
HETATM   14  C   UNL     1      44.715 -22.016   4.025  1.00  0.00     0.125 A 
HETATM   15  N   UNL     1      44.589 -22.687   2.856  1.00  0.00    -0.273 NA
HETATM   16  C   UNL     1      44.203 -21.966   1.783  1.00  0.00     0.116 A 
HETATM   17  C   UNL     1      43.943 -20.607   1.825  1.00  0.00     0.020 A 
HETATM   18  C   UNL     1      44.081 -19.944   3.041  1.00  0.00     0.012 A 
ENDBRANCH  11  13
ENDBRANCH   8  11
ENDBRANCH   1   7
BRANCH   2  19
HETATM   19  O   UNL     1      42.276 -16.959   4.717  1.00  0.00    -0.310 OA
BRANCH  19  20
HETATM   20  C   UNL     1      42.178 -16.904   3.348  1.00  0.00     0.076 A 
HETATM   21  C   UNL     1      43.287 -16.782   2.506  1.00  0.00     0.037 A 
HETATM   22  C   UNL     1      43.105 -16.768   1.121  1.00  0.00     0.003 A 
HETATM   23  C   UNL     1      41.825 -16.899   0.581  1.00  0.00     0.000 A 
HETATM   24  C   UNL     1      40.724 -17.054   1.424  1.00  0.00     0.003 A 
HETATM   25  C   UNL     1      40.901 -17.063   2.807  1.00  0.00     0.037 A 
ENDBRANCH  19  20
ENDBRANCH   2  19
TORSDOF 5
ENDMDL
MODEL 3
REMARK VINA RESULT:      -7.9      2.007      4.438
REMARK  5 active torsions:
REMARK  status: ('A' for Active; 'I' for Inactive)
REMARK    1  A    between atoms: C_2  and  N_3 
REMARK    2  A    between atoms: C_2  and  C_19 
REMARK       I    between atoms: N_3  and  C_4 
REMARK    3  A    between atoms: C_4  and  C_5 
REMARK    4  A    between atoms: C_6  and  O_7 
REMARK    5  A    between atoms: O_7  and  C_8 
ROOT
HETATM    1  C   UNL     1      43.594 -18.544   6.115  1.00  0.00     0.065 A 
HETATM    2  C   UNL     1      44.140 -18.780   4.844  1.00  0.00     0.091 A 
HETATM    3  C   UNL     1      44.616 -20.061   4.528  1.00  0.00     0.038 A 
HETATM    4  C   UNL     1      44.502 -21.106   5.446  1.00  0.00     0.003 A 
HETATM    5  C   UNL     1      43.938 -20.877   6.699  1.00  0.00     0.001 A 
HETATM    6  C   UNL     1      43.494 -19.598   7.039  1.00  0.00     0.020 A 
ENDROOT
BRANCH   1   7
HETATM    7  C   UNL     1      43.158 -17.180   6.519  1.00  0.00     0.255 C 
HETATM    8  N   UNL     1      44.059 -16.166   6.259  1.00  0.00    -0.348 N 
HETATM    9  H   UNL     1      44.994 -16.397   5.956  1.00  0.00     0.163 HD
HETATM   10  O   UNL     1      42.063 -16.986   7.032  1.00  0.00    -0.268 OA
BRANCH   8  11
HETATM   11  C   UNL     1      43.781 -14.790   6.636  1.00  0.00     0.115 C 
HETATM   12  C   UNL     1      45.054 -14.093   7.123  1.00  0.00     0.037 C 
BRANCH  11  13
HETATM   13  C   UNL     1      43.119 -14.073   5.482  1.00  0.00    -0.018 A 
HETATM   14  C   UNL     1      41.962 -13.328   5.698  1.00  0.00     0.125 A 
HETATM   15  N   UNL     1      41.286 -12.665   4.731  1.00  0.00    -0.273 NA
HETATM   16  C   UNL     1      41.781 -12.748   3.479  1.00  0.00     0.116 A 
HETATM   17  C   UNL     1      42.916 -13.469   3.150  1.00  0.00     0.020 A 
HETATM   18  C   UNL     1      43.591 -14.142   4.165  1.00  0.00     0.012 A 
ENDBRANCH  11  13
ENDBRANCH   8  11
ENDBRANCH   1   7
BRANCH   2  19
HETATM   19  O   UNL     1      44.251 -17.722   3.968  1.00  0.00    -0.310 OA
BRANCH  19  20
HETATM   20  C   UNL     1      43.309 -17.570   2.979  1.00  0.00     0.076 A 
HETATM   21  C   UNL     1      41.934 -17.560   3.227  1.00  0.00     0.037 A 
HETATM   22  C   UNL     1      41.042 -17.366   2.170  1.00  0.00     0.003 A 
HETATM   23  C   UNL     1      41.524 -17.157   0.877  1.00  0.00     0.000 A 
HETATM   24  C   UNL     1      42.898 -17.135   0.638  1.00  0.00     0.003 A 
HETATM   25  C   UNL     1      43.791 -17.334   1.691  1.00  0.00     0.037 A 
ENDBRANCH  19  20
ENDBRANCH   2  19
TORSDOF 5
ENDMDL
MODEL 4
REMARK VINA RESULT:      -7.8      1.596      4.462
REMARK  5 active torsions:
REMARK  status: ('A' for Active; 'I' for Inactive)
REMARK    1  A    between atoms: C_2  and  N_3 
REMARK    2  A    between atoms: C_2  and  C_19 
REMARK       I    between atoms: N_3  and  C_4 
REMARK    3  A    between atoms: C_4  and  C_5 
REMARK    4  A    between atoms: C_6  and  O_7 
REMARK    5  A    between atoms: O_7  and  C_8 
ROOT
HETATM    1  C   UNL     1      42.754 -17.541   6.059  1.00  0.00     0.065 A 
HETATM    2  C   UNL     1      43.966 -17.962   5.492  1.00  0.00     0.091 A 
HETATM    3  C   UNL     1      45.067 -18.207   6.327  1.00  0.00     0.038 A 
HETATM    4  C   UNL     1      44.946 -18.085   7.712  1.00  0.00     0.003 A 
HETATM    5  C   UNL     1      43.735 -17.691   8.276  1.00  0.00     0.001 A 
HETATM    6  C   UNL     1      42.644 -17.410   7.454  1.00  0.00     0.020 A 
ENDROOT
BRANCH   1   7
HETATM    7  C   UNL     1      41.589 -17.188   5.202  1.00  0.00     0.255 C 
HETATM    8  N   UNL     1      41.625 -15.927   4.641  1.00  0.00    -0.348 N 
HETATM    9  H   UNL     1      42.332 -15.270   4.939  1.00  0.00     0.163 HD
HETATM   10  O   UNL     1      40.678 -17.981   5.005  1.00  0.00    -0.268 OA
BRANCH   8  11
HETATM   11  C   UNL     1      40.537 -15.434   3.812  1.00  0.00     0.115 C 
HETATM   12  C   UNL     1      40.127 -14.022   4.238  1.00  0.00     0.037 C 
BRANCH  11  13
HETATM   13  C   UNL     1      40.930 -15.522   2.356  1.00  0.00    -0.018 A 
HETATM   14  C   UNL     1      41.158 -14.356   1.627  1.00  0.00     0.125 A 
HETATM   15  N   UNL     1      41.497 -14.326   0.317  1.00  0.00    -0.273 NA
HETATM   16  C   UNL     1      41.610 -15.516  -0.308  1.00  0.00     0.116 A 
HETATM   17  C   UNL     1      41.393 -16.733   0.316  1.00  0.00     0.020 A 
HETATM   18  C   UNL     1      41.046 -16.734   1.664  1.00  0.00     0.012 A 
ENDBRANCH  11  13
ENDBRANCH   8  11
ENDBRANCH   1   7
BRANCH   2  19
HETATM   19  O   UNL     1      44.054 -18.056   4.120  1.00  0.00    -0.310 OA
BRANCH  19  20
HETATM   20  C   UNL     1      44.103 -19.299   3.536  1.00  0.00     0.076 A 
HETATM   21  C   UNL     1      44.708 -20.405   4.141  1.00  0.00     0.037 A 
HETATM   22  C   UNL     1      44.685 -21.643   3.496  1.00  0.00     0.003 A 
HETATM   23  C   UNL     1      44.041 -21.781   2.265  1.00  0.00     0.000 A 
HETATM   24  C   UNL     1      43.411 -20.683   1.680  1.00  0.00     0.003 A 
HETATM   25  C   UNL     1      43.436 -19.443   2.319  1.00  0.00     0.037 A 
ENDBRANCH  19  20
ENDBRANCH   2  19
TORSDOF 5
ENDMDL
MODEL 5
REMARK VINA RESULT:      -7.4      2.024      4.594
REMARK  5 active torsions:
REMARK  status: ('A' for Active; 'I' for Inactive)
REMARK    1  A    between atoms: C_2  and  N_3 
REMARK    2  A    between atoms: C_2  and  C_19 
REMARK       I    between atoms: N_3  and  C_4 
REMARK    3  A    between atoms: C_4  and  C_5 
REMARK    4  A    between atoms: C_6  and  O_7 
REMARK    5  A    between atoms: O_7  and  C_8 
ROOT
HETATM    1  C   UNL     1      43.583 -18.701   4.556  1.00  0.00     0.065 A 
HETATM    2  C   UNL     1      42.845 -18.700   3.363  1.00  0.00     0.091 A 
HETATM    3  C   UNL     1      43.236 -19.545   2.312  1.00  0.00     0.038 A 
HETATM    4  C   UNL     1      44.315 -20.416   2.469  1.00  0.00     0.003 A 
HETATM    5  C   UNL     1      45.032 -20.433   3.663  1.00  0.00     0.001 A 
HETATM    6  C   UNL     1      44.676 -19.572   4.701  1.00  0.00     0.020 A 
ENDROOT
BRANCH   1   7
HETATM    7  C   UNL     1      43.254 -17.758   5.660  1.00  0.00     0.255 C 
HETATM    8  N   UNL     1      43.501 -16.425   5.396  1.00  0.00    -0.348 N 
HETATM    9  H   UNL     1      44.009 -16.168   4.562  1.00  0.00     0.163 HD
HETATM   10  O   UNL     1      42.782 -18.154   6.718  1.00  0.00    -0.268 OA
BRANCH   8  11
HETATM   11  C   UNL     1      43.262 -15.398   6.397  1.00  0.00     0.115 C 
HETATM   12  C   UNL     1      44.572 -14.705   6.786  1.00  0.00     0.037 C 
BRANCH  11  13
HETATM   13  C   UNL     1      42.211 -14.435   5.894  1.00  0.00    -0.018 A 
HETATM   14  C   UNL     1      40.873 -14.822   5.864  1.00  0.00     0.125 A 
HETATM   15  N   UNL     1      39.861 -14.043   5.417  1.00  0.00    -0.273 NA
HETATM   16  C   UNL     1      40.193 -12.815   4.971  1.00  0.00     0.116 A 
HETATM   17  C   UNL     1      41.490 -12.333   4.945  1.00  0.00     0.020 A 
HETATM   18  C   UNL     1      42.512 -13.156   5.410  1.00  0.00     0.012 A 
ENDBRANCH  11  13
ENDBRANCH   8  11
ENDBRANCH   1   7
BRANCH   2  19
HETATM   19  O   UNL     1      41.796 -17.816   3.238  1.00  0.00    -0.310 OA
BRANCH  19  20
HETATM   20  C   UNL     1      41.784 -16.935   2.184  1.00  0.00     0.076 A 
HETATM   21  C   UNL     1      41.342 -17.280   0.904  1.00  0.00     0.037 A 
HETATM   22  C   UNL     1      41.329 -16.315  -0.106  1.00  0.00     0.003 A 
HETATM   23  C   UNL     1      41.733 -15.008   0.169  1.00  0.00     0.000 A 
HETATM   24  C   UNL     1      42.143 -14.659   1.456  1.00  0.00     0.003 A 
HETATM   25  C   UNL     1      42.162 -15.621   2.465  1.00  0.00     0.037 A 
ENDBRANCH  19  20
ENDBRANCH   2  19
TORSDOF 5
ENDMDL
MODEL 6
REMARK VINA RESULT:      -7.3      2.914      3.870
REMARK  5 active torsions:
REMARK  status: ('A' for Active; 'I' for Inactive)
REMARK    1  A    between atoms: C_2  and  N_3 
REMARK    2  A    between atoms: C_2  and  C_19 
REMARK       I    between atoms: N_3  and  C_4 
REMARK    3  A    between atoms: C_4  and  C_5 
REMARK    4  A    between atoms: C_6  and  O_7 
REMARK    5  A    between atoms: O_7  and  C_8 
ROOT
HETATM    1  C   UNL     1      42.410 -17.913   2.528  1.00  0.00     0.065 A 
HETATM    2  C   UNL     1      42.715 -17.921   3.897  1.00  0.00     0.091 A 
HETATM    3  C   UNL     1      43.585 -18.899   4.402  1.00  0.00     0.038 A 
HETATM    4  C   UNL     1      44.184 -19.824   3.545  1.00  0.00     0.003 A 
HETATM    5  C   UNL     1      43.899 -19.801   2.182  1.00  0.00     0.001 A 
HETATM    6  C   UNL     1      43.007 -18.856   1.673  1.00  0.00     0.020 A 
ENDROOT
BRANCH   1   7
HETATM    7  C   UNL     1      41.426 -16.947   1.968  1.00  0.00     0.255 C 
HETATM    8  N   UNL     1      41.957 -15.764   1.495  1.00  0.00    -0.348 N 
HETATM    9  H   UNL     1      42.927 -15.547   1.674  1.00  0.00     0.163 HD
HETATM   10  O   UNL     1      40.230 -17.208   1.923  1.00  0.00    -0.268 OA
BRANCH   8  11
HETATM   11  C   UNL     1      41.108 -14.713   0.957  1.00  0.00     0.115 C 
HETATM   12  C   UNL     1      41.383 -13.380   1.659  1.00  0.00     0.037 C 
BRANCH  11  13
HETATM   13  C   UNL     1      41.285 -14.638  -0.542  1.00  0.00    -0.018 A 
HETATM   14  C   UNL     1      41.803 -13.483  -1.124  1.00  0.00     0.125 A 
HETATM   15  N   UNL     1      41.984 -13.310  -2.454  1.00  0.00    -0.273 NA
HETATM   16  C   UNL     1      41.626 -14.336  -3.253  1.00  0.00     0.116 A 
HETATM   17  C   UNL     1      41.090 -15.523  -2.783  1.00  0.00     0.020 A 
HETATM   18  C   UNL     1      40.915 -15.673  -1.410  1.00  0.00     0.012 A 
ENDBRANCH  11  13
ENDBRANCH   8  11
ENDBRANCH   1   7
BRANCH   2  19
HETATM   19  O   UNL     1      42.094 -17.003   4.715  1.00  0.00    -0.310 OA
BRANCH  19  20
HETATM   20  C   UNL     1      42.856 -16.064   5.368  1.00  0.00     0.076 A 
HETATM   21  C   UNL     1      43.371 -16.256   6.653  1.00  0.00     0.037 A 
HETATM   22  C   UNL     1      44.166 -15.267   7.235  1.00  0.00     0.003 A 
HETATM   23  C   UNL     1      44.465 -14.102   6.526  1.00  0.00     0.000 A 
HETATM   24  C   UNL     1      43.976 -13.927   5.231  1.00  0.00     0.003 A 
HETATM   25  C   UNL     1      43.177 -14.912   4.650  1.00  0.00     0.037 A 
ENDBRANCH  19  20
ENDBRANCH   2  19
TORSDOF 5
ENDMDL
MODEL 7
REMARK VINA RESULT:      -7.2      2.434      4.802
REMARK  5 active torsions:
REMARK  status: ('A' for Active; 'I' for Inactive)
REMARK    1  A    between atoms: C_2  and  N_3 
REMARK    2  A    between atoms: C_2  and  C_19 
REMARK       I    between atoms: N_3  and  C_4 
REMARK    3  A    between atoms: C_4  and  C_5 
REMARK    4  A    between atoms: C_6  and  O_7 
REMARK    5  A    between atoms: O_7  and  C_8 
ROOT
HETATM    1  C   UNL     1      42.076 -16.245   4.401  1.00  0.00     0.065 A 
HETATM    2  C   UNL     1      42.959 -17.253   4.818  1.00  0.00     0.091 A 
HETATM    3  C   UNL     1      42.835 -17.783   6.112  1.00  0.00     0.038 A 
HETATM    4  C   UNL     1      41.813 -17.352   6.958  1.00  0.00     0.003 A 
HETATM    5  C   UNL     1      40.922 -16.369   6.534  1.00  0.00     0.001 A 
HETATM    6  C   UNL     1      41.057 -15.808   5.264  1.00  0.00     0.020 A 
ENDROOT
BRANCH   1   7
HETATM    7  C   UNL     1      42.229 -15.597   3.070  1.00  0.00     0.255 C 
HETATM    8  N   UNL     1      41.250 -15.901   2.145  1.00  0.00    -0.348 N 
HETATM    9  H   UNL     1      40.583 -16.632   2.348  1.00  0.00     0.163 HD
HETATM   10  O   UNL     1      43.158 -14.835   2.833  1.00  0.00    -0.268 OA
BRANCH   8  11
HETATM   11  C   UNL     1      41.293 -15.370   0.792  1.00  0.00     0.115 C 
HETATM   12  C   UNL     1      41.653 -16.469  -0.212  1.00  0.00     0.037 C 
BRANCH  11  13
HETATM   13  C   UNL     1      39.984 -14.686   0.474  1.00  0.00    -0.018 A 
HETATM   14  C   UNL     1      39.811 -14.053  -0.755  1.00  0.00     0.125 A 
HETATM   15  N   UNL     1      38.686 -13.399  -1.128  1.00  0.00    -0.273 NA
HETATM   16  C   UNL     1      37.679 -13.366  -0.232  1.00  0.00     0.116 A 
HETATM   17  C   UNL     1      37.747 -13.950   1.021  1.00  0.00     0.020 A 
HETATM   18  C   UNL     1      38.917 -14.616   1.378  1.00  0.00     0.012 A 
ENDBRANCH  11  13
ENDBRANCH   8  11
ENDBRANCH   1   7
BRANCH   2  19
HETATM   19  O   UNL     1      43.966 -17.643   3.962  1.00  0.00    -0.310 OA
BRANCH  19  20
HETATM   20  C   UNL     1      43.952 -18.917   3.447  1.00  0.00     0.076 A 
HETATM   21  C   UNL     1      43.284 -19.257   2.267  1.00  0.00     0.037 A 
HETATM   22  C   UNL     1      43.347 -20.569   1.792  1.00  0.00     0.003 A 
HETATM   23  C   UNL     1      44.092 -21.528   2.479  1.00  0.00     0.000 A 
HETATM   24  C   UNL     1      44.783 -21.177   3.639  1.00  0.00     0.003 A 
HETATM   25  C   UNL     1      44.719 -19.870   4.119  1.00  0.00     0.037 A 
ENDBRANCH  19  20
ENDBRANCH   2  19
TORSDOF 5
ENDMDL
MODEL 8
REMARK VINA RESULT:      -7.2      2.268      4.791
REMARK  5 active torsions:
REMARK  status: ('A' for Active; 'I' for Inactive)
REMARK    1  A    between atoms: C_2  and  N_3 
REMARK    2  A    between atoms: C_2  and  C_19 
REMARK       I    between atoms: N_3  and  C_4 
REMARK    3  A    between atoms: C_4  and  C_5 
REMARK    4  A    between atoms: C_6  and  O_7 
REMARK    5  A    between atoms: O_7  and  C_8 
ROOT
HETATM    1  C   UNL     1      42.292 -17.375   6.703  1.00  0.00     0.065 A 
HETATM    2  C   UNL     1      42.838 -18.303   5.804  1.00  0.00     0.091 A 
HETATM    3  C   UNL     1      44.060 -18.920   6.109  1.00  0.00     0.038 A 
HETATM    4  C   UNL     1      44.703 -18.655   7.319  1.00  0.00     0.003 A 
HETATM    5  C   UNL     1      44.150 -17.751   8.222  1.00  0.00     0.001 A 
HETATM    6  C   UNL     1      42.953 -17.104   7.914  1.00  0.00     0.020 A 
ENDROOT
BRANCH   1   7
HETATM    7  C   UNL     1      41.043 -16.635   6.377  1.00  0.00     0.255 C 
HETATM    8  N   UNL     1      41.210 -15.489   5.625  1.00  0.00    -0.348 N 
HETATM    9  H   UNL     1      42.141 -15.133   5.460  1.00  0.00     0.163 HD
HETATM   10  O   UNL     1      39.947 -17.039   6.744  1.00  0.00    -0.268 OA
BRANCH   8  11
HETATM   11  C   UNL     1      40.081 -14.647   5.264  1.00  0.00     0.115 C 
HETATM   12  C   UNL     1      40.139 -13.311   6.011  1.00  0.00     0.037 C 
BRANCH  11  13
HETATM   13  C   UNL     1      40.031 -14.482   3.763  1.00  0.00    -0.018 A 
HETATM   14  C   UNL     1      39.816 -13.222   3.209  1.00  0.00     0.125 A 
HETATM   15  N   UNL     1      39.737 -12.972   1.881  1.00  0.00    -0.273 NA
HETATM   16  C   UNL     1      39.874 -14.030   1.056  1.00  0.00     0.116 A 
HETATM   17  C   UNL     1      40.078 -15.326   1.498  1.00  0.00     0.020 A 
HETATM   18  C   UNL     1      40.155 -15.553   2.870  1.00  0.00     0.012 A 
ENDBRANCH  11  13
ENDBRANCH   8  11
ENDBRANCH   1   7
BRANCH   2  19
HETATM   19  O   UNL     1      42.183 -18.528   4.612  1.00  0.00    -0.310 OA
BRANCH  19  20
HETATM   20  C   UNL     1      42.773 -18.129   3.437  1.00  0.00     0.076 A 
HETATM   21  C   UNL     1      43.342 -16.865   3.259  1.00  0.00     0.037 A 
HETATM   22  C   UNL     1      43.954 -16.548   2.044  1.00  0.00     0.003 A 
HETATM   23  C   UNL     1      44.018 -17.497   1.023  1.00  0.00     0.000 A 
HETATM   24  C   UNL     1      43.477 -18.769   1.217  1.00  0.00     0.003 A 
HETATM   25  C   UNL     1      42.861 -19.086   2.426  1.00  0.00     0.037 A 
ENDBRANCH  19  20
ENDBRANCH   2  19
TORSDOF 5
ENDMDL
MODEL 9
REMARK VINA RESULT:      -7.1      2.113      6.269
REMARK  5 active torsions:
REMARK  status: ('A' for Active; 'I' for Inactive)
REMARK    1  A    between atoms: C_2  and  N_3 
REMARK    2  A    between atoms: C_2  and  C_19 
REMARK       I    between atoms: N_3  and  C_4 
REMARK    3  A    between atoms: C_4  and  C_5 
REMARK    4  A    between atoms: C_6  and  O_7 
REMARK    5  A    between atoms: O_7  and  C_8 
ROOT
HETATM    1  C   UNL     1      43.347 -16.051   5.320  1.00  0.00     0.065 A 
HETATM    2  C   UNL     1      43.637 -14.722   4.972  1.00  0.00     0.091 A 
HETATM    3  C   UNL     1      44.100 -13.839   5.959  1.00  0.00     0.038 A 
HETATM    4  C   UNL     1      44.321 -14.287   7.262  1.00  0.00     0.003 A 
HETATM    5  C   UNL     1      44.055 -15.611   7.601  1.00  0.00     0.001 A 
HETATM    6  C   UNL     1      43.561 -16.490   6.637  1.00  0.00     0.020 A 
ENDROOT
BRANCH   1   7
HETATM    7  C   UNL     1      42.773 -16.995   4.323  1.00  0.00     0.255 C 
HETATM    8  N   UNL     1      43.645 -17.428   3.343  1.00  0.00    -0.348 N 
HETATM    9  H   UNL     1      44.552 -16.993   3.257  1.00  0.00     0.163 HD
HETATM   10  O   UNL     1      41.608 -17.365   4.391  1.00  0.00    -0.268 OA
BRANCH   8  11
HETATM   11  C   UNL     1      43.210 -18.322   2.282  1.00  0.00     0.115 C 
HETATM   12  C   UNL     1      43.670 -17.806   0.916  1.00  0.00     0.037 C 
BRANCH  11  13
HETATM   13  C   UNL     1      43.688 -19.725   2.575  1.00  0.00    -0.018 A 
HETATM   14  C   UNL     1      44.375 -19.992   3.758  1.00  0.00     0.125 A 
HETATM   15  N   UNL     1      44.857 -21.208   4.106  1.00  0.00    -0.273 NA
HETATM   16  C   UNL     1      44.653 -22.214   3.231  1.00  0.00     0.116 A 
HETATM   17  C   UNL     1      43.995 -22.058   2.023  1.00  0.00     0.020 A 
HETATM   18  C   UNL     1      43.509 -20.796   1.691  1.00  0.00     0.012 A 
ENDBRANCH  11  13
ENDBRANCH   8  11
ENDBRANCH   1   7
BRANCH   2  19
HETATM   19  O   UNL     1      43.392 -14.312   3.679  1.00  0.00    -0.310 OA
BRANCH  19  20
HETATM   20  C   UNL     1      42.107 -13.999   3.308  1.00  0.00     0.076 A 
HETATM   21  C   UNL     1      41.229 -13.278   4.123  1.00  0.00     0.037 A 
HETATM   22  C   UNL     1      39.949 -12.971   3.657  1.00  0.00     0.003 A 
HETATM   23  C   UNL     1      39.557 -13.361   2.376  1.00  0.00     0.000 A 
HETATM   24  C   UNL     1      40.446 -14.053   1.553  1.00  0.00     0.003 A 
HETATM   25  C   UNL     1      41.724 -14.365   2.017  1.00  0.00     0.037 A 
ENDBRANCH  19  20
ENDBRANCH   2  19
TORSDOF 5
ENDMDL
MODEL 10
REMARK VINA RESULT:      -7.0      2.032      6.016
REMARK  5 active torsions:
REMARK  status: ('A' for Active; 'I' for Inactive)
REMARK    1  A    between atoms: C_2  and  N_3 
REMARK    2  A    between atoms: C_2  and  C_19 
REMARK       I    between atoms: N_3  and  C_4 
REMARK    3  A    between atoms: C_4  and  C_5 
REMARK    4  A    between atoms: C_6  and  O_7 
REMARK    5  A    between atoms: O_7  and  C_8 
ROOT
HETATM    1  C   UNL     1      42.437 -15.984   1.142  1.00  0.00     0.065 A 
HETATM    2  C   UNL     1      41.997 -14.725   1.578  1.00  0.00     0.091 A 
HETATM    3  C   UNL     1      41.059 -14.020   0.809  1.00  0.00     0.038 A 
HETATM    4  C   UNL     1      40.526 -14.586  -0.350  1.00  0.00     0.003 A 
HETATM    5  C   UNL     1      40.945 -15.846  -0.770  1.00  0.00     0.001 A 
HETATM    6  C   UNL     1      41.905 -16.541  -0.033  1.00  0.00     0.020 A 
ENDROOT
BRANCH   1   7
HETATM    7  C   UNL     1      43.494 -16.725   1.882  1.00  0.00     0.255 C 
HETATM    8  N   UNL     1      43.070 -17.395   3.013  1.00  0.00    -0.348 N 
HETATM    9  H   UNL     1      42.134 -17.243   3.360  1.00  0.00     0.163 HD
HETATM   10  O   UNL     1      44.655 -16.741   1.492  1.00  0.00    -0.268 OA
BRANCH   8  11
HETATM   11  C   UNL     1      44.002 -18.129   3.854  1.00  0.00     0.115 C 
HETATM   12  C   UNL     1      43.625 -17.988   5.332  1.00  0.00     0.037 C 
BRANCH  11  13
HETATM   13  C   UNL     1      44.073 -19.567   3.397  1.00  0.00    -0.018 A 
HETATM   14  C   UNL     1      44.696 -20.521   4.199  1.00  0.00     0.125 A 
HETATM   15  N   UNL     1      44.827 -21.828   3.874  1.00  0.00    -0.273 NA
HETATM   16  C   UNL     1      44.318 -22.211   2.684  1.00  0.00     0.116 A 
HETATM   17  C   UNL     1      43.691 -21.345   1.805  1.00  0.00     0.020 A 
HETATM   18  C   UNL     1      43.570 -20.006   2.166  1.00  0.00     0.012 A 
ENDBRANCH  11  13
ENDBRANCH   8  11
ENDBRANCH   1   7
BRANCH   2  19
HETATM   19  O   UNL     1      42.556 -14.192   2.719  1.00  0.00    -0.310 OA
BRANCH  19  20
HETATM   20  C   UNL     1      41.742 -13.879   3.781  1.00  0.00     0.076 A 
HETATM   21  C   UNL     1      40.971 -14.828   4.458  1.00  0.00     0.037 A 
HETATM   22  C   UNL     1      40.195 -14.435   5.551  1.00  0.00     0.003 A 
HETATM   23  C   UNL     1      40.209 -13.107   5.979  1.00  0.00     0.000 A 
HETATM   24  C   UNL     1      41.006 -12.169   5.321  1.00  0.00     0.003 A 
HETATM   25  C   UNL     1      41.777 -12.557   4.226  1.00  0.00     0.037 A 
ENDBRANCH  19  20
ENDBRANCH   2  19
TORSDOF 5
ENDMDL
