MODEL 1
REMARK VINA RESULT:      -9.1      0.000      0.000
REMARK  7 active torsions:
REMARK  status: ('A' for Active; 'I' for Inactive)
REMARK    1  A    between atoms: C_2  and  N_3 
REMARK    2  A    between atoms: C_2  and  C_26 
REMARK       I    between atoms: N_3  and  C_4 
REMARK    3  A    between atoms: C_4  and  C_5 
REMARK    4  A    between atoms: C_8  and  C_9 
REMARK       I    between atoms: C_9  and  N_10 
REMARK    5  A    between atoms: N_10  and  C_11 
REMARK    6  A    between atoms: N_20  and  C_21 
REMARK    7  A    between atoms: C_29  and  O_30 
ROOT
HETATM    1  C   UNL     1      43.955 -14.070   6.684  1.00  0.00     0.098 A 
HETATM    2  C   UNL     1      43.847 -15.561   6.741  1.00  0.00     0.206 A 
HETATM    3  O   UNL     1      44.318 -16.193   7.689  1.00  0.00    -0.286 OA
HETATM    4  C   UNL     1      43.174 -16.268   5.609  1.00  0.00     0.098 A 
HETATM    5  C   UNL     1      42.605 -15.499   4.664  1.00  0.00     0.112 A 
HETATM    6  N   UNL     1      42.605 -14.120   4.696  1.00  0.00    -0.360 N 
HETATM    7  C   UNL     1      43.329 -13.456   5.665  1.00  0.00     0.112 A 
ENDROOT
BRANCH   1   8
HETATM    8  C   UNL     1      44.724 -13.238   7.650  1.00  0.00     0.257 C 
HETATM    9  N   UNL     1      43.970 -12.579   8.585  1.00  0.00    -0.348 N 
HETATM   10  H   UNL     1      42.961 -12.708   8.571  1.00  0.00     0.163 HD
HETATM   11  O   UNL     1      45.950 -13.171   7.610  1.00  0.00    -0.267 OA
BRANCH   9  12
HETATM   12  C   UNL     1      44.554 -11.844   9.693  1.00  0.00     0.114 C 
HETATM   13  C   UNL     1      44.957 -12.791  10.826  1.00  0.00     0.037 C 
BRANCH  12  14
HETATM   14  C   UNL     1      43.598 -10.775  10.190  1.00  0.00    -0.036 A 
HETATM   15  C   UNL     1      42.461 -10.451   9.439  1.00  0.00     0.012 A 
HETATM   16  C   UNL     1      41.573  -9.465   9.878  1.00  0.00     0.037 A 
HETATM   17  C   UNL     1      41.798  -8.787  11.077  1.00  0.00     0.068 A 
HETATM   18  C   UNL     1      42.930  -9.095  11.830  1.00  0.00     0.037 A 
HETATM   19  C   UNL     1      43.824 -10.077  11.389  1.00  0.00     0.012 A 
BRANCH  17  20
HETATM   20  O   UNL     1      40.850  -7.852  11.393  1.00  0.00    -0.356 OA
HETATM   21  C   UNL     1      39.807  -8.265  12.267  1.00  0.00     0.210 C 
ENDBRANCH  17  20
ENDBRANCH  12  14
ENDBRANCH   9  12
ENDBRANCH   1   8
BRANCH   4  22
HETATM   22  C   UNL     1      43.110 -17.748   5.454  1.00  0.00     0.257 C 
HETATM   23  N   UNL     1      43.741 -18.243   4.339  1.00  0.00    -0.352 N 
HETATM   24  H   UNL     1      44.103 -17.565   3.670  1.00  0.00     0.163 HD
HETATM   25  O   UNL     1      42.524 -18.448   6.275  1.00  0.00    -0.267 OA
BRANCH  23  26
HETATM   26  C   UNL     1      43.705 -19.638   3.900  1.00  0.00     0.084 C 
HETATM   27  C   UNL     1      43.517 -19.760   2.383  1.00  0.00     0.025 C 
HETATM   28  C   UNL     1      43.379 -21.193   1.865  1.00  0.00     0.002 C 
HETATM   29  C   UNL     1      44.695 -21.963   1.901  1.00  0.00     0.000 C 
HETATM   30  C   UNL     1      44.996 -22.670   3.219  1.00  0.00     0.000 C 
HETATM   31  C   UNL     1      44.657 -21.923   4.505  1.00  0.00     0.002 C 
HETATM   32  C   UNL     1      44.900 -20.417   4.471  1.00  0.00     0.025 C 
ENDBRANCH  23  26
ENDBRANCH   4  22
BRANCH   6  33
HETATM   33  C   UNL     1      42.035 -13.369   3.571  1.00  0.00     0.089 A 
HETATM   34  C   UNL     1      40.545 -13.194   3.416  1.00  0.00     0.028 A 
HETATM   35  C   UNL     1      41.402 -12.014   3.759  1.00  0.00     0.028 A 
ENDBRANCH   6  33
TORSDOF 7
ENDMDL
MODEL 2
REMARK VINA RESULT:      -8.8      3.914      9.007
REMARK  7 active torsions:
REMARK  status: ('A' for Active; 'I' for Inactive)
REMARK    1  A    between atoms: C_2  and  N_3 
REMARK    2  A    between atoms: C_2  and  C_26 
REMARK       I    between atoms: N_3  and  C_4 
REMARK    3  A    between atoms: C_4  and  C_5 
REMARK    4  A    between atoms: C_8  and  C_9 
REMARK       I    between atoms: C_9  and  N_10 
REMARK    5  A    between atoms: N_10  and  C_11 
REMARK    6  A    between atoms: N_20  and  C_21 
REMARK    7  A    between atoms: C_29  and  O_30 
ROOT
HETATM    1  C   UNL     1      40.762 -15.139   5.091  1.00  0.00     0.098 A 
HETATM    2  C   UNL     1      40.632 -14.990   3.608  1.00  0.00     0.206 A 
HETATM    3  O   UNL     1      40.914 -15.922   2.851  1.00  0.00    -0.286 OA
HETATM    4  C   UNL     1      40.175 -13.675   3.063  1.00  0.00     0.098 A 
HETATM    5  C   UNL     1      39.799 -12.745   3.957  1.00  0.00     0.112 A 
HETATM    6  N   UNL     1      39.804 -12.947   5.322  1.00  0.00    -0.360 N 
HETATM    7  C   UNL     1      40.341 -14.107   5.842  1.00  0.00     0.112 A 
ENDROOT
BRANCH   1   8
HETATM    8  C   UNL     1      41.345 -16.326   5.776  1.00  0.00     0.257 C 
HETATM    9  N   UNL     1      42.630 -16.637   5.415  1.00  0.00    -0.348 N 
HETATM   10  H   UNL     1      43.097 -16.045   4.732  1.00  0.00     0.163 HD
HETATM   11  O   UNL     1      40.713 -16.960   6.616  1.00  0.00    -0.267 OA
BRANCH   9  12
HETATM   12  C   UNL     1      43.409 -17.665   6.083  1.00  0.00     0.114 C 
HETATM   13  C   UNL     1      44.623 -17.058   6.789  1.00  0.00     0.037 C 
BRANCH  12  14
HETATM   14  C   UNL     1      43.831 -18.740   5.099  1.00  0.00    -0.036 A 
HETATM   15  C   UNL     1      43.551 -18.589   3.735  1.00  0.00     0.012 A 
HETATM   16  C   UNL     1      43.927 -19.572   2.816  1.00  0.00     0.037 A 
HETATM   17  C   UNL     1      44.597 -20.722   3.237  1.00  0.00     0.068 A 
HETATM   18  C   UNL     1      44.876 -20.888   4.593  1.00  0.00     0.037 A 
HETATM   19  C   UNL     1      44.493 -19.908   5.516  1.00  0.00     0.012 A 
BRANCH  17  20
HETATM   20  O   UNL     1      44.912 -21.600   2.236  1.00  0.00    -0.356 OA
HETATM   21  C   UNL     1      43.868 -21.951   1.337  1.00  0.00     0.210 C 
ENDBRANCH  17  20
ENDBRANCH  12  14
ENDBRANCH   9  12
ENDBRANCH   1   8
BRANCH   4  22
HETATM   22  C   UNL     1      40.129 -13.329   1.615  1.00  0.00     0.257 C 
HETATM   23  N   UNL     1      39.969 -14.397   0.767  1.00  0.00    -0.352 N 
HETATM   24  H   UNL     1      39.999 -15.329   1.181  1.00  0.00     0.163 HD
HETATM   25  O   UNL     1      40.234 -12.166   1.237  1.00  0.00    -0.267 OA
BRANCH  23  26
HETATM   26  C   UNL     1      40.026 -14.330  -0.692  1.00  0.00     0.084 C 
HETATM   27  C   UNL     1      40.872 -15.462  -1.289  1.00  0.00     0.025 C 
HETATM   28  C   UNL     1      41.050 -15.401  -2.807  1.00  0.00     0.002 C 
HETATM   29  C   UNL     1      39.778 -15.766  -3.566  1.00  0.00     0.000 C 
HETATM   30  C   UNL     1      38.821 -14.607  -3.822  1.00  0.00     0.000 C 
HETATM   31  C   UNL     1      38.624 -13.602  -2.692  1.00  0.00     0.002 C 
HETATM   32  C   UNL     1      38.615 -14.192  -1.284  1.00  0.00     0.025 C 
ENDBRANCH  23  26
ENDBRANCH   4  22
BRANCH   6  33
HETATM   33  C   UNL     1      39.459 -11.839   6.221  1.00  0.00     0.089 A 
HETATM   34  C   UNL     1      40.510 -10.894   6.744  1.00  0.00     0.028 A 
HETATM   35  C   UNL     1      39.491 -10.404   5.761  1.00  0.00     0.028 A 
ENDBRANCH   6  33
TORSDOF 7
ENDMDL
MODEL 3
REMARK VINA RESULT:      -8.8      4.965      9.019
REMARK  7 active torsions:
REMARK  status: ('A' for Active; 'I' for Inactive)
REMARK    1  A    between atoms: C_2  and  N_3 
REMARK    2  A    between atoms: C_2  and  C_26 
REMARK       I    between atoms: N_3  and  C_4 
REMARK    3  A    between atoms: C_4  and  C_5 
REMARK    4  A    between atoms: C_8  and  C_9 
REMARK       I    between atoms: C_9  and  N_10 
REMARK    5  A    between atoms: N_10  and  C_11 
REMARK    6  A    between atoms: N_20  and  C_21 
REMARK    7  A    between atoms: C_29  and  O_30 
ROOT
HETATM    1  C   UNL     1      40.202 -14.954   1.643  1.00  0.00     0.098 A 
HETATM    2  C   UNL     1      41.094 -16.130   1.885  1.00  0.00     0.206 A 
HETATM    3  O   UNL     1      41.546 -16.785   0.943  1.00  0.00    -0.286 OA
HETATM    4  C   UNL     1      41.407 -16.507   3.297  1.00  0.00     0.098 A 
HETATM    5  C   UNL     1      40.953 -15.686   4.260  1.00  0.00     0.112 A 
HETATM    6  N   UNL     1      40.238 -14.533   4.009  1.00  0.00    -0.360 N 
HETATM    7  C   UNL     1      39.835 -14.241   2.722  1.00  0.00     0.112 A 
ENDROOT
BRANCH   1   8
HETATM    8  C   UNL     1      39.677 -14.547   0.310  1.00  0.00     0.257 C 
HETATM    9  N   UNL     1      40.496 -14.827  -0.751  1.00  0.00    -0.348 N 
HETATM   10  H   UNL     1      41.380 -15.297  -0.570  1.00  0.00     0.163 HD
HETATM   11  O   UNL     1      38.577 -14.015   0.186  1.00  0.00    -0.267 OA
BRANCH   9  12
HETATM   12  C   UNL     1      40.088 -14.639  -2.132  1.00  0.00     0.114 C 
HETATM   13  C   UNL     1      40.403 -15.880  -2.970  1.00  0.00     0.037 C 
BRANCH  12  14
HETATM   14  C   UNL     1      40.744 -13.403  -2.721  1.00  0.00    -0.036 A 
HETATM   15  C   UNL     1      42.023 -13.021  -2.295  1.00  0.00     0.012 A 
HETATM   16  C   UNL     1      42.639 -11.882  -2.821  1.00  0.00     0.037 A 
HETATM   17  C   UNL     1      41.997 -11.106  -3.787  1.00  0.00     0.068 A 
HETATM   18  C   UNL     1      40.722 -11.472  -4.214  1.00  0.00     0.037 A 
HETATM   19  C   UNL     1      40.099 -12.608  -3.683  1.00  0.00     0.012 A 
BRANCH  17  20
HETATM   20  O   UNL     1      42.713 -10.025  -4.222  1.00  0.00    -0.356 OA
HETATM   21  C   UNL     1      42.018  -8.787  -4.307  1.00  0.00     0.210 C 
ENDBRANCH  17  20
ENDBRANCH  12  14
ENDBRANCH   9  12
ENDBRANCH   1   8
BRANCH   4  22
HETATM   22  C   UNL     1      42.162 -17.726   3.701  1.00  0.00     0.257 C 
HETATM   23  N   UNL     1      43.227 -18.043   2.893  1.00  0.00    -0.352 N 
HETATM   24  H   UNL     1      43.348 -17.491   2.045  1.00  0.00     0.163 HD
HETATM   25  O   UNL     1      41.830 -18.382   4.683  1.00  0.00    -0.267 OA
BRANCH  23  26
HETATM   26  C   UNL     1      44.036 -19.257   3.004  1.00  0.00     0.084 C 
HETATM   27  C   UNL     1      44.430 -19.557   4.455  1.00  0.00     0.025 C 
HETATM   28  C   UNL     1      45.353 -20.763   4.636  1.00  0.00     0.002 C 
HETATM   29  C   UNL     1      44.640 -22.092   4.411  1.00  0.00     0.000 C 
HETATM   30  C   UNL     1      44.607 -22.573   2.964  1.00  0.00     0.000 C 
HETATM   31  C   UNL     1      44.358 -21.524   1.885  1.00  0.00     0.002 C 
HETATM   32  C   UNL     1      43.369 -20.423   2.257  1.00  0.00     0.025 C 
ENDBRANCH  23  26
ENDBRANCH   4  22
BRANCH   6  33
HETATM   33  C   UNL     1      39.709 -13.749   5.133  1.00  0.00     0.089 A 
HETATM   34  C   UNL     1      40.522 -12.658   5.782  1.00  0.00     0.028 A 
HETATM   35  C   UNL     1      39.310 -12.305   4.975  1.00  0.00     0.028 A 
ENDBRANCH   6  33
TORSDOF 7
ENDMDL
MODEL 4
REMARK VINA RESULT:      -8.6      3.443      7.408
REMARK  7 active torsions:
REMARK  status: ('A' for Active; 'I' for Inactive)
REMARK    1  A    between atoms: C_2  and  N_3 
REMARK    2  A    between atoms: C_2  and  C_26 
REMARK       I    between atoms: N_3  and  C_4 
REMARK    3  A    between atoms: C_4  and  C_5 
REMARK    4  A    between atoms: C_8  and  C_9 
REMARK       I    between atoms: C_9  and  N_10 
REMARK    5  A    between atoms: N_10  and  C_11 
REMARK    6  A    between atoms: N_20  and  C_21 
REMARK    7  A    between atoms: C_29  and  O_30 
ROOT
HETATM    1  C   UNL     1      42.845 -13.647   4.994  1.00  0.00     0.098 A 
HETATM    2  C   UNL     1      42.833 -15.106   4.664  1.00  0.00     0.206 A 
HETATM    3  O   UNL     1      42.299 -15.516   3.631  1.00  0.00    -0.286 OA
HETATM    4  C   UNL     1      43.462 -16.058   5.630  1.00  0.00     0.098 A 
HETATM    5  C   UNL     1      44.103 -15.521   6.683  1.00  0.00     0.112 A 
HETATM    6  N   UNL     1      44.214 -14.163   6.901  1.00  0.00    -0.360 N 
HETATM    7  C   UNL     1      43.532 -13.280   6.090  1.00  0.00     0.112 A 
ENDROOT
BRANCH   1   8
HETATM    8  C   UNL     1      42.132 -12.595   4.217  1.00  0.00     0.257 C 
HETATM    9  N   UNL     1      41.956 -12.869   2.887  1.00  0.00    -0.348 N 
HETATM   10  H   UNL     1      42.300 -13.756   2.526  1.00  0.00     0.163 HD
HETATM   11  O   UNL     1      41.720 -11.568   4.750  1.00  0.00    -0.267 OA
BRANCH   9  12
HETATM   12  C   UNL     1      41.157 -12.033   2.009  1.00  0.00     0.114 C 
HETATM   13  C   UNL     1      39.666 -12.343   2.166  1.00  0.00     0.037 C 
BRANCH  12  14
HETATM   14  C   UNL     1      41.599 -12.195   0.566  1.00  0.00    -0.036 A 
HETATM   15  C   UNL     1      42.204 -11.124  -0.104  1.00  0.00     0.012 A 
HETATM   16  C   UNL     1      42.611 -11.254  -1.435  1.00  0.00     0.037 A 
HETATM   17  C   UNL     1      42.431 -12.455  -2.121  1.00  0.00     0.068 A 
HETATM   18  C   UNL     1      41.824 -13.527  -1.467  1.00  0.00     0.037 A 
HETATM   19  C   UNL     1      41.409 -13.397  -0.137  1.00  0.00     0.012 A 
BRANCH  17  20
HETATM   20  O   UNL     1      42.879 -12.450  -3.414  1.00  0.00    -0.356 OA
HETATM   21  C   UNL     1      42.348 -11.449  -4.273  1.00  0.00     0.210 C 
ENDBRANCH  17  20
ENDBRANCH  12  14
ENDBRANCH   9  12
ENDBRANCH   1   8
BRANCH   4  22
HETATM   22  C   UNL     1      43.409 -17.542   5.511  1.00  0.00     0.257 C 
HETATM   23  N   UNL     1      43.816 -18.042   4.299  1.00  0.00    -0.352 N 
HETATM   24  H   UNL     1      44.018 -17.368   3.561  1.00  0.00     0.163 HD
HETATM   25  O   UNL     1      43.020 -18.240   6.443  1.00  0.00    -0.267 OA
BRANCH  23  26
HETATM   26  C   UNL     1      43.731 -19.446   3.896  1.00  0.00     0.084 C 
HETATM   27  C   UNL     1      43.499 -19.599   2.388  1.00  0.00     0.025 C 
HETATM   28  C   UNL     1      43.310 -21.039   1.908  1.00  0.00     0.002 C 
HETATM   29  C   UNL     1      44.604 -21.844   1.929  1.00  0.00     0.000 C 
HETATM   30  C   UNL     1      44.921 -22.528   3.256  1.00  0.00     0.000 C 
HETATM   31  C   UNL     1      44.637 -21.742   4.531  1.00  0.00     0.002 C 
HETATM   32  C   UNL     1      44.920 -20.243   4.454  1.00  0.00     0.025 C 
ENDBRANCH  23  26
ENDBRANCH   4  22
BRANCH   6  33
HETATM   33  C   UNL     1      44.857 -13.677   8.128  1.00  0.00     0.089 A 
HETATM   34  C   UNL     1      45.973 -12.664   8.082  1.00  0.00     0.028 A 
HETATM   35  C   UNL     1      44.637 -12.276   8.639  1.00  0.00     0.028 A 
ENDBRANCH   6  33
TORSDOF 7
ENDMDL
MODEL 5
REMARK VINA RESULT:      -8.5      2.734      3.839
REMARK  7 active torsions:
REMARK  status: ('A' for Active; 'I' for Inactive)
REMARK    1  A    between atoms: C_2  and  N_3 
REMARK    2  A    between atoms: C_2  and  C_26 
REMARK       I    between atoms: N_3  and  C_4 
REMARK    3  A    between atoms: C_4  and  C_5 
REMARK    4  A    between atoms: C_8  and  C_9 
REMARK       I    between atoms: C_9  and  N_10 
REMARK    5  A    between atoms: N_10  and  C_11 
REMARK    6  A    between atoms: N_20  and  C_21 
REMARK    7  A    between atoms: C_29  and  O_30 
ROOT
HETATM    1  C   UNL     1      39.687 -12.975   4.425  1.00  0.00     0.098 A 
HETATM    2  C   UNL     1      40.184 -14.280   4.962  1.00  0.00     0.206 A 
HETATM    3  O   UNL     1      40.341 -14.447   6.173  1.00  0.00    -0.286 OA
HETATM    4  C   UNL     1      40.507 -15.370   3.991  1.00  0.00     0.098 A 
HETATM    5  C   UNL     1      40.218 -15.139   2.699  1.00  0.00     0.112 A 
HETATM    6  N   UNL     1      39.640 -13.973   2.240  1.00  0.00    -0.360 N 
HETATM    7  C   UNL     1      39.453 -12.913   3.103  1.00  0.00     0.112 A 
ENDROOT
BRANCH   1   8
HETATM    8  C   UNL     1      39.468 -11.750   5.244  1.00  0.00     0.257 C 
HETATM    9  N   UNL     1      40.470 -11.451   6.129  1.00  0.00    -0.348 N 
HETATM   10  H   UNL     1      41.286 -12.058   6.159  1.00  0.00     0.163 HD
HETATM   11  O   UNL     1      38.463 -11.057   5.110  1.00  0.00    -0.267 OA
BRANCH   9  12
HETATM   12  C   UNL     1      40.499 -10.220   6.899  1.00  0.00     0.114 C 
HETATM   13  C   UNL     1      41.452  -9.202   6.268  1.00  0.00     0.037 C 
BRANCH  12  14
HETATM   14  C   UNL     1      40.878 -10.501   8.342  1.00  0.00    -0.036 A 
HETATM   15  C   UNL     1      42.225 -10.482   8.727  1.00  0.00     0.012 A 
HETATM   16  C   UNL     1      42.592 -10.745  10.050  1.00  0.00     0.037 A 
HETATM   17  C   UNL     1      41.625 -11.024  11.016  1.00  0.00     0.068 A 
HETATM   18  C   UNL     1      40.282 -11.051  10.644  1.00  0.00     0.037 A 
HETATM   19  C   UNL     1      39.912 -10.796   9.319  1.00  0.00     0.012 A 
BRANCH  17  20
HETATM   20  O   UNL     1      42.119 -11.256  12.271  1.00  0.00    -0.356 OA
HETATM   21  C   UNL     1      43.179 -10.415  12.709  1.00  0.00     0.210 C 
ENDBRANCH  17  20
ENDBRANCH  12  14
ENDBRANCH   9  12
ENDBRANCH   1   8
BRANCH   4  22
HETATM   22  C   UNL     1      41.137 -16.670   4.357  1.00  0.00     0.257 C 
HETATM   23  N   UNL     1      42.017 -17.169   3.428  1.00  0.00    -0.352 N 
HETATM   24  H   UNL     1      42.088 -16.675   2.540  1.00  0.00     0.163 HD
HETATM   25  O   UNL     1      40.866 -17.232   5.414  1.00  0.00    -0.267 OA
BRANCH  23  26
HETATM   26  C   UNL     1      42.658 -18.483   3.497  1.00  0.00     0.084 C 
HETATM   27  C   UNL     1      42.949 -19.055   2.104  1.00  0.00     0.025 C 
HETATM   28  C   UNL     1      43.536 -20.467   2.098  1.00  0.00     0.002 C 
HETATM   29  C   UNL     1      44.987 -20.506   2.567  1.00  0.00     0.000 C 
HETATM   30  C   UNL     1      45.177 -20.637   4.075  1.00  0.00     0.000 C 
HETATM   31  C   UNL     1      44.238 -19.835   4.969  1.00  0.00     0.002 C 
HETATM   32  C   UNL     1      43.862 -18.450   4.450  1.00  0.00     0.025 C 
ENDBRANCH  23  26
ENDBRANCH   4  22
BRANCH   6  33
HETATM   33  C   UNL     1      39.444 -13.780   0.797  1.00  0.00     0.089 A 
HETATM   34  C   UNL     1      38.082 -13.904   0.165  1.00  0.00     0.028 A 
HETATM   35  C   UNL     1      38.746 -12.564   0.246  1.00  0.00     0.028 A 
ENDBRANCH   6  33
TORSDOF 7
ENDMDL
MODEL 6
REMARK VINA RESULT:      -8.5      2.843      4.025
REMARK  7 active torsions:
REMARK  status: ('A' for Active; 'I' for Inactive)
REMARK    1  A    between atoms: C_2  and  N_3 
REMARK    2  A    between atoms: C_2  and  C_26 
REMARK       I    between atoms: N_3  and  C_4 
REMARK    3  A    between atoms: C_4  and  C_5 
REMARK    4  A    between atoms: C_8  and  C_9 
REMARK       I    between atoms: C_9  and  N_10 
REMARK    5  A    between atoms: N_10  and  C_11 
REMARK    6  A    between atoms: N_20  and  C_21 
REMARK    7  A    between atoms: C_29  and  O_30 
ROOT
HETATM    1  C   UNL     1      40.979 -11.114   6.251  1.00  0.00     0.098 A 
HETATM    2  C   UNL     1      41.130 -12.499   5.706  1.00  0.00     0.206 A 
HETATM    3  O   UNL     1      41.971 -13.273   6.168  1.00  0.00    -0.286 OA
HETATM    4  C   UNL     1      40.251 -12.915   4.570  1.00  0.00     0.098 A 
HETATM    5  C   UNL     1      39.298 -12.046   4.190  1.00  0.00     0.112 A 
HETATM    6  N   UNL     1      39.092 -10.822   4.793  1.00  0.00    -0.360 N 
HETATM    7  C   UNL     1      39.973 -10.374   5.755  1.00  0.00     0.112 A 
ENDROOT
BRANCH   1   8
HETATM    8  C   UNL     1      41.876 -10.502   7.271  1.00  0.00     0.257 C 
HETATM    9  N   UNL     1      42.406 -11.376   8.184  1.00  0.00    -0.348 N 
HETATM   10  H   UNL     1      42.173 -12.363   8.101  1.00  0.00     0.163 HD
HETATM   11  O   UNL     1      42.128  -9.300   7.269  1.00  0.00    -0.267 OA
BRANCH   9  12
HETATM   12  C   UNL     1      43.413 -10.986   9.155  1.00  0.00     0.114 C 
HETATM   13  C   UNL     1      44.570 -11.987   9.175  1.00  0.00     0.037 C 
BRANCH  12  14
HETATM   14  C   UNL     1      42.797 -10.835  10.534  1.00  0.00    -0.036 A 
HETATM   15  C   UNL     1      43.604 -10.489  11.625  1.00  0.00     0.012 A 
HETATM   16  C   UNL     1      43.054 -10.353  12.903  1.00  0.00     0.037 A 
HETATM   17  C   UNL     1      41.689 -10.552  13.117  1.00  0.00     0.068 A 
HETATM   18  C   UNL     1      40.877 -10.903  12.040  1.00  0.00     0.037 A 
HETATM   19  C   UNL     1      41.427 -11.047  10.761  1.00  0.00     0.012 A 
BRANCH  17  20
HETATM   20  O   UNL     1      41.282 -10.381  14.412  1.00  0.00    -0.356 OA
HETATM   21  C   UNL     1      42.188  -9.725  15.289  1.00  0.00     0.210 C 
ENDBRANCH  17  20
ENDBRANCH  12  14
ENDBRANCH   9  12
ENDBRANCH   1   8
BRANCH   4  22
HETATM   22  C   UNL     1      40.373 -14.203   3.832  1.00  0.00     0.257 C 
HETATM   23  N   UNL     1      41.584 -14.836   3.968  1.00  0.00    -0.352 N 
HETATM   24  H   UNL     1      42.319 -14.334   4.465  1.00  0.00     0.163 HD
HETATM   25  O   UNL     1      39.446 -14.638   3.157  1.00  0.00    -0.267 OA
BRANCH  23  26
HETATM   26  C   UNL     1      41.992 -16.038   3.241  1.00  0.00     0.084 C 
HETATM   27  C   UNL     1      42.533 -15.711   1.844  1.00  0.00     0.025 C 
HETATM   28  C   UNL     1      42.894 -16.929   0.992  1.00  0.00     0.002 C 
HETATM   29  C   UNL     1      44.162 -17.629   1.468  1.00  0.00     0.000 C 
HETATM   30  C   UNL     1      43.953 -18.684   2.550  1.00  0.00     0.000 C 
HETATM   31  C   UNL     1      42.947 -18.365   3.650  1.00  0.00     0.002 C 
HETATM   32  C   UNL     1      42.915 -16.909   4.107  1.00  0.00     0.025 C 
ENDBRANCH  23  26
ENDBRANCH   4  22
BRANCH   6  33
HETATM   33  C   UNL     1      38.083  -9.906   4.247  1.00  0.00     0.089 A 
HETATM   34  C   UNL     1      38.438  -8.873   3.207  1.00  0.00     0.028 A 
HETATM   35  C   UNL     1      37.571 -10.037   2.835  1.00  0.00     0.028 A 
ENDBRANCH   6  33
TORSDOF 7
ENDMDL
MODEL 7
REMARK VINA RESULT:      -8.4      2.379      9.912
REMARK  7 active torsions:
REMARK  status: ('A' for Active; 'I' for Inactive)
REMARK    1  A    between atoms: C_2  and  N_3 
REMARK    2  A    between atoms: C_2  and  C_26 
REMARK       I    between atoms: N_3  and  C_4 
REMARK    3  A    between atoms: C_4  and  C_5 
REMARK    4  A    between atoms: C_8  and  C_9 
REMARK       I    between atoms: C_9  and  N_10 
REMARK    5  A    between atoms: N_10  and  C_11 
REMARK    6  A    between atoms: N_20  and  C_21 
REMARK    7  A    between atoms: C_29  and  O_30 
ROOT
HETATM    1  C   UNL     1      41.801 -13.248   4.034  1.00  0.00     0.098 A 
HETATM    2  C   UNL     1      41.837 -12.763   5.449  1.00  0.00     0.206 A 
HETATM    3  O   UNL     1      42.814 -12.986   6.169  1.00  0.00    -0.286 OA
HETATM    4  C   UNL     1      40.651 -12.024   5.978  1.00  0.00     0.098 A 
HETATM    5  C   UNL     1      39.670 -11.742   5.102  1.00  0.00     0.112 A 
HETATM    6  N   UNL     1      39.714 -12.086   3.766  1.00  0.00    -0.360 N 
HETATM    7  C   UNL     1      40.741 -12.877   3.294  1.00  0.00     0.112 A 
ENDROOT
BRANCH   1   8
HETATM    8  C   UNL     1      42.831 -14.125   3.411  1.00  0.00     0.257 C 
HETATM    9  N   UNL     1      42.381 -15.349   2.992  1.00  0.00    -0.348 N 
HETATM   10  H   UNL     1      41.395 -15.570   3.114  1.00  0.00     0.163 HD
HETATM   11  O   UNL     1      43.994 -13.755   3.274  1.00  0.00    -0.267 OA
BRANCH   9  12
HETATM   12  C   UNL     1      43.204 -16.273   2.231  1.00  0.00     0.114 C 
HETATM   13  C   UNL     1      42.489 -16.718   0.954  1.00  0.00     0.037 C 
BRANCH  12  14
HETATM   14  C   UNL     1      43.595 -17.467   3.083  1.00  0.00    -0.036 A 
HETATM   15  C   UNL     1      43.553 -17.372   4.480  1.00  0.00     0.012 A 
HETATM   16  C   UNL     1      43.916 -18.460   5.279  1.00  0.00     0.037 A 
HETATM   17  C   UNL     1      44.319 -19.665   4.702  1.00  0.00     0.068 A 
HETATM   18  C   UNL     1      44.370 -19.770   3.313  1.00  0.00     0.037 A 
HETATM   19  C   UNL     1      44.015 -18.680   2.511  1.00  0.00     0.012 A 
BRANCH  17  20
HETATM   20  O   UNL     1      44.639 -20.650   5.597  1.00  0.00    -0.356 OA
HETATM   21  C   UNL     1      44.720 -21.976   5.091  1.00  0.00     0.210 C 
ENDBRANCH  17  20
ENDBRANCH  12  14
ENDBRANCH   9  12
ENDBRANCH   1   8
BRANCH   4  22
HETATM   22  C   UNL     1      40.479 -11.602   7.396  1.00  0.00     0.257 C 
HETATM   23  N   UNL     1      41.600 -11.065   7.981  1.00  0.00    -0.352 N 
HETATM   24  H   UNL     1      42.465 -11.094   7.443  1.00  0.00     0.163 HD
HETATM   25  O   UNL     1      39.406 -11.741   7.975  1.00  0.00    -0.267 OA
BRANCH  23  26
HETATM   26  C   UNL     1      41.720 -10.701   9.393  1.00  0.00     0.084 C 
HETATM   27  C   UNL     1      43.016 -11.233  10.017  1.00  0.00     0.025 C 
HETATM   28  C   UNL     1      43.166 -10.967  11.515  1.00  0.00     0.002 C 
HETATM   29  C   UNL     1      43.455  -9.503  11.830  1.00  0.00     0.000 C 
HETATM   30  C   UNL     1      42.222  -8.619  11.988  1.00  0.00     0.000 C 
HETATM   31  C   UNL     1      41.069  -8.848  11.017  1.00  0.00     0.002 C 
HETATM   32  C   UNL     1      41.476  -9.196   9.587  1.00  0.00     0.025 C 
ENDBRANCH  23  26
ENDBRANCH   4  22
BRANCH   6  33
HETATM   33  C   UNL     1      38.554 -11.812   2.909  1.00  0.00     0.089 A 
HETATM   34  C   UNL     1      38.534 -10.637   1.965  1.00  0.00     0.028 A 
HETATM   35  C   UNL     1      38.599 -12.030   1.419  1.00  0.00     0.028 A 
ENDBRANCH   6  33
TORSDOF 7
ENDMDL
MODEL 8
REMARK VINA RESULT:      -8.2      3.810      9.140
REMARK  7 active torsions:
REMARK  status: ('A' for Active; 'I' for Inactive)
REMARK    1  A    between atoms: C_2  and  N_3 
REMARK    2  A    between atoms: C_2  and  C_26 
REMARK       I    between atoms: N_3  and  C_4 
REMARK    3  A    between atoms: C_4  and  C_5 
REMARK    4  A    between atoms: C_8  and  C_9 
REMARK       I    between atoms: C_9  and  N_10 
REMARK    5  A    between atoms: N_10  and  C_11 
REMARK    6  A    between atoms: N_20  and  C_21 
REMARK    7  A    between atoms: C_29  and  O_30 
ROOT
HETATM    1  C   UNL     1      40.438 -14.688   5.184  1.00  0.00     0.098 A 
HETATM    2  C   UNL     1      40.209 -14.484   3.720  1.00  0.00     0.206 A 
HETATM    3  O   UNL     1      40.382 -15.404   2.918  1.00  0.00    -0.286 OA
HETATM    4  C   UNL     1      39.788 -13.129   3.249  1.00  0.00     0.098 A 
HETATM    5  C   UNL     1      39.530 -12.209   4.196  1.00  0.00     0.112 A 
HETATM    6  N   UNL     1      39.624 -12.457   5.550  1.00  0.00    -0.360 N 
HETATM    7  C   UNL     1      40.132 -13.660   5.994  1.00  0.00     0.112 A 
ENDROOT
BRANCH   1   8
HETATM    8  C   UNL     1      41.003 -15.926   5.789  1.00  0.00     0.257 C 
HETATM    9  N   UNL     1      42.311 -16.185   5.478  1.00  0.00    -0.348 N 
HETATM   10  H   UNL     1      42.807 -15.525   4.883  1.00  0.00     0.163 HD
HETATM   11  O   UNL     1      40.335 -16.645   6.528  1.00  0.00    -0.267 OA
BRANCH   9  12
HETATM   12  C   UNL     1      43.070 -17.261   6.093  1.00  0.00     0.114 C 
HETATM   13  C   UNL     1      44.286 -16.713   6.842  1.00  0.00     0.037 C 
BRANCH  12  14
HETATM   14  C   UNL     1      43.485 -18.285   5.052  1.00  0.00    -0.036 A 
HETATM   15  C   UNL     1      43.036 -18.160   3.731  1.00  0.00     0.012 A 
HETATM   16  C   UNL     1      43.404 -19.098   2.762  1.00  0.00     0.037 A 
HETATM   17  C   UNL     1      44.232 -20.174   3.089  1.00  0.00     0.068 A 
HETATM   18  C   UNL     1      44.679 -20.312   4.401  1.00  0.00     0.037 A 
HETATM   19  C   UNL     1      44.306 -19.378   5.375  1.00  0.00     0.012 A 
BRANCH  17  20
HETATM   20  O   UNL     1      44.519 -21.012   2.046  1.00  0.00    -0.356 OA
HETATM   21  C   UNL     1      44.621 -22.398   2.347  1.00  0.00     0.210 C 
ENDBRANCH  17  20
ENDBRANCH  12  14
ENDBRANCH   9  12
ENDBRANCH   1   8
BRANCH   4  22
HETATM   22  C   UNL     1      39.655 -12.733   1.819  1.00  0.00     0.257 C 
HETATM   23  N   UNL     1      40.783 -12.917   1.059  1.00  0.00    -0.352 N 
HETATM   24  H   UNL     1      41.631 -13.206   1.546  1.00  0.00     0.163 HD
HETATM   25  O   UNL     1      38.604 -12.274   1.383  1.00  0.00    -0.267 OA
BRANCH  23  26
HETATM   26  C   UNL     1      40.943 -12.486  -0.329  1.00  0.00     0.084 C 
HETATM   27  C   UNL     1      42.342 -11.920  -0.600  1.00  0.00     0.025 C 
HETATM   28  C   UNL     1      42.552 -11.365  -2.010  1.00  0.00     0.002 C 
HETATM   29  C   UNL     1      42.640 -12.459  -3.068  1.00  0.00     0.000 C 
HETATM   30  C   UNL     1      41.304 -12.909  -3.648  1.00  0.00     0.000 C 
HETATM   31  C   UNL     1      40.135 -13.051  -2.679  1.00  0.00     0.002 C 
HETATM   32  C   UNL     1      40.491 -13.591  -1.297  1.00  0.00     0.025 C 
ENDBRANCH  23  26
ENDBRANCH   4  22
BRANCH   6  33
HETATM   33  C   UNL     1      39.408 -11.361   6.503  1.00  0.00     0.089 A 
HETATM   34  C   UNL     1      40.545 -10.485   6.965  1.00  0.00     0.028 A 
HETATM   35  C   UNL     1      39.478  -9.916   6.082  1.00  0.00     0.028 A 
ENDBRANCH   6  33
TORSDOF 7
ENDMDL
MODEL 9
REMARK VINA RESULT:      -8.1      5.099      9.386
REMARK  7 active torsions:
REMARK  status: ('A' for Active; 'I' for Inactive)
REMARK    1  A    between atoms: C_2  and  N_3 
REMARK    2  A    between atoms: C_2  and  C_26 
REMARK       I    between atoms: N_3  and  C_4 
REMARK    3  A    between atoms: C_4  and  C_5 
REMARK    4  A    between atoms: C_8  and  C_9 
REMARK       I    between atoms: C_9  and  N_10 
REMARK    5  A    between atoms: N_10  and  C_11 
REMARK    6  A    between atoms: N_20  and  C_21 
REMARK    7  A    between atoms: C_29  and  O_30 
ROOT
HETATM    1  C   UNL     1      41.544 -14.159   1.224  1.00  0.00     0.098 A 
HETATM    2  C   UNL     1      42.114 -15.519   1.473  1.00  0.00     0.206 A 
HETATM    3  O   UNL     1      42.517 -16.217   0.539  1.00  0.00    -0.286 OA
HETATM    4  C   UNL     1      42.162 -16.023   2.880  1.00  0.00     0.098 A 
HETATM    5  C   UNL     1      41.792 -15.164   3.846  1.00  0.00     0.112 A 
HETATM    6  N   UNL     1      41.390 -13.866   3.604  1.00  0.00    -0.360 N 
HETATM    7  C   UNL     1      41.220 -13.430   2.307  1.00  0.00     0.112 A 
ENDROOT
BRANCH   1   8
HETATM    8  C   UNL     1      41.288 -13.580  -0.124  1.00  0.00     0.257 C 
HETATM    9  N   UNL     1      42.103 -14.043  -1.124  1.00  0.00    -0.348 N 
HETATM   10  H   UNL     1      42.801 -14.745  -0.892  1.00  0.00     0.163 HD
HETATM   11  O   UNL     1      40.393 -12.761  -0.314  1.00  0.00    -0.267 OA
BRANCH   9  12
HETATM   12  C   UNL     1      41.903 -13.705  -2.522  1.00  0.00     0.114 C 
HETATM   13  C   UNL     1      42.113 -12.208  -2.759  1.00  0.00     0.037 C 
BRANCH  12  14
HETATM   14  C   UNL     1      40.526 -14.144  -2.987  1.00  0.00    -0.036 A 
HETATM   15  C   UNL     1      39.511 -13.194  -3.157  1.00  0.00     0.012 A 
HETATM   16  C   UNL     1      38.235 -13.581  -3.578  1.00  0.00     0.037 A 
HETATM   17  C   UNL     1      37.949 -14.921  -3.846  1.00  0.00     0.068 A 
HETATM   18  C   UNL     1      38.949 -15.876  -3.675  1.00  0.00     0.037 A 
HETATM   19  C   UNL     1      40.225 -15.492  -3.246  1.00  0.00     0.012 A 
BRANCH  17  20
HETATM   20  O   UNL     1      36.666 -15.161  -4.256  1.00  0.00    -0.356 OA
HETATM   21  C   UNL     1      35.977 -14.082  -4.874  1.00  0.00     0.210 C 
ENDBRANCH  17  20
ENDBRANCH  12  14
ENDBRANCH   9  12
ENDBRANCH   1   8
BRANCH   4  22
HETATM   22  C   UNL     1      42.571 -17.401   3.272  1.00  0.00     0.257 C 
HETATM   23  N   UNL     1      43.824 -17.775   2.854  1.00  0.00    -0.352 N 
HETATM   24  H   UNL     1      44.320 -17.134   2.236  1.00  0.00     0.163 HD
HETATM   25  O   UNL     1      41.819 -18.126   3.916  1.00  0.00    -0.267 OA
BRANCH  23  26
HETATM   26  C   UNL     1      44.395 -19.114   3.000  1.00  0.00     0.084 C 
HETATM   27  C   UNL     1      44.630 -19.484   4.469  1.00  0.00     0.025 C 
HETATM   28  C   UNL     1      45.309 -20.836   4.693  1.00  0.00     0.002 C 
HETATM   29  C   UNL     1      44.388 -22.016   4.402  1.00  0.00     0.000 C 
HETATM   30  C   UNL     1      44.368 -22.479   2.949  1.00  0.00     0.000 C 
HETATM   31  C   UNL     1      44.383 -21.400   1.871  1.00  0.00     0.002 C 
HETATM   32  C   UNL     1      43.583 -20.140   2.194  1.00  0.00     0.025 C 
ENDBRANCH  23  26
ENDBRANCH   4  22
BRANCH   6  33
HETATM   33  C   UNL     1      40.920 -13.034   4.719  1.00  0.00     0.089 A 
HETATM   34  C   UNL     1      39.463 -12.675   4.873  1.00  0.00     0.028 A 
HETATM   35  C   UNL     1      40.108 -13.608   5.852  1.00  0.00     0.028 A 
ENDBRANCH   6  33
TORSDOF 7
ENDMDL
MODEL 10
REMARK VINA RESULT:      -8.0      3.807      5.978
REMARK  7 active torsions:
REMARK  status: ('A' for Active; 'I' for Inactive)
REMARK    1  A    between atoms: C_2  and  N_3 
REMARK    2  A    between atoms: C_2  and  C_26 
REMARK       I    between atoms: N_3  and  C_4 
REMARK    3  A    between atoms: C_4  and  C_5 
REMARK    4  A    between atoms: C_8  and  C_9 
REMARK       I    between atoms: C_9  and  N_10 
REMARK    5  A    between atoms: N_10  and  C_11 
REMARK    6  A    between atoms: N_20  and  C_21 
REMARK    7  A    between atoms: C_29  and  O_30 
ROOT
HETATM    1  C   UNL     1      40.436 -13.888   5.554  1.00  0.00     0.098 A 
HETATM    2  C   UNL     1      40.225 -14.029   4.079  1.00  0.00     0.206 A 
HETATM    3  O   UNL     1      39.773 -13.095   3.414  1.00  0.00    -0.286 OA
HETATM    4  C   UNL     1      40.555 -15.337   3.436  1.00  0.00     0.098 A 
HETATM    5  C   UNL     1      41.131 -16.269   4.215  1.00  0.00     0.112 A 
HETATM    6  N   UNL     1      41.435 -16.074   5.547  1.00  0.00    -0.360 N 
HETATM    7  C   UNL     1      41.023 -14.921   6.183  1.00  0.00     0.112 A 
ENDROOT
BRANCH   1   8
HETATM    8  C   UNL     1      40.016 -12.710   6.362  1.00  0.00     0.257 C 
HETATM    9  N   UNL     1      41.039 -11.959   6.876  1.00  0.00    -0.348 N 
HETATM   10  H   UNL     1      41.995 -12.235   6.666  1.00  0.00     0.163 HD
HETATM   11  O   UNL     1      38.831 -12.434   6.532  1.00  0.00    -0.267 OA
BRANCH   9  12
HETATM   12  C   UNL     1      40.822 -10.696   7.561  1.00  0.00     0.114 C 
HETATM   13  C   UNL     1      41.442  -9.536   6.778  1.00  0.00     0.037 C 
BRANCH  12  14
HETATM   14  C   UNL     1      41.370 -10.753   8.976  1.00  0.00    -0.036 A 
HETATM   15  C   UNL     1      42.751 -10.675   9.194  1.00  0.00     0.012 A 
HETATM   16  C   UNL     1      43.273 -10.733  10.489  1.00  0.00     0.037 A 
HETATM   17  C   UNL     1      42.428 -10.862  11.593  1.00  0.00     0.068 A 
HETATM   18  C   UNL     1      41.052 -10.948  11.388  1.00  0.00     0.037 A 
HETATM   19  C   UNL     1      40.528 -10.897  10.091  1.00  0.00     0.012 A 
BRANCH  17  20
HETATM   20  O   UNL     1      43.067 -10.900  12.802  1.00  0.00    -0.356 OA
HETATM   21  C   UNL     1      42.330 -10.450  13.932  1.00  0.00     0.210 C 
ENDBRANCH  17  20
ENDBRANCH  12  14
ENDBRANCH   9  12
ENDBRANCH   1   8
BRANCH   4  22
HETATM   22  C   UNL     1      40.273 -15.676   2.013  1.00  0.00     0.257 C 
HETATM   23  N   UNL     1      40.344 -14.618   1.140  1.00  0.00    -0.352 N 
HETATM   24  H   UNL     1      40.478 -13.691   1.542  1.00  0.00     0.163 HD
HETATM   25  O   UNL     1      39.995 -16.822   1.676  1.00  0.00    -0.267 OA
BRANCH  23  26
HETATM   26  C   UNL     1      39.983 -14.669  -0.276  1.00  0.00     0.084 C 
HETATM   27  C   UNL     1      39.106 -13.482  -0.691  1.00  0.00     0.025 C 
HETATM   28  C   UNL     1      38.615 -13.518  -2.139  1.00  0.00     0.002 C 
HETATM   29  C   UNL     1      39.722 -13.228  -3.146  1.00  0.00     0.000 C 
HETATM   30  C   UNL     1      40.530 -14.443  -3.589  1.00  0.00     0.000 C 
HETATM   31  C   UNL     1      40.893 -15.468  -2.519  1.00  0.00     0.002 C 
HETATM   32  C   UNL     1      41.230 -14.891  -1.146  1.00  0.00     0.025 C 
ENDBRANCH  23  26
ENDBRANCH   4  22
BRANCH   6  33
HETATM   33  C   UNL     1      41.982 -17.185   6.336  1.00  0.00     0.089 A 
HETATM   34  C   UNL     1      43.439 -17.565   6.253  1.00  0.00     0.028 A 
HETATM   35  C   UNL     1      42.900 -16.950   7.508  1.00  0.00     0.028 A 
ENDBRANCH   6  33
TORSDOF 7
ENDMDL
