MODEL 1
REMARK VINA RESULT:      -8.7      0.000      0.000
REMARK  7 active torsions:
REMARK  status: ('A' for Active; 'I' for Inactive)
REMARK    1  A    between atoms: C_3  and  C_4 
REMARK    2  A    between atoms: C_9  and  N_10 
REMARK       I    between atoms: N_10  and  C_11 
REMARK       I    between atoms: C_11  and  N_15 
REMARK    3  A    between atoms: N_15  and  CA_16 
REMARK    4  A    between atoms: CA_16  and  C_17 
REMARK    5  A    between atoms: CA_16  and  CB_19 
REMARK    6  A    between atoms: C_17  and  O_18 
REMARK    7  A    between atoms: CB_19  and  CG_20 
ROOT
HETATM    1  N   UNK A   0      45.487 -12.538   8.628  1.00  0.00    -0.309 N 
HETATM    2  C   UNK A   0      45.289 -13.215   7.467  1.00  0.00     0.321 C 
HETATM    3  O   UNK A   0      46.202 -13.253   6.642  1.00  0.00    -0.247 OA
HETATM    4  H   UNK A   0      46.460 -12.273   8.709  1.00  0.00     0.170 HD
ATOM      5  N   TRP A   1      44.119 -13.879   7.293  1.00  0.00    -0.336 N 
ATOM      6  H   TRP A   1      43.590 -14.121   8.118  1.00  0.00     0.164 HD
ENDROOT
BRANCH   5   7
ATOM      7  CA  TRP A   1      43.943 -14.844   6.209  1.00  0.00     0.114 C 
BRANCH   7   8
ATOM      8  C   TRP A   1      43.204 -14.189   5.030  1.00  0.00     0.189 C 
BRANCH   8   9
ATOM      9  O   TRP A   1      44.113 -13.553   4.131  1.00  0.00    -0.399 OA
ATOM     10  H   TRP A   1      44.247 -12.646   4.454  1.00  0.00     0.209 HD
ENDBRANCH   8   9
ENDBRANCH   7   8
BRANCH   7  11
ATOM     11  CB  TRP A   1      43.305 -16.163   6.713  1.00  0.00     0.068 C 
BRANCH  11  12
ATOM     12  CG  TRP A   1      43.804 -17.435   6.087  1.00  0.00    -0.028 A 
ATOM     13  CD2 TRP A   1      43.523 -17.951   4.777  1.00  0.00    -0.002 A 
ATOM     14  CE2 TRP A   1      44.234 -19.144   4.637  1.00  0.00     0.042 A 
ATOM     15  CE3 TRP A   1      42.736 -17.519   3.689  1.00  0.00     0.014 A 
ATOM     16  CZ2 TRP A   1      44.223 -19.904   3.461  1.00  0.00     0.030 A 
ATOM     17  NE1 TRP A   1      44.882 -19.373   5.827  1.00  0.00    -0.365 N 
ATOM     18  CH2 TRP A   1      43.462 -19.432   2.389  1.00  0.00     0.002 A 
ATOM     19  CZ3 TRP A   1      42.725 -18.257   2.500  1.00  0.00     0.001 A 
ATOM     20  HE1 TRP A   1      45.456 -20.181   6.018  1.00  0.00     0.165 HD
ATOM     21  CD1 TRP A   1      44.629 -18.357   6.706  1.00  0.00     0.096 A 
ENDBRANCH  11  12
ENDBRANCH   7  11
ENDBRANCH   5   7
BRANCH   1  22
HETATM   22  C   UNK A   0      44.658 -12.226   9.717  1.00  0.00     0.036 A 
HETATM   23  C   UNK A   0      44.688 -12.876  10.948  1.00  0.00     0.030 A 
HETATM   24  C   UNK A   0      43.861 -12.448  11.993  1.00  0.00     0.018 A 
HETATM   25  C   UNK A   0      42.971 -11.379  11.814  1.00  0.00     0.015 A 
HETATM   26  C   UNK A   0      42.883 -10.755  10.556  1.00  0.00    -0.046 A 
HETATM   27  C   UNK A   0      41.942  -9.613  10.276  1.00  0.00     0.049 C 
HETATM   28  C   UNK A   0      43.732 -11.193   9.522  1.00  0.00     0.037 A 
BRANCH  25  29
HETATM   29  C   UNK A   0      42.153 -10.913  12.974  1.00  0.00     0.156 C 
HETATM   30  C   UNK A   0      42.749  -9.889  13.905  1.00  0.00     0.097 C 
HETATM   31  O   UNK A   0      41.011 -11.333  13.141  1.00  0.00    -0.293 OA
ENDBRANCH  25  29
ENDBRANCH   1  22
TORSDOF 7
ENDMDL
MODEL 2
REMARK VINA RESULT:      -8.5      5.491      9.004
REMARK  7 active torsions:
REMARK  status: ('A' for Active; 'I' for Inactive)
REMARK    1  A    between atoms: C_3  and  C_4 
REMARK    2  A    between atoms: C_9  and  N_10 
REMARK       I    between atoms: N_10  and  C_11 
REMARK       I    between atoms: C_11  and  N_15 
REMARK    3  A    between atoms: N_15  and  CA_16 
REMARK    4  A    between atoms: CA_16  and  C_17 
REMARK    5  A    between atoms: CA_16  and  CB_19 
REMARK    6  A    between atoms: C_17  and  O_18 
REMARK    7  A    between atoms: CB_19  and  CG_20 
ROOT
HETATM    1  N   UNK A   0      41.201 -16.582  -0.073  1.00  0.00    -0.309 N 
HETATM    2  C   UNK A   0      41.213 -15.405  -0.752  1.00  0.00     0.321 C 
HETATM    3  O   UNK A   0      40.470 -15.277  -1.726  1.00  0.00    -0.247 OA
HETATM    4  H   UNK A   0      40.436 -17.159  -0.399  1.00  0.00     0.170 HD
ATOM      5  N   TRP A   1      41.991 -14.396  -0.288  1.00  0.00    -0.336 N 
ATOM      6  H   TRP A   1      42.268 -14.424   0.682  1.00  0.00     0.164 HD
ENDROOT
BRANCH   5   7
ATOM      7  CA  TRP A   1      41.849 -13.030  -0.793  1.00  0.00     0.114 C 
BRANCH   7   8
ATOM      8  C   TRP A   1      42.893 -12.759  -1.889  1.00  0.00     0.189 C 
BRANCH   8   9
ATOM      9  O   TRP A   1      42.748 -13.662  -2.985  1.00  0.00    -0.399 OA
ATOM     10  H   TRP A   1      41.853 -13.536  -3.342  1.00  0.00     0.209 HD
ENDBRANCH   8   9
ENDBRANCH   7   8
BRANCH   7  11
ATOM     11  CB  TRP A   1      41.842 -11.992   0.358  1.00  0.00     0.068 C 
BRANCH  11  12
ATOM     12  CG  TRP A   1      41.234 -12.435   1.660  1.00  0.00    -0.028 A 
ATOM     13  CD2 TRP A   1      41.862 -13.147   2.737  1.00  0.00    -0.002 A 
ATOM     14  CE2 TRP A   1      40.908 -13.306   3.744  1.00  0.00     0.042 A 
ATOM     15  CE3 TRP A   1      43.153 -13.669   2.961  1.00  0.00     0.014 A 
ATOM     16  CZ2 TRP A   1      41.187 -13.929   4.966  1.00  0.00     0.030 A 
ATOM     17  NE1 TRP A   1      39.735 -12.761   3.282  1.00  0.00    -0.365 N 
ATOM     18  CH2 TRP A   1      42.484 -14.405   5.172  1.00  0.00     0.002 A 
ATOM     19  CZ3 TRP A   1      43.456 -14.281   4.183  1.00  0.00     0.001 A 
ATOM     20  HE1 TRP A   1      38.866 -12.756   3.796  1.00  0.00     0.165 HD
ATOM     21  CD1 TRP A   1      39.916 -12.238   2.032  1.00  0.00     0.096 A 
ENDBRANCH  11  12
ENDBRANCH   7  11
ENDBRANCH   5   7
BRANCH   1  22
HETATM   22  C   UNK A   0      41.957 -17.087   0.996  1.00  0.00     0.036 A 
HETATM   23  C   UNK A   0      43.289 -17.485   0.907  1.00  0.00     0.030 A 
HETATM   24  C   UNK A   0      43.974 -17.919   2.048  1.00  0.00     0.018 A 
HETATM   25  C   UNK A   0      43.329 -17.987   3.291  1.00  0.00     0.015 A 
HETATM   26  C   UNK A   0      41.966 -17.651   3.384  1.00  0.00    -0.046 A 
HETATM   27  C   UNK A   0      41.197 -17.714   4.677  1.00  0.00     0.049 C 
HETATM   28  C   UNK A   0      41.299 -17.206   2.227  1.00  0.00     0.037 A 
BRANCH  25  29
HETATM   29  C   UNK A   0      44.115 -18.393   4.495  1.00  0.00     0.156 C 
HETATM   30  C   UNK A   0      44.577 -19.824   4.600  1.00  0.00     0.097 C 
HETATM   31  O   UNK A   0      44.404 -17.570   5.359  1.00  0.00    -0.293 OA
ENDBRANCH  25  29
ENDBRANCH   1  22
TORSDOF 7
ENDMDL
MODEL 3
REMARK VINA RESULT:      -8.2      4.615      6.866
REMARK  7 active torsions:
REMARK  status: ('A' for Active; 'I' for Inactive)
REMARK    1  A    between atoms: C_3  and  C_4 
REMARK    2  A    between atoms: C_9  and  N_10 
REMARK       I    between atoms: N_10  and  C_11 
REMARK       I    between atoms: C_11  and  N_15 
REMARK    3  A    between atoms: N_15  and  CA_16 
REMARK    4  A    between atoms: CA_16  and  C_17 
REMARK    5  A    between atoms: CA_16  and  CB_19 
REMARK    6  A    between atoms: C_17  and  O_18 
REMARK    7  A    between atoms: CB_19  and  CG_20 
ROOT
HETATM    1  N   UNK A   0      40.177 -15.781   5.318  1.00  0.00    -0.309 N 
HETATM    2  C   UNK A   0      40.910 -16.485   6.220  1.00  0.00     0.321 C 
HETATM    3  O   UNK A   0      40.327 -17.263   6.976  1.00  0.00    -0.247 OA
HETATM    4  H   UNK A   0      39.226 -16.127   5.303  1.00  0.00     0.170 HD
ATOM      5  N   TRP A   1      42.259 -16.354   6.205  1.00  0.00    -0.336 N 
ATOM      6  H   TRP A   1      42.688 -16.017   5.356  1.00  0.00     0.164 HD
ENDROOT
BRANCH   5   7
ATOM      7  CA  TRP A   1      43.123 -17.273   6.946  1.00  0.00     0.114 C 
BRANCH   7   8
ATOM      8  C   TRP A   1      43.362 -16.744   8.370  1.00  0.00     0.189 C 
BRANCH   8   9
ATOM      9  O   TRP A   1      43.719 -17.796   9.267  1.00  0.00    -0.399 OA
ATOM     10  H   TRP A   1      44.282 -17.405   9.956  1.00  0.00     0.209 HD
ENDBRANCH   8   9
ENDBRANCH   7   8
BRANCH   7  11
ATOM     11  CB  TRP A   1      44.416 -17.604   6.159  1.00  0.00     0.068 C 
BRANCH  11  12
ATOM     12  CG  TRP A   1      44.246 -18.380   4.882  1.00  0.00    -0.028 A 
ATOM     13  CD2 TRP A   1      43.878 -17.888   3.585  1.00  0.00    -0.002 A 
ATOM     14  CE2 TRP A   1      43.878 -18.976   2.710  1.00  0.00     0.042 A 
ATOM     15  CE3 TRP A   1      43.550 -16.620   3.062  1.00  0.00     0.014 A 
ATOM     16  CZ2 TRP A   1      43.599 -18.856   1.344  1.00  0.00     0.030 A 
ATOM     17  NE1 TRP A   1      44.183 -20.092   3.451  1.00  0.00    -0.365 N 
ATOM     18  CH2 TRP A   1      43.312 -17.581   0.849  1.00  0.00     0.002 A 
ATOM     19  CZ3 TRP A   1      43.283 -16.476   1.695  1.00  0.00     0.001 A 
ATOM     20  HE1 TRP A   1      44.231 -21.030   3.078  1.00  0.00     0.165 HD
ATOM     21  CD1 TRP A   1      44.402 -19.749   4.756  1.00  0.00     0.096 A 
ENDBRANCH  11  12
ENDBRANCH   7  11
ENDBRANCH   5   7
BRANCH   1  22
HETATM   22  C   UNK A   0      40.494 -14.774   4.393  1.00  0.00     0.036 A 
HETATM   23  C   UNK A   0      41.101 -13.563   4.716  1.00  0.00     0.030 A 
HETATM   24  C   UNK A   0      41.432 -12.649   3.709  1.00  0.00     0.018 A 
HETATM   25  C   UNK A   0      41.137 -12.921   2.365  1.00  0.00     0.015 A 
HETATM   26  C   UNK A   0      40.465 -14.111   2.030  1.00  0.00    -0.046 A 
HETATM   27  C   UNK A   0      40.096 -14.469   0.615  1.00  0.00     0.049 C 
HETATM   28  C   UNK A   0      40.152 -15.022   3.057  1.00  0.00     0.037 A 
BRANCH  25  29
HETATM   29  C   UNK A   0      41.566 -11.947   1.316  1.00  0.00     0.156 C 
HETATM   30  C   UNK A   0      40.670 -10.772   1.020  1.00  0.00     0.097 C 
HETATM   31  O   UNK A   0      42.639 -12.087   0.735  1.00  0.00    -0.293 OA
ENDBRANCH  25  29
ENDBRANCH   1  22
TORSDOF 7
ENDMDL
MODEL 4
REMARK VINA RESULT:      -8.1      5.949      8.620
REMARK  7 active torsions:
REMARK  status: ('A' for Active; 'I' for Inactive)
REMARK    1  A    between atoms: C_3  and  C_4 
REMARK    2  A    between atoms: C_9  and  N_10 
REMARK       I    between atoms: N_10  and  C_11 
REMARK       I    between atoms: C_11  and  N_15 
REMARK    3  A    between atoms: N_15  and  CA_16 
REMARK    4  A    between atoms: CA_16  and  C_17 
REMARK    5  A    between atoms: CA_16  and  CB_19 
REMARK    6  A    between atoms: C_17  and  O_18 
REMARK    7  A    between atoms: CB_19  and  CG_20 
ROOT
HETATM    1  N   UNK A   0      40.494 -15.422   0.631  1.00  0.00    -0.309 N 
HETATM    2  C   UNK A   0      40.670 -16.200   1.731  1.00  0.00     0.321 C 
HETATM    3  O   UNK A   0      40.009 -17.233   1.836  1.00  0.00    -0.247 OA
HETATM    4  H   UNK A   0      39.920 -15.910  -0.046  1.00  0.00     0.170 HD
ATOM      5  N   TRP A   1      41.615 -15.841   2.636  1.00  0.00    -0.336 N 
ATOM      6  H   TRP A   1      42.354 -15.229   2.324  1.00  0.00     0.164 HD
ENDROOT
BRANCH   5   7
ATOM      7  CA  TRP A   1      42.050 -16.758   3.688  1.00  0.00     0.114 C 
BRANCH   7   8
ATOM      8  C   TRP A   1      41.590 -16.244   5.063  1.00  0.00     0.189 C 
BRANCH   8   9
ATOM      9  O   TRP A   1      40.319 -16.784   5.425  1.00  0.00    -0.399 OA
ATOM     10  H   TRP A   1      39.848 -16.095   5.922  1.00  0.00     0.209 HD
ENDBRANCH   8   9
ENDBRANCH   7   8
BRANCH   7  11
ATOM     11  CB  TRP A   1      43.567 -17.063   3.591  1.00  0.00     0.068 C 
BRANCH  11  12
ATOM     12  CG  TRP A   1      44.021 -18.392   4.129  1.00  0.00    -0.028 A 
ATOM     13  CD2 TRP A   1      44.037 -19.662   3.462  1.00  0.00    -0.002 A 
ATOM     14  CE2 TRP A   1      44.572 -20.595   4.352  1.00  0.00     0.042 A 
ATOM     15  CE3 TRP A   1      43.656 -20.115   2.181  1.00  0.00     0.014 A 
ATOM     16  CZ2 TRP A   1      44.770 -21.940   4.020  1.00  0.00     0.030 A 
ATOM     17  NE1 TRP A   1      44.824 -19.933   5.530  1.00  0.00    -0.365 N 
ATOM     18  CH2 TRP A   1      44.415 -22.350   2.733  1.00  0.00     0.002 A 
ATOM     19  CZ3 TRP A   1      43.861 -21.453   1.824  1.00  0.00     0.001 A 
ATOM     20  HE1 TRP A   1      45.194 -20.369   6.362  1.00  0.00     0.165 HD
ATOM     21  CD1 TRP A   1      44.495 -18.612   5.410  1.00  0.00     0.096 A 
ENDBRANCH  11  12
ENDBRANCH   7  11
ENDBRANCH   5   7
BRANCH   1  22
HETATM   22  C   UNK A   0      41.000 -14.173   0.241  1.00  0.00     0.036 A 
HETATM   23  C   UNK A   0      41.009 -13.035   1.044  1.00  0.00     0.030 A 
HETATM   24  C   UNK A   0      41.594 -11.850   0.582  1.00  0.00     0.018 A 
HETATM   25  C   UNK A   0      42.156 -11.777  -0.701  1.00  0.00     0.015 A 
HETATM   26  C   UNK A   0      42.096 -12.899  -1.548  1.00  0.00    -0.046 A 
HETATM   27  C   UNK A   0      42.659 -12.898  -2.944  1.00  0.00     0.049 C 
HETATM   28  C   UNK A   0      41.514 -14.084  -1.060  1.00  0.00     0.037 A 
BRANCH  25  29
HETATM   29  C   UNK A   0      42.827 -10.512  -1.128  1.00  0.00     0.156 C 
HETATM   30  C   UNK A   0      41.987  -9.436  -1.766  1.00  0.00     0.097 C 
HETATM   31  O   UNK A   0      44.028 -10.346  -0.932  1.00  0.00    -0.293 OA
ENDBRANCH  25  29
ENDBRANCH   1  22
TORSDOF 7
ENDMDL
MODEL 5
REMARK VINA RESULT:      -8.1      4.950      8.584
REMARK  7 active torsions:
REMARK  status: ('A' for Active; 'I' for Inactive)
REMARK    1  A    between atoms: C_3  and  C_4 
REMARK    2  A    between atoms: C_9  and  N_10 
REMARK       I    between atoms: N_10  and  C_11 
REMARK       I    between atoms: C_11  and  N_15 
REMARK    3  A    between atoms: N_15  and  CA_16 
REMARK    4  A    between atoms: CA_16  and  C_17 
REMARK    5  A    between atoms: CA_16  and  CB_19 
REMARK    6  A    between atoms: C_17  and  O_18 
REMARK    7  A    between atoms: CB_19  and  CG_20 
ROOT
HETATM    1  N   UNK A   0      42.287 -17.129   0.829  1.00  0.00    -0.309 N 
HETATM    2  C   UNK A   0      41.739 -15.886   0.803  1.00  0.00     0.321 C 
HETATM    3  O   UNK A   0      41.296 -15.458  -0.262  1.00  0.00    -0.247 OA
HETATM    4  H   UNK A   0      42.108 -17.602  -0.048  1.00  0.00     0.170 HD
ATOM      5  N   TRP A   1      41.642 -15.195   1.966  1.00  0.00    -0.336 N 
ATOM      6  H   TRP A   1      41.667 -15.720   2.827  1.00  0.00     0.164 HD
ENDROOT
BRANCH   5   7
ATOM      7  CA  TRP A   1      40.825 -13.986   2.068  1.00  0.00     0.114 C 
BRANCH   7   8
ATOM      8  C   TRP A   1      41.361 -12.903   1.116  1.00  0.00     0.189 C 
BRANCH   8   9
ATOM      9  O   TRP A   1      42.649 -12.440   1.522  1.00  0.00    -0.399 OA
ATOM     10  H   TRP A   1      42.524 -11.927   2.338  1.00  0.00     0.209 HD
ENDBRANCH   8   9
ENDBRANCH   7   8
BRANCH   7  11
ATOM     11  CB  TRP A   1      40.665 -13.526   3.539  1.00  0.00     0.068 C 
BRANCH  11  12
ATOM     12  CG  TRP A   1      41.745 -13.945   4.497  1.00  0.00    -0.028 A 
ATOM     13  CD2 TRP A   1      41.768 -15.085   5.368  1.00  0.00    -0.002 A 
ATOM     14  CE2 TRP A   1      42.990 -15.072   6.043  1.00  0.00     0.042 A 
ATOM     15  CE3 TRP A   1      40.870 -16.137   5.648  1.00  0.00     0.014 A 
ATOM     16  CZ2 TRP A   1      43.370 -16.065   6.953  1.00  0.00     0.030 A 
ATOM     17  NE1 TRP A   1      43.664 -13.944   5.639  1.00  0.00    -0.365 N 
ATOM     18  CH2 TRP A   1      42.474 -17.112   7.182  1.00  0.00     0.002 A 
ATOM     19  CZ3 TRP A   1      41.238 -17.149   6.543  1.00  0.00     0.001 A 
ATOM     20  HE1 TRP A   1      44.571 -13.667   5.985  1.00  0.00     0.165 HD
ATOM     21  CD1 TRP A   1      42.927 -13.258   4.715  1.00  0.00     0.096 A 
ENDBRANCH  11  12
ENDBRANCH   7  11
ENDBRANCH   5   7
BRANCH   1  22
HETATM   22  C   UNK A   0      42.947 -17.873   1.820  1.00  0.00     0.036 A 
HETATM   23  C   UNK A   0      43.410 -17.353   3.026  1.00  0.00     0.030 A 
HETATM   24  C   UNK A   0      44.001 -18.193   3.976  1.00  0.00     0.018 A 
HETATM   25  C   UNK A   0      44.163 -19.563   3.723  1.00  0.00     0.015 A 
HETATM   26  C   UNK A   0      43.760 -20.091   2.483  1.00  0.00    -0.046 A 
HETATM   27  C   UNK A   0      43.916 -21.545   2.127  1.00  0.00     0.049 C 
HETATM   28  C   UNK A   0      43.157 -19.231   1.546  1.00  0.00     0.037 A 
BRANCH  25  29
HETATM   29  C   UNK A   0      44.741 -20.435   4.791  1.00  0.00     0.156 C 
HETATM   30  C   UNK A   0      44.036 -20.502   6.121  1.00  0.00     0.097 C 
HETATM   31  O   UNK A   0      45.747 -21.104   4.573  1.00  0.00    -0.293 OA
ENDBRANCH  25  29
ENDBRANCH   1  22
TORSDOF 7
ENDMDL
MODEL 6
REMARK VINA RESULT:      -8.1      4.662      8.311
REMARK  7 active torsions:
REMARK  status: ('A' for Active; 'I' for Inactive)
REMARK    1  A    between atoms: C_3  and  C_4 
REMARK    2  A    between atoms: C_9  and  N_10 
REMARK       I    between atoms: N_10  and  C_11 
REMARK       I    between atoms: C_11  and  N_15 
REMARK    3  A    between atoms: N_15  and  CA_16 
REMARK    4  A    between atoms: CA_16  and  C_17 
REMARK    5  A    between atoms: CA_16  and  CB_19 
REMARK    6  A    between atoms: C_17  and  O_18 
REMARK    7  A    between atoms: CB_19  and  CG_20 
ROOT
HETATM    1  N   UNK A   0      40.453 -17.049   3.723  1.00  0.00    -0.309 N 
HETATM    2  C   UNK A   0      41.163 -17.147   4.877  1.00  0.00     0.321 C 
HETATM    3  O   UNK A   0      40.603 -17.592   5.879  1.00  0.00    -0.247 OA
HETATM    4  H   UNK A   0      39.561 -17.518   3.827  1.00  0.00     0.170 HD
ATOM      5  N   TRP A   1      42.478 -16.815   4.860  1.00  0.00    -0.336 N 
ATOM      6  H   TRP A   1      42.953 -16.825   3.970  1.00  0.00     0.164 HD
ENDROOT
BRANCH   5   7
ATOM      7  CA  TRP A   1      43.363 -17.152   5.974  1.00  0.00     0.114 C 
BRANCH   7   8
ATOM      8  C   TRP A   1      43.583 -15.919   6.868  1.00  0.00     0.189 C 
BRANCH   8   9
ATOM      9  O   TRP A   1      42.881 -14.780   6.371  1.00  0.00    -0.399 OA
ATOM     10  H   TRP A   1      42.657 -14.226   7.138  1.00  0.00     0.209 HD
ENDBRANCH   8   9
ENDBRANCH   7   8
BRANCH   7  11
ATOM     11  CB  TRP A   1      44.667 -17.830   5.485  1.00  0.00     0.068 C 
BRANCH  11  12
ATOM     12  CG  TRP A   1      44.590 -19.303   5.192  1.00  0.00    -0.028 A 
ATOM     13  CD2 TRP A   1      44.381 -19.948   3.927  1.00  0.00    -0.002 A 
ATOM     14  CE2 TRP A   1      44.417 -21.326   4.149  1.00  0.00     0.042 A 
ATOM     15  CE3 TRP A   1      44.170 -19.497   2.607  1.00  0.00     0.014 A 
ATOM     16  CZ2 TRP A   1      44.284 -22.268   3.123  1.00  0.00     0.030 A 
ATOM     17  NE1 TRP A   1      44.589 -21.514   5.499  1.00  0.00    -0.365 N 
ATOM     18  CH2 TRP A   1      44.111 -21.790   1.821  1.00  0.00     0.002 A 
ATOM     19  CZ3 TRP A   1      44.051 -20.424   1.564  1.00  0.00     0.001 A 
ATOM     20  HE1 TRP A   1      44.629 -22.417   5.949  1.00  0.00     0.165 HD
ATOM     21  CD1 TRP A   1      44.692 -20.309   6.137  1.00  0.00     0.096 A 
ENDBRANCH  11  12
ENDBRANCH   7  11
ENDBRANCH   5   7
BRANCH   1  22
HETATM   22  C   UNK A   0      40.740 -16.522   2.454  1.00  0.00     0.036 A 
HETATM   23  C   UNK A   0      41.738 -16.995   1.606  1.00  0.00     0.030 A 
HETATM   24  C   UNK A   0      41.904 -16.439   0.332  1.00  0.00     0.018 A 
HETATM   25  C   UNK A   0      41.091 -15.383  -0.103  1.00  0.00     0.015 A 
HETATM   26  C   UNK A   0      40.121 -14.851   0.767  1.00  0.00    -0.046 A 
HETATM   27  C   UNK A   0      39.221 -13.707   0.383  1.00  0.00     0.049 C 
HETATM   28  C   UNK A   0      39.963 -15.432   2.039  1.00  0.00     0.037 A 
BRANCH  25  29
HETATM   29  C   UNK A   0      41.260 -14.862  -1.494  1.00  0.00     0.156 C 
HETATM   30  C   UNK A   0      40.674 -15.657  -2.632  1.00  0.00     0.097 C 
HETATM   31  O   UNK A   0      41.833 -13.795  -1.695  1.00  0.00    -0.293 OA
ENDBRANCH  25  29
ENDBRANCH   1  22
TORSDOF 7
ENDMDL
MODEL 7
REMARK VINA RESULT:      -8.0      4.335      8.759
REMARK  7 active torsions:
REMARK  status: ('A' for Active; 'I' for Inactive)
REMARK    1  A    between atoms: C_3  and  C_4 
REMARK    2  A    between atoms: C_9  and  N_10 
REMARK       I    between atoms: N_10  and  C_11 
REMARK       I    between atoms: C_11  and  N_15 
REMARK    3  A    between atoms: N_15  and  CA_16 
REMARK    4  A    between atoms: CA_16  and  C_17 
REMARK    5  A    between atoms: CA_16  and  CB_19 
REMARK    6  A    between atoms: C_17  and  O_18 
REMARK    7  A    between atoms: CB_19  and  CG_20 
ROOT
HETATM    1  N   UNK A   0      39.452 -14.851   3.005  1.00  0.00    -0.309 N 
HETATM    2  C   UNK A   0      40.065 -14.541   4.177  1.00  0.00     0.321 C 
HETATM    3  O   UNK A   0      39.387 -14.490   5.203  1.00  0.00    -0.247 OA
HETATM    4  H   UNK A   0      38.502 -15.153   3.183  1.00  0.00     0.170 HD
ATOM      5  N   TRP A   1      41.410 -14.367   4.180  1.00  0.00    -0.336 N 
ATOM      6  H   TRP A   1      41.938 -14.779   3.425  1.00  0.00     0.164 HD
ENDROOT
BRANCH   5   7
ATOM      7  CA  TRP A   1      42.168 -14.307   5.430  1.00  0.00     0.114 C 
BRANCH   7   8
ATOM      8  C   TRP A   1      42.376 -12.843   5.854  1.00  0.00     0.189 C 
BRANCH   8   9
ATOM      9  O   TRP A   1      41.296 -12.374   6.662  1.00  0.00    -0.399 OA
ATOM     10  H   TRP A   1      40.504 -12.359   6.099  1.00  0.00     0.209 HD
ENDBRANCH   8   9
ENDBRANCH   7   8
BRANCH   7  11
ATOM     11  CB  TRP A   1      43.470 -15.143   5.350  1.00  0.00     0.068 C 
BRANCH  11  12
ATOM     12  CG  TRP A   1      43.320 -16.588   4.961  1.00  0.00    -0.028 A 
ATOM     13  CD2 TRP A   1      43.523 -17.187   3.673  1.00  0.00    -0.002 A 
ATOM     14  CE2 TRP A   1      43.293 -18.557   3.808  1.00  0.00     0.042 A 
ATOM     15  CE3 TRP A   1      43.889 -16.701   2.400  1.00  0.00     0.014 A 
ATOM     16  CZ2 TRP A   1      43.438 -19.463   2.751  1.00  0.00     0.030 A 
ATOM     17  NE1 TRP A   1      42.915 -18.778   5.111  1.00  0.00    -0.365 N 
ATOM     18  CH2 TRP A   1      43.835 -18.956   1.511  1.00  0.00     0.002 A 
ATOM     19  CZ3 TRP A   1      44.055 -17.593   1.334  1.00  0.00     0.001 A 
ATOM     20  HE1 TRP A   1      42.664 -19.681   5.487  1.00  0.00     0.165 HD
ATOM     21  CD1 TRP A   1      42.924 -17.605   5.812  1.00  0.00     0.096 A 
ENDBRANCH  11  12
ENDBRANCH   7  11
ENDBRANCH   5   7
BRANCH   1  22
HETATM   22  C   UNK A   0      39.889 -14.908   1.672  1.00  0.00     0.036 A 
HETATM   23  C   UNK A   0      40.806 -15.832   1.178  1.00  0.00     0.030 A 
HETATM   24  C   UNK A   0      41.131 -15.846  -0.183  1.00  0.00     0.018 A 
HETATM   25  C   UNK A   0      40.563 -14.916  -1.067  1.00  0.00     0.015 A 
HETATM   26  C   UNK A   0      39.685 -13.935  -0.571  1.00  0.00    -0.046 A 
HETATM   27  C   UNK A   0      39.047 -12.892  -1.449  1.00  0.00     0.049 C 
HETATM   28  C   UNK A   0      39.363 -13.947   0.799  1.00  0.00     0.037 A 
BRANCH  25  29
HETATM   29  C   UNK A   0      40.888 -15.007  -2.523  1.00  0.00     0.156 C 
HETATM   30  C   UNK A   0      40.047 -15.908  -3.390  1.00  0.00     0.097 C 
HETATM   31  O   UNK A   0      41.797 -14.336  -3.002  1.00  0.00    -0.293 OA
ENDBRANCH  25  29
ENDBRANCH   1  22
TORSDOF 7
ENDMDL
MODEL 8
REMARK VINA RESULT:      -8.0      3.735      5.314
REMARK  7 active torsions:
REMARK  status: ('A' for Active; 'I' for Inactive)
REMARK    1  A    between atoms: C_3  and  C_4 
REMARK    2  A    between atoms: C_9  and  N_10 
REMARK       I    between atoms: N_10  and  C_11 
REMARK       I    between atoms: C_11  and  N_15 
REMARK    3  A    between atoms: N_15  and  CA_16 
REMARK    4  A    between atoms: CA_16  and  C_17 
REMARK    5  A    between atoms: CA_16  and  CB_19 
REMARK    6  A    between atoms: C_17  and  O_18 
REMARK    7  A    between atoms: CB_19  and  CG_20 
ROOT
HETATM    1  N   UNK A   0      39.734 -14.931   5.811  1.00  0.00    -0.309 N 
HETATM    2  C   UNK A   0      40.754 -15.760   6.157  1.00  0.00     0.321 C 
HETATM    3  O   UNK A   0      40.493 -16.929   6.442  1.00  0.00    -0.247 OA
HETATM    4  H   UNK A   0      38.882 -15.465   5.691  1.00  0.00     0.170 HD
ATOM      5  N   TRP A   1      42.022 -15.284   6.109  1.00  0.00    -0.336 N 
ATOM      6  H   TRP A   1      42.199 -14.478   5.529  1.00  0.00     0.164 HD
ENDROOT
BRANCH   5   7
ATOM      7  CA  TRP A   1      43.176 -16.179   6.196  1.00  0.00     0.114 C 
BRANCH   7   8
ATOM      8  C   TRP A   1      44.375 -15.439   6.814  1.00  0.00     0.189 C 
BRANCH   8   9
ATOM      9  O   TRP A   1      44.017 -14.789   8.034  1.00  0.00    -0.399 OA
ATOM     10  H   TRP A   1      43.363 -14.106   7.812  1.00  0.00     0.209 HD
ENDBRANCH   8   9
ENDBRANCH   7   8
BRANCH   7  11
ATOM     11  CB  TRP A   1      43.474 -16.863   4.838  1.00  0.00     0.068 C 
BRANCH  11  12
ATOM     12  CG  TRP A   1      43.917 -18.299   4.891  1.00  0.00    -0.028 A 
ATOM     13  CD2 TRP A   1      43.898 -19.274   3.839  1.00  0.00    -0.002 A 
ATOM     14  CE2 TRP A   1      44.434 -20.456   4.354  1.00  0.00     0.042 A 
ATOM     15  CE3 TRP A   1      43.483 -19.270   2.490  1.00  0.00     0.014 A 
ATOM     16  CZ2 TRP A   1      44.603 -21.615   3.588  1.00  0.00     0.030 A 
ATOM     17  NE1 TRP A   1      44.721 -20.227   5.678  1.00  0.00    -0.365 N 
ATOM     18  CH2 TRP A   1      44.215 -21.569   2.247  1.00  0.00     0.002 A 
ATOM     19  CZ3 TRP A   1      43.659 -20.415   1.703  1.00  0.00     0.001 A 
ATOM     20  HE1 TRP A   1      45.101 -20.919   6.308  1.00  0.00     0.165 HD
ATOM     21  CD1 TRP A   1      44.412 -18.938   6.014  1.00  0.00     0.096 A 
ENDBRANCH  11  12
ENDBRANCH   7  11
ENDBRANCH   5   7
BRANCH   1  22
HETATM   22  C   UNK A   0      39.661 -13.559   5.522  1.00  0.00     0.036 A 
HETATM   23  C   UNK A   0      39.610 -13.021   4.239  1.00  0.00     0.030 A 
HETATM   24  C   UNK A   0      39.475 -11.639   4.058  1.00  0.00     0.018 A 
HETATM   25  C   UNK A   0      39.417 -10.772   5.158  1.00  0.00     0.015 A 
HETATM   26  C   UNK A   0      39.534 -11.295   6.459  1.00  0.00    -0.046 A 
HETATM   27  C   UNK A   0      39.499 -10.431   7.692  1.00  0.00     0.049 C 
HETATM   28  C   UNK A   0      39.656 -12.688   6.619  1.00  0.00     0.037 A 
BRANCH  25  29
HETATM   29  C   UNK A   0      39.209  -9.312   4.921  1.00  0.00     0.156 C 
HETATM   30  C   UNK A   0      40.416  -8.447   4.667  1.00  0.00     0.097 C 
HETATM   31  O   UNK A   0      38.076  -8.838   4.902  1.00  0.00    -0.293 OA
ENDBRANCH  25  29
ENDBRANCH   1  22
TORSDOF 7
ENDMDL
MODEL 9
REMARK VINA RESULT:      -7.9      4.744      8.368
REMARK  7 active torsions:
REMARK  status: ('A' for Active; 'I' for Inactive)
REMARK    1  A    between atoms: C_3  and  C_4 
REMARK    2  A    between atoms: C_9  and  N_10 
REMARK       I    between atoms: N_10  and  C_11 
REMARK       I    between atoms: C_11  and  N_15 
REMARK    3  A    between atoms: N_15  and  CA_16 
REMARK    4  A    between atoms: CA_16  and  C_17 
REMARK    5  A    between atoms: CA_16  and  CB_19 
REMARK    6  A    between atoms: C_17  and  O_18 
REMARK    7  A    between atoms: CB_19  and  CG_20 
ROOT
HETATM    1  N   UNK A   0      40.070 -16.388   2.908  1.00  0.00    -0.309 N 
HETATM    2  C   UNK A   0      39.971 -15.491   1.892  1.00  0.00     0.321 C 
HETATM    3  O   UNK A   0      38.855 -15.087   1.567  1.00  0.00    -0.247 OA
HETATM    4  H   UNK A   0      39.174 -16.486   3.368  1.00  0.00     0.170 HD
ATOM      5  N   TRP A   1      41.111 -15.027   1.322  1.00  0.00    -0.336 N 
ATOM      6  H   TRP A   1      41.964 -15.096   1.857  1.00  0.00     0.164 HD
ENDROOT
BRANCH   5   7
ATOM      7  CA  TRP A   1      41.100 -13.871   0.427  1.00  0.00     0.114 C 
BRANCH   7   8
ATOM      8  C   TRP A   1      41.559 -14.286  -0.981  1.00  0.00     0.189 C 
BRANCH   8   9
ATOM      9  O   TRP A   1      41.593 -15.706  -1.124  1.00  0.00    -0.399 OA
ATOM     10  H   TRP A   1      41.837 -15.895  -2.045  1.00  0.00     0.209 HD
ENDBRANCH   8   9
ENDBRANCH   7   8
BRANCH   7  11
ATOM     11  CB  TRP A   1      41.876 -12.672   1.029  1.00  0.00     0.068 C 
BRANCH  11  12
ATOM     12  CG  TRP A   1      41.669 -12.404   2.493  1.00  0.00    -0.028 A 
ATOM     13  CD2 TRP A   1      42.348 -12.997   3.610  1.00  0.00    -0.002 A 
ATOM     14  CE2 TRP A   1      41.836 -12.410   4.769  1.00  0.00     0.042 A 
ATOM     15  CE3 TRP A   1      43.356 -13.973   3.754  1.00  0.00     0.014 A 
ATOM     16  CZ2 TRP A   1      42.299 -12.726   6.052  1.00  0.00     0.030 A 
ATOM     17  NE1 TRP A   1      40.852 -11.534   4.380  1.00  0.00    -0.365 N 
ATOM     18  CH2 TRP A   1      43.322 -13.671   6.159  1.00  0.00     0.002 A 
ATOM     19  CZ3 TRP A   1      43.843 -14.291   5.027  1.00  0.00     0.001 A 
ATOM     20  HE1 TRP A   1      40.293 -10.984   5.016  1.00  0.00     0.165 HD
ATOM     21  CD1 TRP A   1      40.739 -11.523   3.018  1.00  0.00     0.096 A 
ENDBRANCH  11  12
ENDBRANCH   7  11
ENDBRANCH   5   7
BRANCH   1  22
HETATM   22  C   UNK A   0      41.142 -17.104   3.463  1.00  0.00     0.036 A 
HETATM   23  C   UNK A   0      42.034 -17.887   2.734  1.00  0.00     0.030 A 
HETATM   24  C   UNK A   0      43.110 -18.513   3.375  1.00  0.00     0.018 A 
HETATM   25  C   UNK A   0      43.294 -18.387   4.760  1.00  0.00     0.015 A 
HETATM   26  C   UNK A   0      42.364 -17.653   5.519  1.00  0.00    -0.046 A 
HETATM   27  C   UNK A   0      42.480 -17.485   7.010  1.00  0.00     0.049 C 
HETATM   28  C   UNK A   0      41.297 -17.022   4.853  1.00  0.00     0.037 A 
BRANCH  25  29
HETATM   29  C   UNK A   0      44.492 -19.018   5.393  1.00  0.00     0.156 C 
HETATM   30  C   UNK A   0      44.570 -20.522   5.437  1.00  0.00     0.097 C 
HETATM   31  O   UNK A   0      45.402 -18.323   5.836  1.00  0.00    -0.293 OA
ENDBRANCH  25  29
ENDBRANCH   1  22
TORSDOF 7
ENDMDL
MODEL 10
REMARK VINA RESULT:      -7.9      6.379      9.552
REMARK  7 active torsions:
REMARK  status: ('A' for Active; 'I' for Inactive)
REMARK    1  A    between atoms: C_3  and  C_4 
REMARK    2  A    between atoms: C_9  and  N_10 
REMARK       I    between atoms: N_10  and  C_11 
REMARK       I    between atoms: C_11  and  N_15 
REMARK    3  A    between atoms: N_15  and  CA_16 
REMARK    4  A    between atoms: CA_16  and  C_17 
REMARK    5  A    between atoms: CA_16  and  CB_19 
REMARK    6  A    between atoms: C_17  and  O_18 
REMARK    7  A    between atoms: CB_19  and  CG_20 
ROOT
HETATM    1  N   UNK A   0      43.099 -14.630   2.752  1.00  0.00    -0.309 N 
HETATM    2  C   UNK A   0      42.043 -13.794   2.571  1.00  0.00     0.321 C 
HETATM    3  O   UNK A   0      42.172 -12.606   2.868  1.00  0.00    -0.247 OA
HETATM    4  H   UNK A   0      43.926 -14.093   2.981  1.00  0.00     0.170 HD
ATOM      5  N   TRP A   1      40.913 -14.288   2.007  1.00  0.00    -0.336 N 
ATOM      6  H   TRP A   1      40.993 -15.131   1.458  1.00  0.00     0.164 HD
ENDROOT
BRANCH   5   7
ATOM      7  CA  TRP A   1      39.849 -13.405   1.531  1.00  0.00     0.114 C 
BRANCH   7   8
ATOM      8  C   TRP A   1      38.487 -14.112   1.634  1.00  0.00     0.189 C 
BRANCH   8   9
ATOM      9  O   TRP A   1      38.640 -15.512   1.866  1.00  0.00    -0.399 OA
ATOM     10  H   TRP A   1      38.171 -15.973   1.151  1.00  0.00     0.209 HD
ENDBRANCH   8   9
ENDBRANCH   7   8
BRANCH   7  11
ATOM     11  CB  TRP A   1      40.169 -12.828   0.128  1.00  0.00     0.068 C 
BRANCH  11  12
ATOM     12  CG  TRP A   1      40.424 -13.825  -0.967  1.00  0.00    -0.028 A 
ATOM     13  CD2 TRP A   1      39.498 -14.337  -1.937  1.00  0.00    -0.002 A 
ATOM     14  CE2 TRP A   1      40.202 -15.213  -2.765  1.00  0.00     0.042 A 
ATOM     15  CE3 TRP A   1      38.127 -14.137  -2.201  1.00  0.00     0.014 A 
ATOM     16  CZ2 TRP A   1      39.616 -15.872  -3.852  1.00  0.00     0.030 A 
ATOM     17  NE1 TRP A   1      41.490 -15.274  -2.290  1.00  0.00    -0.365 N 
ATOM     18  CH2 TRP A   1      38.265 -15.627  -4.108  1.00  0.00     0.002 A 
ATOM     19  CZ3 TRP A   1      37.526 -14.774  -3.293  1.00  0.00     0.001 A 
ATOM     20  HE1 TRP A   1      42.218 -15.851  -2.685  1.00  0.00     0.165 HD
ATOM     21  CD1 TRP A   1      41.636 -14.448  -1.210  1.00  0.00     0.096 A 
ENDBRANCH  11  12
ENDBRANCH   7  11
ENDBRANCH   5   7
BRANCH   1  22
HETATM   22  C   UNK A   0      43.269 -16.016   2.608  1.00  0.00     0.036 A 
HETATM   23  C   UNK A   0      43.584 -16.655   1.412  1.00  0.00     0.030 A 
HETATM   24  C   UNK A   0      43.794 -18.039   1.385  1.00  0.00     0.018 A 
HETATM   25  C   UNK A   0      43.665 -18.808   2.551  1.00  0.00     0.015 A 
HETATM   26  C   UNK A   0      43.283 -18.186   3.754  1.00  0.00    -0.046 A 
HETATM   27  C   UNK A   0      43.106 -18.942   5.043  1.00  0.00     0.049 C 
HETATM   28  C   UNK A   0      43.089 -16.791   3.761  1.00  0.00     0.037 A 
BRANCH  25  29
HETATM   29  C   UNK A   0      43.961 -20.272   2.491  1.00  0.00     0.156 C 
HETATM   30  C   UNK A   0      45.136 -20.798   3.274  1.00  0.00     0.097 C 
HETATM   31  O   UNK A   0      43.241 -21.028   1.845  1.00  0.00    -0.293 OA
ENDBRANCH  25  29
ENDBRANCH   1  22
TORSDOF 7
ENDMDL
