MODEL 1
REMARK VINA RESULT:      -9.0      0.000      0.000
REMARK  5 active torsions:
REMARK  status: ('A' for Active; 'I' for Inactive)
REMARK    1  A    between atoms: C_18  and  C_19 
REMARK       I    between atoms: C_19  and  N_20 
REMARK    2  A    between atoms: N_20  and  C_21 
REMARK    3  A    between atoms: C_21  and  C_22 
REMARK    4  A    between atoms: C_22  and  C_23 
REMARK    5  A    between atoms: C_26  and  O_27 
ROOT
HETATM    1  C   UNL     1      41.515 -12.667   2.433  1.00  0.00     0.016 C 
HETATM    2  C   UNL     1      40.321 -12.711   1.515  1.00  0.00    -0.028 C 
HETATM    3  C   UNL     1      40.682 -12.095  -0.135  1.00  0.00     0.058 C 
HETATM    4  C   UNL     1      39.502 -12.852  -1.404  1.00  0.00     0.095 C 
HETATM    5  N   UNL     1      40.077 -13.901  -2.224  1.00  0.00    -0.334 N 
HETATM    6  C   UNL     1      41.089 -13.659  -3.111  1.00  0.00     0.255 C 
HETATM    7  O   UNL     1      41.799 -14.556  -3.545  1.00  0.00    -0.268 OA
HETATM    8  C   UNL     1      41.251 -12.252  -3.522  1.00  0.00     0.053 A 
HETATM    9  C   UNL     1      40.268 -11.340  -3.109  1.00  0.00     0.026 A 
HETATM   10  N   UNL     1      39.159 -11.772  -2.348  1.00  0.00    -0.265 NA
HETATM   11  C   UNL     1      42.329 -11.857  -4.317  1.00  0.00     0.019 A 
HETATM   12  C   UNL     1      42.432 -10.528  -4.714  1.00  0.00     0.001 A 
HETATM   13  C   UNL     1      41.445  -9.614  -4.341  1.00  0.00     0.002 A 
HETATM   14  C   UNL     1      40.356 -10.022  -3.562  1.00  0.00     0.024 A 
HETATM   15  C   UNL     1      38.057 -13.455  -0.619  1.00  0.00     0.030 C 
HETATM   16  C   UNL     1      37.712 -14.106   0.979  1.00  0.00     0.009 C 
HETATM   17  C   UNL     1      38.828 -13.316   2.306  1.00  0.00     0.010 C 
HETATM   18  C   UNL     1      39.950 -13.828   0.725  1.00  0.00     0.086 C 
HETATM   19  C   UNL     1      38.545 -12.544   0.330  1.00  0.00     0.023 C 
HETATM   20  H   UNL     1      39.973 -14.870  -1.955  1.00  0.00     0.164 HD
HETATM   21  H   UNL     1      38.668 -10.993  -1.921  1.00  0.00     0.130 HD
ENDROOT
BRANCH  18  22
HETATM   22  C   UNL     1      40.257 -15.259   1.408  1.00  0.00     0.222 C 
HETATM   23  N   UNL     1      40.890 -16.082   0.492  1.00  0.00    -0.360 N 
HETATM   24  H   UNL     1      41.138 -15.692  -0.409  1.00  0.00     0.162 HD
HETATM   25  O   UNL     1      39.952 -15.657   2.522  1.00  0.00    -0.273 OA
BRANCH  23  26
HETATM   26  C   UNL     1      41.396 -17.414   0.760  1.00  0.00     0.127 C 
BRANCH  26  27
HETATM   27  C   UNL     1      42.921 -17.420   0.964  1.00  0.00     0.058 C 
BRANCH  27  28
HETATM   28  C   UNL     1      43.378 -18.320   2.094  1.00  0.00    -0.057 A 
HETATM   29  C   UNL     1      43.578 -17.821   3.386  1.00  0.00     0.010 A 
HETATM   30  C   UNL     1      44.112 -18.643   4.383  1.00  0.00     0.037 A 
HETATM   31  C   UNL     1      44.438 -19.975   4.115  1.00  0.00     0.068 A 
HETATM   32  C   UNL     1      44.231 -20.479   2.833  1.00  0.00     0.037 A 
HETATM   33  C   UNL     1      43.704 -19.657   1.831  1.00  0.00     0.010 A 
BRANCH  31  34
HETATM   34  O   UNL     1      44.964 -20.666   5.172  1.00  0.00    -0.356 OA
HETATM   35  C   UNL     1      44.929 -22.085   5.081  1.00  0.00     0.210 C 
ENDBRANCH  31  34
ENDBRANCH  27  28
ENDBRANCH  26  27
ENDBRANCH  23  26
ENDBRANCH  18  22
TORSDOF 5
ENDMDL
MODEL 2
REMARK VINA RESULT:      -8.8      2.628      8.372
REMARK  5 active torsions:
REMARK  status: ('A' for Active; 'I' for Inactive)
REMARK    1  A    between atoms: C_18  and  C_19 
REMARK       I    between atoms: C_19  and  N_20 
REMARK    2  A    between atoms: N_20  and  C_21 
REMARK    3  A    between atoms: C_21  and  C_22 
REMARK    4  A    between atoms: C_22  and  C_23 
REMARK    5  A    between atoms: C_26  and  O_27 
ROOT
HETATM    1  C   UNL     1      38.527 -15.236   1.881  1.00  0.00     0.016 C 
HETATM    2  C   UNL     1      39.707 -14.641   2.604  1.00  0.00    -0.028 C 
HETATM    3  C   UNL     1      40.881 -15.880   3.169  1.00  0.00     0.058 C 
HETATM    4  C   UNL     1      42.610 -15.134   3.337  1.00  0.00     0.095 C 
HETATM    5  N   UNL     1      43.533 -15.482   2.275  1.00  0.00    -0.334 N 
HETATM    6  C   UNL     1      43.961 -16.765   2.073  1.00  0.00     0.255 C 
HETATM    7  O   UNL     1      44.447 -17.127   1.010  1.00  0.00    -0.268 OA
HETATM    8  C   UNL     1      43.814 -17.672   3.226  1.00  0.00     0.053 A 
HETATM    9  C   UNL     1      43.419 -17.107   4.448  1.00  0.00     0.026 A 
HETATM   10  N   UNL     1      43.196 -15.717   4.559  1.00  0.00    -0.265 NA
HETATM   11  C   UNL     1      44.089 -19.036   3.105  1.00  0.00     0.019 A 
HETATM   12  C   UNL     1      43.974 -19.857   4.222  1.00  0.00     0.001 A 
HETATM   13  C   UNL     1      43.615 -19.306   5.454  1.00  0.00     0.002 A 
HETATM   14  C   UNL     1      43.361 -17.934   5.572  1.00  0.00     0.024 A 
HETATM   15  C   UNL     1      42.519 -13.391   3.479  1.00  0.00     0.030 C 
HETATM   16  C   UNL     1      41.398 -12.171   2.885  1.00  0.00     0.009 C 
HETATM   17  C   UNL     1      39.624 -12.856   2.769  1.00  0.00     0.010 C 
HETATM   18  C   UNL     1      40.895 -14.189   1.977  1.00  0.00     0.086 C 
HETATM   19  C   UNL     1      41.223 -13.781   3.850  1.00  0.00     0.023 C 
HETATM   20  H   UNL     1      43.643 -14.870   1.478  1.00  0.00     0.164 HD
HETATM   21  H   UNL     1      42.693 -15.483   5.409  1.00  0.00     0.130 HD
ENDROOT
BRANCH  18  22
HETATM   22  C   UNL     1      40.671 -13.535   0.519  1.00  0.00     0.222 C 
HETATM   23  N   UNL     1      41.792 -13.754  -0.264  1.00  0.00    -0.360 N 
HETATM   24  H   UNL     1      42.536 -14.326   0.117  1.00  0.00     0.162 HD
HETATM   25  O   UNL     1      39.726 -12.876   0.112  1.00  0.00    -0.273 OA
BRANCH  23  26
HETATM   26  C   UNL     1      41.935 -13.388  -1.660  1.00  0.00     0.127 C 
BRANCH  26  27
HETATM   27  C   UNL     1      41.713 -14.588  -2.596  1.00  0.00     0.058 C 
BRANCH  27  28
HETATM   28  C   UNL     1      40.311 -14.661  -3.166  1.00  0.00    -0.057 A 
HETATM   29  C   UNL     1      39.458 -13.553  -3.143  1.00  0.00     0.010 A 
HETATM   30  C   UNL     1      38.131 -13.678  -3.566  1.00  0.00     0.037 A 
HETATM   31  C   UNL     1      37.640 -14.899  -4.032  1.00  0.00     0.068 A 
HETATM   32  C   UNL     1      38.488 -16.003  -4.066  1.00  0.00     0.037 A 
HETATM   33  C   UNL     1      39.814 -15.884  -3.637  1.00  0.00     0.010 A 
BRANCH  31  34
HETATM   34  O   UNL     1      36.323 -14.889  -4.403  1.00  0.00    -0.356 OA
HETATM   35  C   UNL     1      35.828 -13.671  -4.946  1.00  0.00     0.210 C 
ENDBRANCH  31  34
ENDBRANCH  27  28
ENDBRANCH  26  27
ENDBRANCH  23  26
ENDBRANCH  18  22
TORSDOF 5
ENDMDL
MODEL 3
REMARK VINA RESULT:      -8.6      2.494      5.359
REMARK  5 active torsions:
REMARK  status: ('A' for Active; 'I' for Inactive)
REMARK    1  A    between atoms: C_18  and  C_19 
REMARK       I    between atoms: C_19  and  N_20 
REMARK    2  A    between atoms: N_20  and  C_21 
REMARK    3  A    between atoms: C_21  and  C_22 
REMARK    4  A    between atoms: C_22  and  C_23 
REMARK    5  A    between atoms: C_26  and  O_27 
ROOT
HETATM    1  C   UNL     1      37.939 -14.266   0.929  1.00  0.00     0.016 C 
HETATM    2  C   UNL     1      39.069 -13.281   0.774  1.00  0.00    -0.028 C 
HETATM    3  C   UNL     1      39.499 -12.460   2.314  1.00  0.00     0.058 C 
HETATM    4  C   UNL     1      41.300 -11.883   2.284  1.00  0.00     0.095 C 
HETATM    5  N   UNL     1      42.216 -12.699   3.056  1.00  0.00    -0.334 N 
HETATM    6  C   UNL     1      42.132 -12.799   4.417  1.00  0.00     0.255 C 
HETATM    7  O   UNL     1      42.655 -13.718   5.033  1.00  0.00    -0.268 OA
HETATM    8  C   UNL     1      41.389 -11.717   5.088  1.00  0.00     0.053 A 
HETATM    9  C   UNL     1      40.994 -10.621   4.306  1.00  0.00     0.026 A 
HETATM   10  N   UNL     1      41.323 -10.560   2.934  1.00  0.00    -0.265 NA
HETATM   11  C   UNL     1      41.119 -11.776   6.457  1.00  0.00     0.019 A 
HETATM   12  C   UNL     1      40.445 -10.721   7.065  1.00  0.00     0.001 A 
HETATM   13  C   UNL     1      40.075  -9.607   6.309  1.00  0.00     0.002 A 
HETATM   14  C   UNL     1      40.368  -9.547   4.942  1.00  0.00     0.024 A 
HETATM   15  C   UNL     1      41.880 -11.760   0.635  1.00  0.00     0.030 C 
HETATM   16  C   UNL     1      41.496 -12.598  -0.864  1.00  0.00     0.009 C 
HETATM   17  C   UNL     1      39.668 -13.133  -0.911  1.00  0.00     0.010 C 
HETATM   18  C   UNL     1      40.445 -13.607   0.875  1.00  0.00     0.086 C 
HETATM   19  C   UNL     1      40.489 -11.709   0.459  1.00  0.00     0.023 C 
HETATM   20  H   UNL     1      42.733 -13.444   2.608  1.00  0.00     0.164 HD
HETATM   21  H   UNL     1      40.782  -9.853   2.448  1.00  0.00     0.130 HD
ENDROOT
BRANCH  18  22
HETATM   22  C   UNL     1      40.824 -15.075   0.320  1.00  0.00     0.222 C 
HETATM   23  N   UNL     1      41.178 -15.893   1.380  1.00  0.00    -0.360 N 
HETATM   24  H   UNL     1      41.088 -15.524   2.318  1.00  0.00     0.162 HD
HETATM   25  O   UNL     1      40.884 -15.464  -0.836  1.00  0.00    -0.273 OA
BRANCH  23  26
HETATM   26  C   UNL     1      41.502 -17.304   1.288  1.00  0.00     0.127 C 
BRANCH  26  27
HETATM   27  C   UNL     1      43.011 -17.537   1.100  1.00  0.00     0.058 C 
BRANCH  27  28
HETATM   28  C   UNL     1      43.625 -18.418   2.169  1.00  0.00    -0.057 A 
HETATM   29  C   UNL     1      44.027 -19.728   1.890  1.00  0.00     0.010 A 
HETATM   30  C   UNL     1      44.480 -20.559   2.920  1.00  0.00     0.037 A 
HETATM   31  C   UNL     1      44.556 -20.094   4.235  1.00  0.00     0.068 A 
HETATM   32  C   UNL     1      44.166 -18.787   4.516  1.00  0.00     0.037 A 
HETATM   33  C   UNL     1      43.706 -17.955   3.490  1.00  0.00     0.010 A 
BRANCH  31  34
HETATM   34  O   UNL     1      45.003 -21.011   5.147  1.00  0.00    -0.356 OA
HETATM   35  C   UNL     1      44.801 -22.380   4.819  1.00  0.00     0.210 C 
ENDBRANCH  31  34
ENDBRANCH  27  28
ENDBRANCH  26  27
ENDBRANCH  23  26
ENDBRANCH  18  22
TORSDOF 5
ENDMDL
MODEL 4
REMARK VINA RESULT:      -8.5      6.353     10.222
REMARK  5 active torsions:
REMARK  status: ('A' for Active; 'I' for Inactive)
REMARK    1  A    between atoms: C_18  and  C_19 
REMARK       I    between atoms: C_19  and  N_20 
REMARK    2  A    between atoms: N_20  and  C_21 
REMARK    3  A    between atoms: C_21  and  C_22 
REMARK    4  A    between atoms: C_22  and  C_23 
REMARK    5  A    between atoms: C_26  and  O_27 
ROOT
HETATM    1  C   UNL     1      42.384 -12.555   2.699  1.00  0.00     0.016 C 
HETATM    2  C   UNL     1      41.491 -13.415   3.556  1.00  0.00    -0.028 C 
HETATM    3  C   UNL     1      42.266 -14.963   4.043  1.00  0.00     0.058 C 
HETATM    4  C   UNL     1      41.513 -15.609   5.652  1.00  0.00     0.095 C 
HETATM    5  N   UNL     1      42.334 -15.419   6.832  1.00  0.00    -0.334 N 
HETATM    6  C   UNL     1      43.539 -16.044   6.989  1.00  0.00     0.255 C 
HETATM    7  O   UNL     1      44.378 -15.644   7.785  1.00  0.00    -0.268 OA
HETATM    8  C   UNL     1      43.749 -17.238   6.150  1.00  0.00     0.053 A 
HETATM    9  C   UNL     1      42.653 -17.712   5.413  1.00  0.00     0.026 A 
HETATM   10  N   UNL     1      41.397 -17.072   5.498  1.00  0.00    -0.265 NA
HETATM   11  C   UNL     1      44.986 -17.885   6.120  1.00  0.00     0.019 A 
HETATM   12  C   UNL     1      45.139 -19.030   5.344  1.00  0.00     0.001 A 
HETATM   13  C   UNL     1      44.050 -19.535   4.632  1.00  0.00     0.002 A 
HETATM   14  C   UNL     1      42.807 -18.893   4.683  1.00  0.00     0.024 A 
HETATM   15  C   UNL     1      39.934 -14.901   5.923  1.00  0.00     0.030 C 
HETATM   16  C   UNL     1      39.190 -13.365   5.490  1.00  0.00     0.009 C 
HETATM   17  C   UNL     1      39.865 -12.709   3.834  1.00  0.00     0.010 C 
HETATM   18  C   UNL     1      41.399 -13.328   4.967  1.00  0.00     0.086 C 
HETATM   19  C   UNL     1      40.103 -14.715   4.542  1.00  0.00     0.023 C 
HETATM   20  H   UNL     1      42.201 -14.604   7.416  1.00  0.00     0.164 HD
HETATM   21  H   UNL     1      40.776 -17.359   4.749  1.00  0.00     0.130 HD
ENDROOT
BRANCH  18  22
HETATM   22  C   UNL     1      41.565 -11.834   5.555  1.00  0.00     0.222 C 
HETATM   23  N   UNL     1      41.814 -11.898   6.916  1.00  0.00    -0.360 N 
HETATM   24  H   UNL     1      41.931 -12.811   7.338  1.00  0.00     0.162 HD
HETATM   25  O   UNL     1      41.439 -10.765   4.978  1.00  0.00    -0.273 OA
BRANCH  23  26
HETATM   26  C   UNL     1      42.101 -10.767   7.778  1.00  0.00     0.127 C 
BRANCH  26  27
HETATM   27  C   UNL     1      43.172 -11.102   8.831  1.00  0.00     0.058 C 
BRANCH  27  28
HETATM   28  C   UNL     1      42.987 -10.361  10.139  1.00  0.00    -0.057 A 
HETATM   29  C   UNL     1      43.907 -10.491  11.185  1.00  0.00     0.010 A 
HETATM   30  C   UNL     1      43.653  -9.892  12.423  1.00  0.00     0.037 A 
HETATM   31  C   UNL     1      42.494  -9.142  12.632  1.00  0.00     0.068 A 
HETATM   32  C   UNL     1      41.580  -9.001  11.590  1.00  0.00     0.037 A 
HETATM   33  C   UNL     1      41.826  -9.605  10.353  1.00  0.00     0.010 A 
BRANCH  31  34
HETATM   34  O   UNL     1      42.361  -8.621  13.890  1.00  0.00    -0.356 OA
HETATM   35  C   UNL     1      42.463  -9.542  14.970  1.00  0.00     0.210 C 
ENDBRANCH  31  34
ENDBRANCH  27  28
ENDBRANCH  26  27
ENDBRANCH  23  26
ENDBRANCH  18  22
TORSDOF 5
ENDMDL
MODEL 5
REMARK VINA RESULT:      -8.3      3.238      8.750
REMARK  5 active torsions:
REMARK  status: ('A' for Active; 'I' for Inactive)
REMARK    1  A    between atoms: C_18  and  C_19 
REMARK       I    between atoms: C_19  and  N_20 
REMARK    2  A    between atoms: N_20  and  C_21 
REMARK    3  A    between atoms: C_21  and  C_22 
REMARK    4  A    between atoms: C_22  and  C_23 
REMARK    5  A    between atoms: C_26  and  O_27 
ROOT
HETATM    1  C   UNL     1      41.812 -16.293   0.140  1.00  0.00     0.016 C 
HETATM    2  C   UNL     1      41.024 -15.577   1.206  1.00  0.00    -0.028 C 
HETATM    3  C   UNL     1      41.598 -15.945   2.869  1.00  0.00     0.058 C 
HETATM    4  C   UNL     1      41.174 -14.531   4.051  1.00  0.00     0.095 C 
HETATM    5  N   UNL     1      42.288 -13.674   4.406  1.00  0.00    -0.334 N 
HETATM    6  C   UNL     1      43.358 -14.131   5.124  1.00  0.00     0.255 C 
HETATM    7  O   UNL     1      44.430 -13.542   5.136  1.00  0.00    -0.268 OA
HETATM    8  C   UNL     1      43.124 -15.366   5.895  1.00  0.00     0.053 A 
HETATM    9  C   UNL     1      41.809 -15.851   5.956  1.00  0.00     0.026 A 
HETATM   10  N   UNL     1      40.756 -15.161   5.318  1.00  0.00    -0.265 NA
HETATM   11  C   UNL     1      44.173 -16.005   6.560  1.00  0.00     0.019 A 
HETATM   12  C   UNL     1      43.910 -17.149   7.307  1.00  0.00     0.001 A 
HETATM   13  C   UNL     1      42.602 -17.626   7.408  1.00  0.00     0.002 A 
HETATM   14  C   UNL     1      41.553 -16.969   6.754  1.00  0.00     0.024 A 
HETATM   15  C   UNL     1      39.873 -13.553   3.401  1.00  0.00     0.030 C 
HETATM   16  C   UNL     1      39.340 -13.151   1.773  1.00  0.00     0.009 C 
HETATM   17  C   UNL     1      39.680 -14.579   0.559  1.00  0.00     0.010 C 
HETATM   18  C   UNL     1      41.310 -14.273   1.684  1.00  0.00     0.086 C 
HETATM   19  C   UNL     1      39.718 -14.754   2.691  1.00  0.00     0.023 C 
HETATM   20  H   UNL     1      42.460 -12.824   3.885  1.00  0.00     0.164 HD
HETATM   21  H   UNL     1      39.923 -15.734   5.238  1.00  0.00     0.130 HD
ENDROOT
BRANCH  18  22
HETATM   22  C   UNL     1      41.893 -13.266   0.566  1.00  0.00     0.222 C 
HETATM   23  N   UNL     1      41.687 -13.805  -0.693  1.00  0.00    -0.360 N 
HETATM   24  H   UNL     1      41.164 -14.669  -0.764  1.00  0.00     0.162 HD
HETATM   25  O   UNL     1      42.493 -12.213   0.721  1.00  0.00    -0.273 OA
BRANCH  23  26
HETATM   26  C   UNL     1      42.000 -13.157  -1.953  1.00  0.00     0.127 C 
BRANCH  26  27
HETATM   27  C   UNL     1      41.702 -14.065  -3.158  1.00  0.00     0.058 C 
BRANCH  27  28
HETATM   28  C   UNL     1      40.224 -14.320  -3.373  1.00  0.00    -0.057 A 
HETATM   29  C   UNL     1      39.758 -15.559  -3.825  1.00  0.00     0.010 A 
HETATM   30  C   UNL     1      38.404 -15.733  -4.128  1.00  0.00     0.037 A 
HETATM   31  C   UNL     1      37.494 -14.685  -3.972  1.00  0.00     0.068 A 
HETATM   32  C   UNL     1      37.952 -13.452  -3.513  1.00  0.00     0.037 A 
HETATM   33  C   UNL     1      39.307 -13.272  -3.215  1.00  0.00     0.010 A 
BRANCH  31  34
HETATM   34  O   UNL     1      36.204 -14.983  -4.316  1.00  0.00    -0.356 OA
HETATM   35  C   UNL     1      35.467 -13.951  -4.961  1.00  0.00     0.210 C 
ENDBRANCH  31  34
ENDBRANCH  27  28
ENDBRANCH  26  27
ENDBRANCH  23  26
ENDBRANCH  18  22
TORSDOF 5
ENDMDL
MODEL 6
REMARK VINA RESULT:      -8.3      5.024      7.860
REMARK  5 active torsions:
REMARK  status: ('A' for Active; 'I' for Inactive)
REMARK    1  A    between atoms: C_18  and  C_19 
REMARK       I    between atoms: C_19  and  N_20 
REMARK    2  A    between atoms: N_20  and  C_21 
REMARK    3  A    between atoms: C_21  and  C_22 
REMARK    4  A    between atoms: C_22  and  C_23 
REMARK    5  A    between atoms: C_26  and  O_27 
ROOT
HETATM    1  C   UNL     1      40.445 -17.694   5.805  1.00  0.00     0.016 C 
HETATM    2  C   UNL     1      41.499 -17.844   4.739  1.00  0.00    -0.028 C 
HETATM    3  C   UNL     1      41.252 -16.734   3.347  1.00  0.00     0.058 C 
HETATM    4  C   UNL     1      42.891 -16.382   2.473  1.00  0.00     0.095 C 
HETATM    5  N   UNL     1      43.466 -15.081   2.752  1.00  0.00    -0.334 N 
HETATM    6  C   UNL     1      42.858 -13.919   2.366  1.00  0.00     0.255 C 
HETATM    7  O   UNL     1      43.137 -12.841   2.875  1.00  0.00    -0.268 OA
HETATM    8  C   UNL     1      41.863 -14.051   1.286  1.00  0.00     0.053 A 
HETATM    9  C   UNL     1      41.758 -15.298   0.651  1.00  0.00     0.026 A 
HETATM   10  N   UNL     1      42.597 -16.370   1.028  1.00  0.00    -0.265 NA
HETATM   11  C   UNL     1      41.079 -12.962   0.897  1.00  0.00     0.019 A 
HETATM   12  C   UNL     1      40.174 -13.114  -0.149  1.00  0.00     0.001 A 
HETATM   13  C   UNL     1      40.081 -14.337  -0.815  1.00  0.00     0.002 A 
HETATM   14  C   UNL     1      40.885 -15.417  -0.432  1.00  0.00     0.024 A 
HETATM   15  C   UNL     1      44.066 -17.628   2.843  1.00  0.00     0.030 C 
HETATM   16  C   UNL     1      44.341 -18.681   4.226  1.00  0.00     0.009 C 
HETATM   17  C   UNL     1      42.705 -19.124   5.096  1.00  0.00     0.010 C 
HETATM   18  C   UNL     1      42.737 -17.154   4.724  1.00  0.00     0.086 C 
HETATM   19  C   UNL     1      42.856 -18.273   3.138  1.00  0.00     0.023 C 
HETATM   20  H   UNL     1      44.150 -14.976   3.489  1.00  0.00     0.164 HD
HETATM   21  H   UNL     1      42.259 -17.257   0.668  1.00  0.00     0.130 HD
ENDROOT
BRANCH  18  22
HETATM   22  C   UNL     1      43.370 -16.890   6.185  1.00  0.00     0.222 C 
HETATM   23  N   UNL     1      43.708 -15.553   6.307  1.00  0.00    -0.360 N 
HETATM   24  H   UNL     1      43.465 -14.927   5.549  1.00  0.00     0.162 HD
HETATM   25  O   UNL     1      43.611 -17.694   7.072  1.00  0.00    -0.273 OA
BRANCH  23  26
HETATM   26  C   UNL     1      44.227 -14.917   7.503  1.00  0.00     0.127 C 
BRANCH  26  27
HETATM   27  C   UNL     1      44.906 -13.572   7.193  1.00  0.00     0.058 C 
BRANCH  27  28
HETATM   28  C   UNL     1      44.700 -12.527   8.270  1.00  0.00    -0.057 A 
HETATM   29  C   UNL     1      45.646 -12.328   9.281  1.00  0.00     0.010 A 
HETATM   30  C   UNL     1      45.379 -11.442  10.330  1.00  0.00     0.037 A 
HETATM   31  C   UNL     1      44.178 -10.730  10.379  1.00  0.00     0.068 A 
HETATM   32  C   UNL     1      43.237 -10.918   9.369  1.00  0.00     0.037 A 
HETATM   33  C   UNL     1      43.497 -11.809   8.322  1.00  0.00     0.010 A 
BRANCH  31  34
HETATM   34  O   UNL     1      44.037  -9.908  11.463  1.00  0.00    -0.356 OA
HETATM   35  C   UNL     1      43.313 -10.437  12.568  1.00  0.00     0.210 C 
ENDBRANCH  31  34
ENDBRANCH  27  28
ENDBRANCH  26  27
ENDBRANCH  23  26
ENDBRANCH  18  22
TORSDOF 5
ENDMDL
MODEL 7
REMARK VINA RESULT:      -8.3      4.443      8.315
REMARK  5 active torsions:
REMARK  status: ('A' for Active; 'I' for Inactive)
REMARK    1  A    between atoms: C_18  and  C_19 
REMARK       I    between atoms: C_19  and  N_20 
REMARK    2  A    between atoms: N_20  and  C_21 
REMARK    3  A    between atoms: C_21  and  C_22 
REMARK    4  A    between atoms: C_22  and  C_23 
REMARK    5  A    between atoms: C_26  and  O_27 
ROOT
HETATM    1  C   UNL     1      42.092 -11.929   0.888  1.00  0.00     0.016 C 
HETATM    2  C   UNL     1      41.038 -13.004   0.946  1.00  0.00    -0.028 C 
HETATM    3  C   UNL     1      41.667 -14.570   1.564  1.00  0.00     0.058 C 
HETATM    4  C   UNL     1      40.276 -15.590   2.340  1.00  0.00     0.095 C 
HETATM    5  N   UNL     1      40.264 -15.605   3.790  1.00  0.00    -0.334 N 
HETATM    6  C   UNL     1      41.270 -16.176   4.520  1.00  0.00     0.255 C 
HETATM    7  O   UNL     1      41.448 -15.905   5.700  1.00  0.00    -0.268 OA
HETATM    8  C   UNL     1      42.107 -17.149   3.795  1.00  0.00     0.053 A 
HETATM    9  C   UNL     1      41.698 -17.520   2.505  1.00  0.00     0.026 A 
HETATM   10  N   UNL     1      40.516 -16.989   1.944  1.00  0.00    -0.265 NA
HETATM   11  C   UNL     1      43.245 -17.699   4.389  1.00  0.00     0.019 A 
HETATM   12  C   UNL     1      43.992 -18.641   3.689  1.00  0.00     0.001 A 
HETATM   13  C   UNL     1      43.582 -19.047   2.418  1.00  0.00     0.002 A 
HETATM   14  C   UNL     1      42.428 -18.506   1.838  1.00  0.00     0.024 A 
HETATM   15  C   UNL     1      38.716 -15.051   1.753  1.00  0.00     0.030 C 
HETATM   16  C   UNL     1      38.084 -13.506   1.195  1.00  0.00     0.009 C 
HETATM   17  C   UNL     1      39.436 -12.473   0.337  1.00  0.00     0.010 C 
HETATM   18  C   UNL     1      40.170 -13.226   2.044  1.00  0.00     0.086 C 
HETATM   19  C   UNL     1      39.583 -14.565   0.763  1.00  0.00     0.023 C 
HETATM   20  H   UNL     1      39.695 -14.943   4.300  1.00  0.00     0.164 HD
HETATM   21  H   UNL     1      40.470 -17.148   0.942  1.00  0.00     0.130 HD
ENDROOT
BRANCH  18  22
HETATM   22  C   UNL     1      39.727 -11.884   2.825  1.00  0.00     0.222 C 
HETATM   23  N   UNL     1      39.651 -12.144   4.183  1.00  0.00    -0.360 N 
HETATM   24  H   UNL     1      39.937 -13.057   4.511  1.00  0.00     0.162 HD
HETATM   25  O   UNL     1      39.422 -10.795   2.364  1.00  0.00    -0.273 OA
BRANCH  23  26
HETATM   26  C   UNL     1      39.364 -11.166   5.216  1.00  0.00     0.127 C 
BRANCH  26  27
HETATM   27  C   UNL     1      40.649 -10.609   5.854  1.00  0.00     0.058 C 
BRANCH  27  28
HETATM   28  C   UNL     1      40.694 -10.767   7.360  1.00  0.00    -0.057 A 
HETATM   29  C   UNL     1      39.561 -11.151   8.086  1.00  0.00     0.010 A 
HETATM   30  C   UNL     1      39.596 -11.174   9.484  1.00  0.00     0.037 A 
HETATM   31  C   UNL     1      40.760 -10.833  10.177  1.00  0.00     0.068 A 
HETATM   32  C   UNL     1      41.893 -10.459   9.459  1.00  0.00     0.037 A 
HETATM   33  C   UNL     1      41.860 -10.428   8.061  1.00  0.00     0.010 A 
BRANCH  31  34
HETATM   34  O   UNL     1      40.656 -10.884  11.541  1.00  0.00    -0.356 OA
HETATM   35  C   UNL     1      39.664 -10.053  12.131  1.00  0.00     0.210 C 
ENDBRANCH  31  34
ENDBRANCH  27  28
ENDBRANCH  26  27
ENDBRANCH  23  26
ENDBRANCH  18  22
TORSDOF 5
ENDMDL
MODEL 8
REMARK VINA RESULT:      -8.2      6.748      9.831
REMARK  5 active torsions:
REMARK  status: ('A' for Active; 'I' for Inactive)
REMARK    1  A    between atoms: C_18  and  C_19 
REMARK       I    between atoms: C_19  and  N_20 
REMARK    2  A    between atoms: N_20  and  C_21 
REMARK    3  A    between atoms: C_21  and  C_22 
REMARK    4  A    between atoms: C_22  and  C_23 
REMARK    5  A    between atoms: C_26  and  O_27 
ROOT
HETATM    1  C   UNL     1      39.086 -12.870   6.923  1.00  0.00     0.016 C 
HETATM    2  C   UNL     1      39.746 -11.520   7.030  1.00  0.00    -0.028 C 
HETATM    3  C   UNL     1      40.187 -11.087   8.718  1.00  0.00     0.058 C 
HETATM    4  C   UNL     1      41.627  -9.862   8.741  1.00  0.00     0.095 C 
HETATM    5  N   UNL     1      42.911 -10.434   9.094  1.00  0.00    -0.334 N 
HETATM    6  C   UNL     1      43.160 -10.954  10.334  1.00  0.00     0.255 C 
HETATM    7  O   UNL     1      44.086 -11.728  10.539  1.00  0.00    -0.268 OA
HETATM    8  C   UNL     1      42.251 -10.505  11.405  1.00  0.00     0.053 A 
HETATM    9  C   UNL     1      41.345  -9.479  11.097  1.00  0.00     0.026 A 
HETATM   10  N   UNL     1      41.331  -8.893   9.812  1.00  0.00    -0.265 NA
HETATM   11  C   UNL     1      42.318 -11.065  12.683  1.00  0.00     0.019 A 
HETATM   12  C   UNL     1      41.468 -10.592  13.678  1.00  0.00     0.001 A 
HETATM   13  C   UNL     1      40.585  -9.549  13.399  1.00  0.00     0.002 A 
HETATM   14  C   UNL     1      40.539  -8.979  12.122  1.00  0.00     0.024 A 
HETATM   15  C   UNL     1      41.762  -9.041   7.199  1.00  0.00     0.030 C 
HETATM   16  C   UNL     1      41.379  -9.482   5.539  1.00  0.00     0.009 C 
HETATM   17  C   UNL     1      39.883 -10.659   5.462  1.00  0.00     0.010 C 
HETATM   18  C   UNL     1      41.138 -11.288   6.893  1.00  0.00     0.086 C 
HETATM   19  C   UNL     1      40.435  -9.496   7.171  1.00  0.00     0.023 C 
HETATM   20  H   UNL     1      43.544 -10.747   8.370  1.00  0.00     0.164 HD
HETATM   21  H   UNL     1      40.489  -8.349   9.655  1.00  0.00     0.130 HD
ENDROOT
BRANCH  18  22
HETATM   22  C   UNL     1      41.872 -12.250   5.825  1.00  0.00     0.222 C 
HETATM   23  N   UNL     1      42.650 -13.178   6.497  1.00  0.00    -0.360 N 
HETATM   24  H   UNL     1      42.609 -13.193   7.509  1.00  0.00     0.162 HD
HETATM   25  O   UNL     1      41.854 -12.195   4.605  1.00  0.00    -0.273 OA
BRANCH  23  26
HETATM   26  C   UNL     1      43.394 -14.262   5.883  1.00  0.00     0.127 C 
BRANCH  26  27
HETATM   27  C   UNL     1      42.535 -15.527   5.715  1.00  0.00     0.058 C 
BRANCH  27  28
HETATM   28  C   UNL     1      43.344 -16.772   5.413  1.00  0.00    -0.057 A 
HETATM   29  C   UNL     1      43.065 -17.568   4.296  1.00  0.00     0.010 A 
HETATM   30  C   UNL     1      43.747 -18.773   4.103  1.00  0.00     0.037 A 
HETATM   31  C   UNL     1      44.725 -19.195   5.007  1.00  0.00     0.068 A 
HETATM   32  C   UNL     1      45.013 -18.402   6.115  1.00  0.00     0.037 A 
HETATM   33  C   UNL     1      44.328 -17.199   6.314  1.00  0.00     0.010 A 
BRANCH  31  34
HETATM   34  O   UNL     1      45.306 -20.398   4.709  1.00  0.00    -0.356 OA
HETATM   35  C   UNL     1      44.724 -21.135   3.640  1.00  0.00     0.210 C 
ENDBRANCH  31  34
ENDBRANCH  27  28
ENDBRANCH  26  27
ENDBRANCH  23  26
ENDBRANCH  18  22
TORSDOF 5
ENDMDL
MODEL 9
REMARK VINA RESULT:      -8.0      2.278      3.353
REMARK  5 active torsions:
REMARK  status: ('A' for Active; 'I' for Inactive)
REMARK    1  A    between atoms: C_18  and  C_19 
REMARK       I    between atoms: C_19  and  N_20 
REMARK    2  A    between atoms: N_20  and  C_21 
REMARK    3  A    between atoms: C_21  and  C_22 
REMARK    4  A    between atoms: C_22  and  C_23 
REMARK    5  A    between atoms: C_26  and  O_27 
ROOT
HETATM    1  C   UNL     1      37.748 -11.985   1.354  1.00  0.00     0.016 C 
HETATM    2  C   UNL     1      38.744 -12.959   0.781  1.00  0.00    -0.028 C 
HETATM    3  C   UNL     1      39.671 -12.283  -0.603  1.00  0.00     0.058 C 
HETATM    4  C   UNL     1      41.344 -13.147  -0.773  1.00  0.00     0.095 C 
HETATM    5  N   UNL     1      42.479 -12.380  -0.299  1.00  0.00    -0.334 N 
HETATM    6  C   UNL     1      42.871 -11.214  -0.896  1.00  0.00     0.255 C 
HETATM    7  O   UNL     1      43.584 -10.400  -0.323  1.00  0.00    -0.268 OA
HETATM    8  C   UNL     1      42.394 -11.016  -2.276  1.00  0.00     0.053 A 
HETATM    9  C   UNL     1      41.742 -12.093  -2.896  1.00  0.00     0.026 A 
HETATM   10  N   UNL     1      41.576 -13.321  -2.219  1.00  0.00    -0.265 NA
HETATM   11  C   UNL     1      42.613  -9.809  -2.944  1.00  0.00     0.019 A 
HETATM   12  C   UNL     1      42.179  -9.669  -4.259  1.00  0.00     0.001 A 
HETATM   13  C   UNL     1      41.560 -10.741  -4.903  1.00  0.00     0.002 A 
HETATM   14  C   UNL     1      41.362 -11.954  -4.233  1.00  0.00     0.024 A 
HETATM   15  C   UNL     1      41.318 -14.704   0.029  1.00  0.00     0.030 C 
HETATM   16  C   UNL     1      40.449 -15.353   1.416  1.00  0.00     0.009 C 
HETATM   17  C   UNL     1      38.724 -14.564   1.584  1.00  0.00     0.010 C 
HETATM   18  C   UNL     1      40.074 -13.121   1.245  1.00  0.00     0.086 C 
HETATM   19  C   UNL     1      39.951 -14.454  -0.165  1.00  0.00     0.023 C 
HETATM   20  H   UNL     1      42.817 -12.506   0.646  1.00  0.00     0.164 HD
HETATM   21  H   UNL     1      40.893 -13.915  -2.677  1.00  0.00     0.130 HD
ENDROOT
BRANCH  18  22
HETATM   22  C   UNL     1      40.254 -12.917   2.836  1.00  0.00     0.222 C 
HETATM   23  N   UNL     1      41.597 -13.002   3.163  1.00  0.00    -0.360 N 
HETATM   24  H   UNL     1      42.267 -13.097   2.411  1.00  0.00     0.162 HD
HETATM   25  O   UNL     1      39.394 -12.776   3.692  1.00  0.00    -0.273 OA
BRANCH  23  26
HETATM   26  C   UNL     1      42.161 -12.789   4.483  1.00  0.00     0.127 C 
BRANCH  26  27
HETATM   27  C   UNL     1      41.802 -13.928   5.453  1.00  0.00     0.058 C 
BRANCH  27  28
HETATM   28  C   UNL     1      42.105 -15.308   4.906  1.00  0.00    -0.057 A 
HETATM   29  C   UNL     1      43.232 -15.544   4.110  1.00  0.00     0.010 A 
HETATM   30  C   UNL     1      43.426 -16.796   3.520  1.00  0.00     0.037 A 
HETATM   31  C   UNL     1      42.514 -17.834   3.726  1.00  0.00     0.068 A 
HETATM   32  C   UNL     1      41.396 -17.607   4.525  1.00  0.00     0.037 A 
HETATM   33  C   UNL     1      41.195 -16.353   5.111  1.00  0.00     0.010 A 
BRANCH  31  34
HETATM   34  O   UNL     1      42.814 -19.003   3.081  1.00  0.00    -0.356 OA
HETATM   35  C   UNL     1      43.960 -18.985   2.238  1.00  0.00     0.210 C 
ENDBRANCH  31  34
ENDBRANCH  27  28
ENDBRANCH  26  27
ENDBRANCH  23  26
ENDBRANCH  18  22
TORSDOF 5
ENDMDL
MODEL 10
REMARK VINA RESULT:      -8.0      2.149      8.118
REMARK  5 active torsions:
REMARK  status: ('A' for Active; 'I' for Inactive)
REMARK    1  A    between atoms: C_18  and  C_19 
REMARK       I    between atoms: C_19  and  N_20 
REMARK    2  A    between atoms: N_20  and  C_21 
REMARK    3  A    between atoms: C_21  and  C_22 
REMARK    4  A    between atoms: C_22  and  C_23 
REMARK    5  A    between atoms: C_26  and  O_27 
ROOT
HETATM    1  C   UNL     1      38.029 -15.138   1.754  1.00  0.00     0.016 C 
HETATM    2  C   UNL     1      39.340 -14.438   2.001  1.00  0.00    -0.028 C 
HETATM    3  C   UNL     1      40.562 -15.495   2.788  1.00  0.00     0.058 C 
HETATM    4  C   UNL     1      42.314 -14.910   2.382  1.00  0.00     0.095 C 
HETATM    5  N   UNL     1      43.011 -15.706   1.392  1.00  0.00    -0.334 N 
HETATM    6  C   UNL     1      43.356 -17.009   1.617  1.00  0.00     0.255 C 
HETATM    7  O   UNL     1      43.624 -17.777   0.702  1.00  0.00    -0.268 OA
HETATM    8  C   UNL     1      43.401 -17.419   3.032  1.00  0.00     0.053 A 
HETATM    9  C   UNL     1      43.258 -16.414   4.001  1.00  0.00     0.026 A 
HETATM   10  N   UNL     1      43.100 -15.064   3.620  1.00  0.00    -0.265 NA
HETATM   11  C   UNL     1      43.609 -18.754   3.386  1.00  0.00     0.019 A 
HETATM   12  C   UNL     1      43.680 -19.099   4.732  1.00  0.00     0.001 A 
HETATM   13  C   UNL     1      43.575 -18.108   5.709  1.00  0.00     0.002 A 
HETATM   14  C   UNL     1      43.387 -16.769   5.346  1.00  0.00     0.024 A 
HETATM   15  C   UNL     1      42.301 -13.233   1.875  1.00  0.00     0.030 C 
HETATM   16  C   UNL     1      41.125 -12.209   1.059  1.00  0.00     0.009 C 
HETATM   17  C   UNL     1      39.341 -12.715   1.498  1.00  0.00     0.010 C 
HETATM   18  C   UNL     1      40.403 -14.361   1.066  1.00  0.00     0.086 C 
HETATM   19  C   UNL     1      41.086 -13.336   2.570  1.00  0.00     0.023 C 
HETATM   20  H   UNL     1      42.988 -15.437   0.417  1.00  0.00     0.164 HD
HETATM   21  H   UNL     1      42.772 -14.490   4.391  1.00  0.00     0.130 HD
ENDROOT
BRANCH  18  22
HETATM   22  C   UNL     1      39.929 -14.260  -0.474  1.00  0.00     0.222 C 
HETATM   23  N   UNL     1      40.683 -15.128  -1.247  1.00  0.00    -0.360 N 
HETATM   24  H   UNL     1      41.341 -15.736  -0.777  1.00  0.00     0.162 HD
HETATM   25  O   UNL     1      39.098 -13.517  -0.973  1.00  0.00    -0.273 OA
BRANCH  23  26
HETATM   26  C   UNL     1      40.495 -15.379  -2.663  1.00  0.00     0.127 C 
BRANCH  26  27
HETATM   27  C   UNL     1      41.597 -14.725  -3.515  1.00  0.00     0.058 C 
BRANCH  27  28
HETATM   28  C   UNL     1      41.754 -13.240  -3.264  1.00  0.00    -0.057 A 
HETATM   29  C   UNL     1      42.795 -12.742  -2.472  1.00  0.00     0.010 A 
HETATM   30  C   UNL     1      42.850 -11.380  -2.158  1.00  0.00     0.037 A 
HETATM   31  C   UNL     1      41.884 -10.494  -2.640  1.00  0.00     0.068 A 
HETATM   32  C   UNL     1      40.851 -10.983  -3.437  1.00  0.00     0.037 A 
HETATM   33  C   UNL     1      40.789 -12.346  -3.747  1.00  0.00     0.010 A 
BRANCH  31  34
HETATM   34  O   UNL     1      42.046  -9.193  -2.249  1.00  0.00    -0.356 OA
HETATM   35  C   UNL     1      41.404  -8.812  -1.038  1.00  0.00     0.210 C 
ENDBRANCH  31  34
ENDBRANCH  27  28
ENDBRANCH  26  27
ENDBRANCH  23  26
ENDBRANCH  18  22
TORSDOF 5
ENDMDL
