MODEL 1
REMARK VINA RESULT:      -9.1      0.000      0.000
REMARK  4 active torsions:
REMARK  status: ('A' for Active; 'I' for Inactive)
REMARK    1  A    between atoms: C_6  and  N_7 
REMARK       I    between atoms: N_7  and  C_8 
REMARK    2  A    between atoms: C_8  and  C_9 
REMARK    3  A    between atoms: C_10  and  C_11 
REMARK    4  A    between atoms: C_13  and  O_14 
ROOT
HETATM    1  C   UNL     1      42.034 -15.084   5.432  1.00  0.00     0.062 C 
HETATM    2  C   UNL     1      40.777 -14.383   4.931  1.00  0.00     0.202 C 
HETATM    3  N   UNL     1      40.642 -13.060   5.551  1.00  0.00    -0.084 N 
HETATM    4  C   UNL     1      41.631 -12.450   6.278  1.00  0.00     0.725 A 
HETATM    5  N   UNL     1      42.794 -13.098   6.484  1.00  0.00    -0.192 N 
HETATM    6  N   UNL     1      39.507 -12.329   5.559  1.00  0.00    -0.149 NA
HETATM    7  C   UNL     1      39.918 -11.245   6.228  1.00  0.00     0.275 A 
HETATM    8  N   UNL     1      41.209 -11.284   6.694  1.00  0.00    -0.054 NA
HETATM    9  C   UNL     1      42.990 -14.430   6.137  1.00  0.00     0.037 C 
HETATM   10  C   UNL     1      44.292 -15.045   6.582  1.00  0.00     0.070 C 
HETATM   11  H   UNL     1      43.504 -12.647   7.056  1.00  0.00     0.184 HD
ENDROOT
BRANCH   1  12
HETATM   12  C   UNL     1      42.099 -16.537   5.136  1.00  0.00     0.256 C 
HETATM   13  N   UNL     1      42.975 -16.820   4.107  1.00  0.00    -0.323 N 
HETATM   14  H   UNL     1      43.422 -16.029   3.665  1.00  0.00     0.169 HD
HETATM   15  O   UNL     1      41.454 -17.325   5.812  1.00  0.00    -0.267 OA
BRANCH  13  16
HETATM   16  C   UNL     1      43.344 -18.095   3.613  1.00  0.00     0.041 A 
HETATM   17  C   UNL     1      42.818 -18.524   2.374  1.00  0.00    -0.035 A 
HETATM   18  C   UNL     1      43.206 -19.774   1.853  1.00  0.00     0.015 A 
HETATM   19  C   UNL     1      41.856 -17.690   1.572  1.00  0.00     0.050 C 
HETATM   20  C   UNL     1      44.086 -20.610   2.547  1.00  0.00    -0.061 A 
HETATM   21  C   UNL     1      44.528 -21.919   1.964  1.00  0.00     0.048 C 
HETATM   22  C   UNL     1      44.598 -20.177   3.769  1.00  0.00     0.009 A 
HETATM   23  C   UNL     1      44.226 -18.937   4.297  1.00  0.00     0.030 A 
ENDBRANCH  13  16
ENDBRANCH   1  12
BRANCH   2  24
HETATM   24  C   UNL     1      40.711 -14.245   3.413  1.00  0.00    -0.025 A 
HETATM   25  C   UNL     1      41.663 -13.452   2.741  1.00  0.00     0.046 A 
HETATM   26  C   UNL     1      41.618 -13.301   1.353  1.00  0.00     0.068 A 
HETATM   27  C   UNL     1      40.618 -13.950   0.627  1.00  0.00     0.037 A 
HETATM   28  C   UNL     1      39.670 -14.742   1.274  1.00  0.00     0.003 A 
HETATM   29  C   UNL     1      39.716 -14.891   2.658  1.00  0.00     0.010 A 
BRANCH  26  30
HETATM   30  O   UNL     1      42.481 -12.558   0.596  1.00  0.00    -0.356 OA
HETATM   31  C   UNL     1      42.120 -12.338  -0.762  1.00  0.00     0.210 C 
ENDBRANCH  26  30
ENDBRANCH   2  24
TORSDOF 4
ENDMDL
MODEL 2
REMARK VINA RESULT:      -8.5      0.988      1.906
REMARK  4 active torsions:
REMARK  status: ('A' for Active; 'I' for Inactive)
REMARK    1  A    between atoms: C_6  and  N_7 
REMARK       I    between atoms: N_7  and  C_8 
REMARK    2  A    between atoms: C_8  and  C_9 
REMARK    3  A    between atoms: C_10  and  C_11 
REMARK    4  A    between atoms: C_13  and  O_14 
ROOT
HETATM    1  C   UNL     1      42.088 -15.054   5.386  1.00  0.00     0.062 C 
HETATM    2  C   UNL     1      40.888 -14.265   4.875  1.00  0.00     0.202 C 
HETATM    3  N   UNL     1      40.787 -12.975   5.566  1.00  0.00    -0.084 N 
HETATM    4  C   UNL     1      41.770 -12.456   6.368  1.00  0.00     0.725 A 
HETATM    5  N   UNL     1      42.891 -13.169   6.584  1.00  0.00    -0.192 N 
HETATM    6  N   UNL     1      39.688 -12.191   5.569  1.00  0.00    -0.149 NA
HETATM    7  C   UNL     1      40.118 -11.168   6.317  1.00  0.00     0.275 A 
HETATM    8  N   UNL     1      41.384 -11.296   6.833  1.00  0.00    -0.054 NA
HETATM    9  C   UNL     1      43.041 -14.488   6.168  1.00  0.00     0.037 C 
HETATM   10  C   UNL     1      44.293 -15.189   6.630  1.00  0.00     0.070 C 
HETATM   11  H   UNL     1      43.596 -12.787   7.210  1.00  0.00     0.184 HD
ENDROOT
BRANCH   1  12
HETATM   12  C   UNL     1      42.100 -16.489   5.009  1.00  0.00     0.256 C 
HETATM   13  N   UNL     1      43.054 -16.768   4.051  1.00  0.00    -0.323 N 
HETATM   14  H   UNL     1      43.586 -15.983   3.703  1.00  0.00     0.169 HD
HETATM   15  O   UNL     1      41.348 -17.272   5.571  1.00  0.00    -0.267 OA
BRANCH  13  16
HETATM   16  C   UNL     1      43.396 -18.034   3.515  1.00  0.00     0.041 A 
HETATM   17  C   UNL     1      44.240 -18.885   4.262  1.00  0.00    -0.035 A 
HETATM   18  C   UNL     1      44.558 -20.161   3.757  1.00  0.00     0.015 A 
HETATM   19  C   UNL     1      44.816 -18.486   5.594  1.00  0.00     0.050 C 
HETATM   20  C   UNL     1      44.070 -20.597   2.521  1.00  0.00    -0.061 A 
HETATM   21  C   UNL     1      44.377 -21.974   2.013  1.00  0.00     0.048 C 
HETATM   22  C   UNL     1      43.239 -19.749   1.792  1.00  0.00     0.009 A 
HETATM   23  C   UNL     1      42.911 -18.481   2.281  1.00  0.00     0.030 A 
ENDBRANCH  13  16
ENDBRANCH   1  12
BRANCH   2  24
HETATM   24  C   UNL     1      40.896 -14.039   3.366  1.00  0.00    -0.025 A 
HETATM   25  C   UNL     1      39.747 -14.340   2.608  1.00  0.00     0.046 A 
HETATM   26  C   UNL     1      39.732 -14.152   1.224  1.00  0.00     0.068 A 
HETATM   27  C   UNL     1      40.872 -13.655   0.590  1.00  0.00     0.037 A 
HETATM   28  C   UNL     1      42.017 -13.347   1.324  1.00  0.00     0.003 A 
HETATM   29  C   UNL     1      42.030 -13.536   2.704  1.00  0.00     0.010 A 
BRANCH  26  30
HETATM   30  O   UNL     1      38.681 -14.410   0.388  1.00  0.00    -0.356 OA
HETATM   31  C   UNL     1      38.494 -13.518  -0.704  1.00  0.00     0.210 C 
ENDBRANCH  26  30
ENDBRANCH   2  24
TORSDOF 4
ENDMDL
MODEL 3
REMARK VINA RESULT:      -8.5      2.717      4.766
REMARK  4 active torsions:
REMARK  status: ('A' for Active; 'I' for Inactive)
REMARK    1  A    between atoms: C_6  and  N_7 
REMARK       I    between atoms: N_7  and  C_8 
REMARK    2  A    between atoms: C_8  and  C_9 
REMARK    3  A    between atoms: C_10  and  C_11 
REMARK    4  A    between atoms: C_13  and  O_14 
ROOT
HETATM    1  C   UNL     1      42.411 -15.998   1.554  1.00  0.00     0.062 C 
HETATM    2  C   UNL     1      42.837 -14.598   1.979  1.00  0.00     0.202 C 
HETATM    3  N   UNL     1      41.997 -13.585   1.330  1.00  0.00    -0.084 N 
HETATM    4  C   UNL     1      40.845 -13.869   0.643  1.00  0.00     0.725 A 
HETATM    5  N   UNL     1      40.457 -15.152   0.508  1.00  0.00    -0.192 N 
HETATM    6  N   UNL     1      42.301 -12.272   1.252  1.00  0.00    -0.149 NA
HETATM    7  C   UNL     1      41.236 -11.812   0.586  1.00  0.00     0.275 A 
HETATM    8  N   UNL     1      40.326 -12.759   0.187  1.00  0.00    -0.054 NA
HETATM    9  C   UNL     1      41.253 -16.227   0.887  1.00  0.00     0.037 C 
HETATM   10  C   UNL     1      40.736 -17.595   0.519  1.00  0.00     0.070 C 
HETATM   11  H   UNL     1      39.620 -15.350  -0.035  1.00  0.00     0.184 HD
ENDROOT
BRANCH   1  12
HETATM   12  C   UNL     1      43.384 -17.073   1.877  1.00  0.00     0.256 C 
HETATM   13  N   UNL     1      42.959 -17.860   2.929  1.00  0.00    -0.323 N 
HETATM   14  H   UNL     1      42.086 -17.598   3.365  1.00  0.00     0.169 HD
HETATM   15  O   UNL     1      44.395 -17.200   1.204  1.00  0.00    -0.267 OA
BRANCH  13  16
HETATM   16  C   UNL     1      43.590 -19.014   3.454  1.00  0.00     0.041 A 
HETATM   17  C   UNL     1      43.899 -19.055   4.831  1.00  0.00    -0.035 A 
HETATM   18  C   UNL     1      44.494 -20.212   5.373  1.00  0.00     0.015 A 
HETATM   19  C   UNL     1      43.610 -17.906   5.759  1.00  0.00     0.050 C 
HETATM   20  C   UNL     1      44.803 -21.315   4.571  1.00  0.00    -0.061 A 
HETATM   21  C   UNL     1      45.395 -22.558   5.165  1.00  0.00     0.048 C 
HETATM   22  C   UNL     1      44.495 -21.263   3.213  1.00  0.00     0.009 A 
HETATM   23  C   UNL     1      43.901 -20.124   2.661  1.00  0.00     0.030 A 
ENDBRANCH  13  16
ENDBRANCH   1  12
BRANCH   2  24
HETATM   24  C   UNL     1      42.825 -14.381   3.489  1.00  0.00    -0.025 A 
HETATM   25  C   UNL     1      44.031 -14.107   4.165  1.00  0.00     0.046 A 
HETATM   26  C   UNL     1      44.049 -13.915   5.549  1.00  0.00     0.068 A 
HETATM   27  C   UNL     1      42.854 -13.993   6.264  1.00  0.00     0.037 A 
HETATM   28  C   UNL     1      41.650 -14.260   5.613  1.00  0.00     0.003 A 
HETATM   29  C   UNL     1      41.634 -14.451   4.233  1.00  0.00     0.010 A 
BRANCH  26  30
HETATM   30  O   UNL     1      45.153 -13.647   6.310  1.00  0.00    -0.356 OA
HETATM   31  C   UNL     1      44.940 -13.436   7.700  1.00  0.00     0.210 C 
ENDBRANCH  26  30
ENDBRANCH   2  24
TORSDOF 4
ENDMDL
MODEL 4
REMARK VINA RESULT:      -8.0      3.351      5.294
REMARK  4 active torsions:
REMARK  status: ('A' for Active; 'I' for Inactive)
REMARK    1  A    between atoms: C_6  and  N_7 
REMARK       I    between atoms: N_7  and  C_8 
REMARK    2  A    between atoms: C_8  and  C_9 
REMARK    3  A    between atoms: C_10  and  C_11 
REMARK    4  A    between atoms: C_13  and  O_14 
ROOT
HETATM    1  C   UNL     1      41.610 -14.581  -0.182  1.00  0.00     0.062 C 
HETATM    2  C   UNL     1      41.955 -13.283   0.537  1.00  0.00     0.202 C 
HETATM    3  N   UNL     1      42.226 -12.214  -0.431  1.00  0.00    -0.084 N 
HETATM    4  C   UNL     1      41.962 -12.310  -1.773  1.00  0.00     0.725 A 
HETATM    5  N   UNL     1      41.459 -13.457  -2.266  1.00  0.00    -0.192 N 
HETATM    6  N   UNL     1      42.846 -11.051  -0.137  1.00  0.00    -0.149 NA
HETATM    7  C   UNL     1      42.834 -10.456  -1.335  1.00  0.00     0.275 A 
HETATM    8  N   UNL     1      42.310 -11.196  -2.365  1.00  0.00    -0.054 NA
HETATM    9  C   UNL     1      41.344 -14.620  -1.511  1.00  0.00     0.037 C 
HETATM   10  C   UNL     1      40.912 -15.855  -2.260  1.00  0.00     0.070 C 
HETATM   11  H   UNL     1      41.303 -13.526  -3.269  1.00  0.00     0.184 HD
ENDROOT
BRANCH   1  12
HETATM   12  C   UNL     1      41.644 -15.796   0.670  1.00  0.00     0.256 C 
HETATM   13  N   UNL     1      42.933 -16.171   0.991  1.00  0.00    -0.323 N 
HETATM   14  H   UNL     1      43.677 -15.618   0.589  1.00  0.00     0.169 HD
HETATM   15  O   UNL     1      40.598 -16.310   1.038  1.00  0.00    -0.267 OA
BRANCH  13  16
HETATM   16  C   UNL     1      43.339 -17.228   1.842  1.00  0.00     0.041 A 
HETATM   17  C   UNL     1      43.468 -16.978   3.226  1.00  0.00    -0.035 A 
HETATM   18  C   UNL     1      43.835 -18.030   4.088  1.00  0.00     0.015 A 
HETATM   19  C   UNL     1      43.221 -15.622   3.829  1.00  0.00     0.050 C 
HETATM   20  C   UNL     1      44.093 -19.315   3.599  1.00  0.00    -0.061 A 
HETATM   21  C   UNL     1      44.439 -20.439   4.530  1.00  0.00     0.048 C 
HETATM   22  C   UNL     1      43.963 -19.550   2.232  1.00  0.00     0.009 A 
HETATM   23  C   UNL     1      43.596 -18.518   1.364  1.00  0.00     0.030 A 
ENDBRANCH  13  16
ENDBRANCH   1  12
BRANCH   2  24
HETATM   24  C   UNL     1      40.885 -12.821   1.523  1.00  0.00    -0.025 A 
HETATM   25  C   UNL     1      41.226 -12.608   2.873  1.00  0.00     0.046 A 
HETATM   26  C   UNL     1      40.263 -12.196   3.798  1.00  0.00     0.068 A 
HETATM   27  C   UNL     1      38.951 -11.990   3.372  1.00  0.00     0.037 A 
HETATM   28  C   UNL     1      38.596 -12.191   2.038  1.00  0.00     0.003 A 
HETATM   29  C   UNL     1      39.557 -12.602   1.117  1.00  0.00     0.010 A 
BRANCH  26  30
HETATM   30  O   UNL     1      40.474 -11.962   5.129  1.00  0.00    -0.356 OA
HETATM   31  C   UNL     1      39.470 -12.416   6.029  1.00  0.00     0.210 C 
ENDBRANCH  26  30
ENDBRANCH   2  24
TORSDOF 4
ENDMDL
MODEL 5
REMARK VINA RESULT:      -7.9      2.915      5.982
REMARK  4 active torsions:
REMARK  status: ('A' for Active; 'I' for Inactive)
REMARK    1  A    between atoms: C_6  and  N_7 
REMARK       I    between atoms: N_7  and  C_8 
REMARK    2  A    between atoms: C_8  and  C_9 
REMARK    3  A    between atoms: C_10  and  C_11 
REMARK    4  A    between atoms: C_13  and  O_14 
ROOT
HETATM    1  C   UNL     1      42.093 -17.089   3.236  1.00  0.00     0.062 C 
HETATM    2  C   UNL     1      41.609 -16.696   4.627  1.00  0.00     0.202 C 
HETATM    3  N   UNL     1      42.461 -17.298   5.659  1.00  0.00    -0.084 N 
HETATM    4  C   UNL     1      43.659 -17.913   5.401  1.00  0.00     0.725 A 
HETATM    5  N   UNL     1      44.086 -18.019   4.128  1.00  0.00    -0.192 N 
HETATM    6  N   UNL     1      42.130 -17.399   6.964  1.00  0.00    -0.149 NA
HETATM    7  C   UNL     1      43.223 -18.001   7.448  1.00  0.00     0.275 A 
HETATM    8  N   UNL     1      44.178 -18.341   6.523  1.00  0.00    -0.054 NA
HETATM    9  C   UNL     1      43.295 -17.684   3.034  1.00  0.00     0.037 C 
HETATM   10  C   UNL     1      43.866 -18.015   1.679  1.00  0.00     0.070 C 
HETATM   11  H   UNL     1      44.958 -18.510   3.949  1.00  0.00     0.184 HD
ENDROOT
BRANCH   1  12
HETATM   12  C   UNL     1      41.129 -16.821   2.140  1.00  0.00     0.256 C 
HETATM   13  N   UNL     1      41.430 -15.660   1.455  1.00  0.00    -0.323 N 
HETATM   14  H   UNL     1      42.219 -15.128   1.794  1.00  0.00     0.169 HD
HETATM   15  O   UNL     1      40.232 -17.618   1.910  1.00  0.00    -0.267 OA
BRANCH  13  16
HETATM   16  C   UNL     1      40.777 -15.138   0.311  1.00  0.00     0.041 A 
HETATM   17  C   UNL     1      39.736 -14.202   0.489  1.00  0.00    -0.035 A 
HETATM   18  C   UNL     1      39.103 -13.647  -0.641  1.00  0.00     0.015 A 
HETATM   19  C   UNL     1      39.271 -13.758   1.850  1.00  0.00     0.050 C 
HETATM   20  C   UNL     1      39.473 -14.019  -1.937  1.00  0.00    -0.061 A 
HETATM   21  C   UNL     1      38.824 -13.390  -3.135  1.00  0.00     0.048 C 
HETATM   22  C   UNL     1      40.501 -14.945  -2.101  1.00  0.00     0.009 A 
HETATM   23  C   UNL     1      41.141 -15.502  -0.990  1.00  0.00     0.030 A 
ENDBRANCH  13  16
ENDBRANCH   1  12
BRANCH   2  24
HETATM   24  C   UNL     1      41.524 -15.189   4.848  1.00  0.00    -0.025 A 
HETATM   25  C   UNL     1      40.374 -14.634   5.444  1.00  0.00     0.046 A 
HETATM   26  C   UNL     1      40.267 -13.256   5.647  1.00  0.00     0.068 A 
HETATM   27  C   UNL     1      41.318 -12.425   5.257  1.00  0.00     0.037 A 
HETATM   28  C   UNL     1      42.465 -12.956   4.669  1.00  0.00     0.003 A 
HETATM   29  C   UNL     1      42.570 -14.330   4.467  1.00  0.00     0.010 A 
BRANCH  26  30
HETATM   30  O   UNL     1      39.204 -12.605   6.211  1.00  0.00    -0.356 OA
HETATM   31  C   UNL     1      39.471 -11.815   7.363  1.00  0.00     0.210 C 
ENDBRANCH  26  30
ENDBRANCH   2  24
TORSDOF 4
ENDMDL
MODEL 6
REMARK VINA RESULT:      -7.5      2.926      6.256
REMARK  4 active torsions:
REMARK  status: ('A' for Active; 'I' for Inactive)
REMARK    1  A    between atoms: C_6  and  N_7 
REMARK       I    between atoms: N_7  and  C_8 
REMARK    2  A    between atoms: C_8  and  C_9 
REMARK    3  A    between atoms: C_10  and  C_11 
REMARK    4  A    between atoms: C_13  and  O_14 
ROOT
HETATM    1  C   UNL     1      42.452 -17.490   3.236  1.00  0.00     0.062 C 
HETATM    2  C   UNL     1      42.123 -17.230   4.701  1.00  0.00     0.202 C 
HETATM    3  N   UNL     1      42.879 -18.140   5.570  1.00  0.00    -0.084 N 
HETATM    4  C   UNL     1      43.911 -18.931   5.137  1.00  0.00     0.725 A 
HETATM    5  N   UNL     1      44.248 -18.922   3.833  1.00  0.00    -0.192 N 
HETATM    6  N   UNL     1      42.594 -18.374   6.868  1.00  0.00    -0.149 NA
HETATM    7  C   UNL     1      43.559 -19.247   7.178  1.00  0.00     0.275 A 
HETATM    8  N   UNL     1      44.381 -19.621   6.144  1.00  0.00    -0.054 NA
HETATM    9  C   UNL     1      43.495 -18.273   2.861  1.00  0.00     0.037 C 
HETATM   10  C   UNL     1      43.923 -18.496   1.433  1.00  0.00     0.070 C 
HETATM   11  H   UNL     1      44.992 -19.541   3.521  1.00  0.00     0.184 HD
ENDROOT
BRANCH   1  12
HETATM   12  C   UNL     1      41.516 -16.872   2.265  1.00  0.00     0.256 C 
HETATM   13  N   UNL     1      42.134 -15.918   1.481  1.00  0.00    -0.323 N 
HETATM   14  H   UNL     1      43.107 -15.732   1.681  1.00  0.00     0.169 HD
HETATM   15  O   UNL     1      40.359 -17.260   2.204  1.00  0.00    -0.267 OA
BRANCH  13  16
HETATM   16  C   UNL     1      41.572 -15.185   0.407  1.00  0.00     0.041 A 
HETATM   17  C   UNL     1      41.355 -13.799   0.568  1.00  0.00    -0.035 A 
HETATM   18  C   UNL     1      40.831 -13.052  -0.505  1.00  0.00     0.015 A 
HETATM   19  C   UNL     1      41.671 -13.074   1.848  1.00  0.00     0.050 C 
HETATM   20  C   UNL     1      40.502 -13.658  -1.722  1.00  0.00    -0.061 A 
HETATM   21  C   UNL     1      39.986 -12.847  -2.873  1.00  0.00     0.048 C 
HETATM   22  C   UNL     1      40.719 -15.026  -1.869  1.00  0.00     0.009 A 
HETATM   23  C   UNL     1      41.243 -15.781  -0.815  1.00  0.00     0.030 A 
ENDBRANCH  13  16
ENDBRANCH   1  12
BRANCH   2  24
HETATM   24  C   UNL     1      42.361 -15.788   5.140  1.00  0.00    -0.025 A 
HETATM   25  C   UNL     1      43.661 -15.368   5.484  1.00  0.00     0.046 A 
HETATM   26  C   UNL     1      43.904 -14.057   5.900  1.00  0.00     0.068 A 
HETATM   27  C   UNL     1      42.842 -13.154   5.967  1.00  0.00     0.037 A 
HETATM   28  C   UNL     1      41.549 -13.550   5.626  1.00  0.00     0.003 A 
HETATM   29  C   UNL     1      41.309 -14.858   5.213  1.00  0.00     0.010 A 
BRANCH  26  30
HETATM   30  O   UNL     1      45.117 -13.538   6.260  1.00  0.00    -0.356 OA
HETATM   31  C   UNL     1      45.332 -13.309   7.647  1.00  0.00     0.210 C 
ENDBRANCH  26  30
ENDBRANCH   2  24
TORSDOF 4
ENDMDL
MODEL 7
REMARK VINA RESULT:      -7.5      2.567      6.505
REMARK  4 active torsions:
REMARK  status: ('A' for Active; 'I' for Inactive)
REMARK    1  A    between atoms: C_6  and  N_7 
REMARK       I    between atoms: N_7  and  C_8 
REMARK    2  A    between atoms: C_8  and  C_9 
REMARK    3  A    between atoms: C_10  and  C_11 
REMARK    4  A    between atoms: C_13  and  O_14 
ROOT
HETATM    1  C   UNL     1      42.503 -16.232   4.396  1.00  0.00     0.062 C 
HETATM    2  C   UNL     1      43.730 -17.116   4.580  1.00  0.00     0.202 C 
HETATM    3  N   UNL     1      43.885 -17.496   5.989  1.00  0.00    -0.084 N 
HETATM    4  C   UNL     1      42.927 -17.290   6.948  1.00  0.00     0.725 A 
HETATM    5  N   UNL     1      41.780 -16.670   6.613  1.00  0.00    -0.192 N 
HETATM    6  N   UNL     1      45.014 -18.005   6.527  1.00  0.00    -0.149 NA
HETATM    7  C   UNL     1      44.627 -18.172   7.797  1.00  0.00     0.275 A 
HETATM    8  N   UNL     1      43.360 -17.738   8.098  1.00  0.00    -0.054 NA
HETATM    9  C   UNL     1      41.576 -16.073   5.374  1.00  0.00     0.037 C 
HETATM   10  C   UNL     1      40.301 -15.285   5.220  1.00  0.00     0.070 C 
HETATM   11  H   UNL     1      41.094 -16.493   7.343  1.00  0.00     0.184 HD
ENDROOT
BRANCH   1  12
HETATM   12  C   UNL     1      42.433 -15.523   3.094  1.00  0.00     0.256 C 
HETATM   13  N   UNL     1      41.367 -15.947   2.326  1.00  0.00    -0.323 N 
HETATM   14  H   UNL     1      40.803 -16.692   2.711  1.00  0.00     0.169 HD
HETATM   15  O   UNL     1      43.241 -14.643   2.837  1.00  0.00    -0.267 OA
BRANCH  13  16
HETATM   16  C   UNL     1      40.951 -15.441   1.070  1.00  0.00     0.041 A 
HETATM   17  C   UNL     1      39.977 -14.420   1.035  1.00  0.00    -0.035 A 
HETATM   18  C   UNL     1      39.583 -13.882  -0.206  1.00  0.00     0.015 A 
HETATM   19  C   UNL     1      39.340 -13.867   2.281  1.00  0.00     0.050 C 
HETATM   20  C   UNL     1      40.122 -14.353  -1.408  1.00  0.00    -0.061 A 
HETATM   21  C   UNL     1      39.728 -13.744  -2.720  1.00  0.00     0.048 C 
HETATM   22  C   UNL     1      41.081 -15.362  -1.361  1.00  0.00     0.009 A 
HETATM   23  C   UNL     1      41.487 -15.903  -0.137  1.00  0.00     0.030 A 
ENDBRANCH  13  16
ENDBRANCH   1  12
BRANCH   2  24
HETATM   24  C   UNL     1      43.723 -18.370   3.711  1.00  0.00    -0.025 A 
HETATM   25  C   UNL     1      44.314 -19.556   4.190  1.00  0.00     0.046 A 
HETATM   26  C   UNL     1      44.331 -20.714   3.410  1.00  0.00     0.068 A 
HETATM   27  C   UNL     1      43.750 -20.691   2.141  1.00  0.00     0.037 A 
HETATM   28  C   UNL     1      43.157 -19.528   1.651  1.00  0.00     0.003 A 
HETATM   29  C   UNL     1      43.141 -18.374   2.431  1.00  0.00     0.010 A 
BRANCH  26  30
HETATM   30  O   UNL     1      44.874 -21.918   3.766  1.00  0.00    -0.356 OA
HETATM   31  C   UNL     1      44.825 -22.264   5.144  1.00  0.00     0.210 C 
ENDBRANCH  26  30
ENDBRANCH   2  24
TORSDOF 4
ENDMDL
MODEL 8
REMARK VINA RESULT:      -7.4      1.650      2.311
REMARK  4 active torsions:
REMARK  status: ('A' for Active; 'I' for Inactive)
REMARK    1  A    between atoms: C_6  and  N_7 
REMARK       I    between atoms: N_7  and  C_8 
REMARK    2  A    between atoms: C_8  and  C_9 
REMARK    3  A    between atoms: C_10  and  C_11 
REMARK    4  A    between atoms: C_13  and  O_14 
ROOT
HETATM    1  C   UNL     1      41.709 -14.629   4.434  1.00  0.00     0.062 C 
HETATM    2  C   UNL     1      40.568 -14.353   3.464  1.00  0.00     0.202 C 
HETATM    3  N   UNL     1      40.208 -12.930   3.482  1.00  0.00    -0.084 N 
HETATM    4  C   UNL     1      40.956 -11.958   4.094  1.00  0.00     0.725 A 
HETATM    5  N   UNL     1      42.074 -12.307   4.760  1.00  0.00    -0.192 N 
HETATM    6  N   UNL     1      39.062 -12.423   2.981  1.00  0.00    -0.149 NA
HETATM    7  C   UNL     1      39.234 -11.122   3.243  1.00  0.00     0.275 A 
HETATM    8  N   UNL     1      40.377 -10.797   3.932  1.00  0.00    -0.054 NA
HETATM    9  C   UNL     1      42.428 -13.629   5.004  1.00  0.00     0.037 C 
HETATM   10  C   UNL     1      43.622 -13.840   5.900  1.00  0.00     0.070 C 
HETATM   11  H   UNL     1      42.598 -11.580   5.239  1.00  0.00     0.184 HD
ENDROOT
BRANCH   1  12
HETATM   12  C   UNL     1      41.932 -16.063   4.746  1.00  0.00     0.256 C 
HETATM   13  N   UNL     1      43.067 -16.559   4.135  1.00  0.00    -0.323 N 
HETATM   14  H   UNL     1      43.572 -15.920   3.536  1.00  0.00     0.169 HD
HETATM   15  O   UNL     1      41.173 -16.645   5.507  1.00  0.00    -0.267 OA
BRANCH  13  16
HETATM   16  C   UNL     1      43.625 -17.854   4.269  1.00  0.00     0.041 A 
HETATM   17  C   UNL     1      44.301 -18.184   5.463  1.00  0.00    -0.035 A 
HETATM   18  C   UNL     1      44.828 -19.481   5.624  1.00  0.00     0.015 A 
HETATM   19  C   UNL     1      44.479 -17.203   6.590  1.00  0.00     0.050 C 
HETATM   20  C   UNL     1      44.712 -20.443   4.616  1.00  0.00    -0.061 A 
HETATM   21  C   UNL     1      45.237 -21.834   4.813  1.00  0.00     0.048 C 
HETATM   22  C   UNL     1      44.044 -20.106   3.441  1.00  0.00     0.009 A 
HETATM   23  C   UNL     1      43.512 -18.824   3.268  1.00  0.00     0.030 A 
ENDBRANCH  13  16
ENDBRANCH   1  12
BRANCH   2  24
HETATM   24  C   UNL     1      40.857 -14.789   2.031  1.00  0.00    -0.025 A 
HETATM   25  C   UNL     1      41.385 -13.861   1.111  1.00  0.00     0.046 A 
HETATM   26  C   UNL     1      41.649 -14.232  -0.210  1.00  0.00     0.068 A 
HETATM   27  C   UNL     1      41.389 -15.542  -0.616  1.00  0.00     0.037 A 
HETATM   28  C   UNL     1      40.870 -16.475   0.281  1.00  0.00     0.003 A 
HETATM   29  C   UNL     1      40.607 -16.103   1.597  1.00  0.00     0.010 A 
BRANCH  26  30
HETATM   30  O   UNL     1      42.156 -13.422  -1.188  1.00  0.00    -0.356 OA
HETATM   31  C   UNL     1      41.347 -13.220  -2.340  1.00  0.00     0.210 C 
ENDBRANCH  26  30
ENDBRANCH   2  24
TORSDOF 4
ENDMDL
MODEL 9
REMARK VINA RESULT:      -7.3      2.622      4.579
REMARK  4 active torsions:
REMARK  status: ('A' for Active; 'I' for Inactive)
REMARK    1  A    between atoms: C_6  and  N_7 
REMARK       I    between atoms: N_7  and  C_8 
REMARK    2  A    between atoms: C_8  and  C_9 
REMARK    3  A    between atoms: C_10  and  C_11 
REMARK    4  A    between atoms: C_13  and  O_14 
ROOT
HETATM    1  C   UNL     1      42.392 -15.958   1.703  1.00  0.00     0.062 C 
HETATM    2  C   UNL     1      42.780 -14.517   2.013  1.00  0.00     0.202 C 
HETATM    3  N   UNL     1      41.939 -13.583   1.256  1.00  0.00    -0.084 N 
HETATM    4  C   UNL     1      40.812 -13.950   0.569  1.00  0.00     0.725 A 
HETATM    5  N   UNL     1      40.451 -15.247   0.537  1.00  0.00    -0.192 N 
HETATM    6  N   UNL     1      42.221 -12.275   1.071  1.00  0.00    -0.149 NA
HETATM    7  C   UNL     1      41.165 -11.898   0.341  1.00  0.00     0.275 A 
HETATM    8  N   UNL     1      40.284 -12.895   0.004  1.00  0.00    -0.054 NA
HETATM    9  C   UNL     1      41.256 -16.269   1.030  1.00  0.00     0.037 C 
HETATM   10  C   UNL     1      40.775 -17.674   0.771  1.00  0.00     0.070 C 
HETATM   11  H   UNL     1      39.633 -15.509  -0.007  1.00  0.00     0.184 HD
ENDROOT
BRANCH   1  12
HETATM   12  C   UNL     1      43.375 -16.979   2.144  1.00  0.00     0.256 C 
HETATM   13  N   UNL     1      42.848 -17.836   3.089  1.00  0.00    -0.323 N 
HETATM   14  H   UNL     1      41.901 -17.649   3.389  1.00  0.00     0.169 HD
HETATM   15  O   UNL     1      44.486 -17.012   1.636  1.00  0.00    -0.267 OA
BRANCH  13  16
HETATM   16  C   UNL     1      43.469 -18.967   3.673  1.00  0.00     0.041 A 
HETATM   17  C   UNL     1      43.690 -20.111   2.875  1.00  0.00    -0.035 A 
HETATM   18  C   UNL     1      44.340 -21.229   3.433  1.00  0.00     0.015 A 
HETATM   19  C   UNL     1      43.262 -20.186   1.434  1.00  0.00     0.050 C 
HETATM   20  C   UNL     1      44.756 -21.237   4.768  1.00  0.00    -0.061 A 
HETATM   21  C   UNL     1      45.487 -22.415   5.340  1.00  0.00     0.048 C 
HETATM   22  C   UNL     1      44.532 -20.104   5.546  1.00  0.00     0.009 A 
HETATM   23  C   UNL     1      43.891 -18.985   5.006  1.00  0.00     0.030 A 
ENDBRANCH  13  16
ENDBRANCH   1  12
BRANCH   2  24
HETATM   24  C   UNL     1      42.724 -14.169   3.498  1.00  0.00    -0.025 A 
HETATM   25  C   UNL     1      41.477 -13.950   4.117  1.00  0.00     0.046 A 
HETATM   26  C   UNL     1      41.399 -13.619   5.472  1.00  0.00     0.068 A 
HETATM   27  C   UNL     1      42.574 -13.511   6.217  1.00  0.00     0.037 A 
HETATM   28  C   UNL     1      43.816 -13.729   5.623  1.00  0.00     0.003 A 
HETATM   29  C   UNL     1      43.892 -14.058   4.271  1.00  0.00     0.010 A 
BRANCH  26  30
HETATM   30  O   UNL     1      40.252 -13.382   6.178  1.00  0.00    -0.356 OA
HETATM   31  C   UNL     1      39.255 -12.593   5.540  1.00  0.00     0.210 C 
ENDBRANCH  26  30
ENDBRANCH   2  24
TORSDOF 4
ENDMDL
MODEL 10
REMARK VINA RESULT:      -7.3      2.523      7.257
REMARK  4 active torsions:
REMARK  status: ('A' for Active; 'I' for Inactive)
REMARK    1  A    between atoms: C_6  and  N_7 
REMARK       I    between atoms: N_7  and  C_8 
REMARK    2  A    between atoms: C_8  and  C_9 
REMARK    3  A    between atoms: C_10  and  C_11 
REMARK    4  A    between atoms: C_13  and  O_14 
ROOT
HETATM    1  C   UNL     1      42.507 -17.675   3.117  1.00  0.00     0.062 C 
HETATM    2  C   UNL     1      42.664 -18.399   4.448  1.00  0.00     0.202 C 
HETATM    3  N   UNL     1      43.641 -19.488   4.330  1.00  0.00    -0.084 N 
HETATM    4  C   UNL     1      44.469 -19.661   3.252  1.00  0.00     0.725 A 
HETATM    5  N   UNL     1      44.375 -18.819   2.205  1.00  0.00    -0.192 N 
HETATM    6  N   UNL     1      43.779 -20.493   5.220  1.00  0.00    -0.149 NA
HETATM    7  C   UNL     1      44.779 -21.183   4.658  1.00  0.00     0.275 A 
HETATM    8  N   UNL     1      45.223 -20.712   3.447  1.00  0.00    -0.054 NA
HETATM    9  C   UNL     1      43.363 -17.873   2.084  1.00  0.00     0.037 C 
HETATM   10  C   UNL     1      43.312 -17.123   0.777  1.00  0.00     0.070 C 
HETATM   11  H   UNL     1      44.971 -18.982   1.397  1.00  0.00     0.184 HD
ENDROOT
BRANCH   1  12
HETATM   12  C   UNL     1      41.321 -16.787   3.024  1.00  0.00     0.256 C 
HETATM   13  N   UNL     1      41.606 -15.495   3.419  1.00  0.00    -0.323 N 
HETATM   14  H   UNL     1      42.545 -15.321   3.751  1.00  0.00     0.169 HD
HETATM   15  O   UNL     1      40.266 -17.224   2.589  1.00  0.00    -0.267 OA
BRANCH  13  16
HETATM   16  C   UNL     1      40.743 -14.372   3.389  1.00  0.00     0.041 A 
HETATM   17  C   UNL     1      40.219 -13.883   4.605  1.00  0.00    -0.035 A 
HETATM   18  C   UNL     1      39.389 -12.744   4.593  1.00  0.00     0.015 A 
HETATM   19  C   UNL     1      40.518 -14.527   5.932  1.00  0.00     0.050 C 
HETATM   20  C   UNL     1      39.057 -12.098   3.398  1.00  0.00    -0.061 A 
HETATM   21  C   UNL     1      38.210 -10.861   3.400  1.00  0.00     0.048 C 
HETATM   22  C   UNL     1      39.579 -12.591   2.204  1.00  0.00     0.009 A 
HETATM   23  C   UNL     1      40.408 -13.717   2.199  1.00  0.00     0.030 A 
ENDBRANCH  13  16
ENDBRANCH   1  12
BRANCH   2  24
HETATM   24  C   UNL     1      43.053 -17.485   5.605  1.00  0.00    -0.025 A 
HETATM   25  C   UNL     1      43.782 -16.306   5.350  1.00  0.00     0.046 A 
HETATM   26  C   UNL     1      44.160 -15.457   6.393  1.00  0.00     0.068 A 
HETATM   27  C   UNL     1      43.804 -15.784   7.702  1.00  0.00     0.037 A 
HETATM   28  C   UNL     1      43.080 -16.944   7.974  1.00  0.00     0.003 A 
HETATM   29  C   UNL     1      42.704 -17.790   6.933  1.00  0.00     0.010 A 
BRANCH  26  30
HETATM   30  O   UNL     1      44.867 -14.293   6.269  1.00  0.00    -0.356 OA
HETATM   31  C   UNL     1      45.116 -13.561   7.462  1.00  0.00     0.210 C 
ENDBRANCH  26  30
ENDBRANCH   2  24
TORSDOF 4
ENDMDL
