MODEL 1
REMARK VINA RESULT:      -9.5      0.000      0.000
REMARK  10 active torsions:
REMARK  status: ('A' for Active; 'I' for Inactive)
REMARK    1  A    between atoms: C_6  and  C_7 
REMARK    2  A    between atoms: C_7  and  O_8 
REMARK    3  A    between atoms: O_8  and  C_9 
REMARK    4  A    between atoms: C_12  and  C_13 
REMARK    5  A    between atoms: N_14  and  N_15 
REMARK       I    between atoms: N_15  and  C_16 
REMARK    6  A    between atoms: C_16  and  C_17 
REMARK    7  A    between atoms: N_20  and  C_21 
REMARK    8  A    between atoms: C_25  and  N_26 
REMARK    9  A    between atoms: C_27  and  C_28 
REMARK   10  A    between atoms: C_28  and  N_29 
ROOT
HETATM    1  C   UNL     1      42.013 -10.089   8.794  1.00  0.00     0.170 C 
HETATM    2  N   UNL     1      41.827  -8.902   8.154  1.00  0.00    -0.152 NA
HETATM    3  N   UNL     1      40.939  -8.200   8.838  1.00  0.00     0.012 NA
HETATM    4  N   UNL     1      40.527  -8.924   9.912  1.00  0.00    -0.215 N 
HETATM    5  C   UNL     1      41.298 -10.083   9.987  1.00  0.00     0.096 C 
ENDROOT
BRANCH   1   6
HETATM    6  C   UNL     1      42.950 -11.106   8.338  1.00  0.00     0.293 C 
HETATM    7  N   UNL     1      42.480 -12.013   7.403  1.00  0.00    -0.242 N 
HETATM    8  H   UNL     1      43.129 -12.741   7.124  1.00  0.00     0.192 HD
HETATM    9  O   UNL     1      44.053 -11.252   8.857  1.00  0.00    -0.264 OA
BRANCH   7  10
HETATM   10  N   UNL     1      41.298 -11.839   6.751  1.00  0.00    -0.184 NA
HETATM   11  C   UNL     1      40.899 -12.717   5.877  1.00  0.00     0.150 C 
BRANCH  11  12
HETATM   12  C   UNL     1      41.518 -13.991   5.475  1.00  0.00    -0.017 A 
HETATM   13  C   UNL     1      40.856 -15.159   5.859  1.00  0.00     0.016 A 
HETATM   14  C   UNL     1      41.378 -16.398   5.489  1.00  0.00     0.037 A 
HETATM   15  C   UNL     1      42.539 -16.476   4.717  1.00  0.00     0.069 A 
HETATM   16  C   UNL     1      43.197 -15.306   4.336  1.00  0.00     0.037 A 
HETATM   17  C   UNL     1      42.679 -14.057   4.701  1.00  0.00     0.016 A 
BRANCH  15  18
HETATM   18  O   UNL     1      42.935 -17.747   4.416  1.00  0.00    -0.347 OA
BRANCH  18  19
HETATM   19  C   UNL     1      43.666 -17.928   3.202  1.00  0.00     0.214 C 
BRANCH  19  20
HETATM   20  C   UNL     1      43.928 -19.404   3.032  1.00  0.00    -0.033 A 
HETATM   21  C   UNL     1      44.442 -20.149   4.106  1.00  0.00     0.033 A 
HETATM   22  C   UNL     1      44.670 -21.518   3.970  1.00  0.00     0.034 A 
HETATM   23  C   UNL     1      44.386 -22.164   2.770  1.00  0.00     0.024 A 
HETATM   24 CL   UNL     1      45.300 -22.413   5.298  1.00  0.00    -0.084 Cl
HETATM   25  C   UNL     1      43.875 -21.433   1.697  1.00  0.00     0.002 A 
HETATM   26  C   UNL     1      43.647 -20.060   1.826  1.00  0.00     0.009 A 
ENDBRANCH  19  20
ENDBRANCH  18  19
ENDBRANCH  15  18
ENDBRANCH  11  12
ENDBRANCH   7  10
ENDBRANCH   1   6
BRANCH   5  27
HETATM   27  C   UNL     1      41.314 -11.075  11.080  1.00  0.00     0.296 C 
BRANCH  27  28
HETATM   28  N   UNL     1      41.986 -10.623  12.372  1.00  0.00    -0.066 N 
HETATM   29  H   UNL     1      42.554 -11.432  12.654  1.00  0.00     0.280 HD
HETATM   30  C   UNL     1      42.960  -9.475  12.199  1.00  0.00     0.235 C 
HETATM   31  C   UNL     1      43.733  -9.259  13.492  1.00  0.00     0.028 C 
HETATM   32  C   UNL     1      42.800  -9.041  14.677  1.00  0.00     0.003 C 
HETATM   33  C   UNL     1      41.801 -10.184  14.802  1.00  0.00     0.028 C 
HETATM   34  C   UNL     1      41.022 -10.395  13.511  1.00  0.00     0.235 C 
ENDBRANCH  27  28
ENDBRANCH   5  27
BRANCH   4  35
HETATM   35  C   UNL     1      39.506  -8.462  10.778  1.00  0.00     0.225 A 
HETATM   36  N   UNL     1      39.720  -7.418  11.580  1.00  0.00    -0.081 NA
HETATM   37  O   UNL     1      38.519  -7.276  12.276  1.00  0.00    -0.103 OA
HETATM   38  N   UNL     1      37.584  -8.209  11.853  1.00  0.00    -0.083 NA
HETATM   39  C   UNL     1      38.198  -8.950  10.931  1.00  0.00     0.201 A 
BRANCH  39  40
HETATM   40  N   UNL     1      37.618  -9.957  10.259  1.00  0.00    -0.379 N 
HETATM   41  H   UNL     1      36.760  -9.791   9.739  1.00  0.00     0.158 HD
HETATM   42  H   UNL     1      37.785 -10.938  10.483  1.00  0.00     0.158 HD
ENDBRANCH  39  40
ENDBRANCH   4  35
TORSDOF 10
ENDMDL
MODEL 2
REMARK VINA RESULT:      -9.3      6.516      9.976
REMARK  10 active torsions:
REMARK  status: ('A' for Active; 'I' for Inactive)
REMARK    1  A    between atoms: C_6  and  C_7 
REMARK    2  A    between atoms: C_7  and  O_8 
REMARK    3  A    between atoms: O_8  and  C_9 
REMARK    4  A    between atoms: C_12  and  C_13 
REMARK    5  A    between atoms: N_14  and  N_15 
REMARK       I    between atoms: N_15  and  C_16 
REMARK    6  A    between atoms: C_16  and  C_17 
REMARK    7  A    between atoms: N_20  and  C_21 
REMARK    8  A    between atoms: C_25  and  N_26 
REMARK    9  A    between atoms: C_27  and  C_28 
REMARK   10  A    between atoms: C_28  and  N_29 
ROOT
HETATM    1  C   UNL     1      41.984 -14.247   1.508  1.00  0.00     0.170 C 
HETATM    2  N   UNL     1      42.195 -15.558   1.204  1.00  0.00    -0.152 NA
HETATM    3  N   UNL     1      41.679 -15.791   0.009  1.00  0.00     0.012 NA
HETATM    4  N   UNL     1      41.114 -14.650  -0.466  1.00  0.00    -0.215 N 
HETATM    5  C   UNL     1      41.413 -13.609   0.412  1.00  0.00     0.096 C 
ENDROOT
BRANCH   1   6
HETATM    6  C   UNL     1      42.448 -13.626   2.741  1.00  0.00     0.293 C 
HETATM    7  N   UNL     1      41.487 -13.339   3.695  1.00  0.00    -0.242 N 
HETATM    8  H   UNL     1      41.817 -12.870   4.532  1.00  0.00     0.192 HD
HETATM    9  O   UNL     1      43.606 -13.240   2.877  1.00  0.00    -0.264 OA
BRANCH   7  10
HETATM   10  N   UNL     1      40.216 -13.820   3.615  1.00  0.00    -0.184 NA
HETATM   11  C   UNL     1      39.938 -15.006   4.072  1.00  0.00     0.150 C 
BRANCH  11  12
HETATM   12  C   UNL     1      40.805 -15.975   4.763  1.00  0.00    -0.017 A 
HETATM   13  C   UNL     1      41.266 -17.055   4.006  1.00  0.00     0.016 A 
HETATM   14  C   UNL     1      42.110 -17.995   4.595  1.00  0.00     0.037 A 
HETATM   15  C   UNL     1      42.518 -17.850   5.922  1.00  0.00     0.069 A 
HETATM   16  C   UNL     1      42.056 -16.768   6.674  1.00  0.00     0.037 A 
HETATM   17  C   UNL     1      41.208 -15.818   6.090  1.00  0.00     0.016 A 
BRANCH  15  18
HETATM   18  O   UNL     1      43.352 -18.832   6.370  1.00  0.00    -0.347 OA
BRANCH  18  19
HETATM   19  C   UNL     1      44.594 -18.993   5.682  1.00  0.00     0.214 C 
BRANCH  19  20
HETATM   20  C   UNL     1      44.577 -20.340   5.002  1.00  0.00    -0.033 A 
HETATM   21  C   UNL     1      44.464 -20.413   3.604  1.00  0.00     0.033 A 
HETATM   22  C   UNL     1      44.468 -21.650   2.959  1.00  0.00     0.034 A 
HETATM   23  C   UNL     1      44.590 -22.826   3.694  1.00  0.00     0.024 A 
HETATM   24 CL   UNL     1      44.327 -21.719   1.246  1.00  0.00    -0.084 Cl
HETATM   25  C   UNL     1      44.704 -22.765   5.083  1.00  0.00     0.002 A 
HETATM   26  C   UNL     1      44.698 -21.528   5.735  1.00  0.00     0.009 A 
ENDBRANCH  19  20
ENDBRANCH  18  19
ENDBRANCH  15  18
ENDBRANCH  11  12
ENDBRANCH   7  10
ENDBRANCH   1   6
BRANCH   5  27
HETATM   27  C   UNL     1      41.149 -12.170   0.213  1.00  0.00     0.296 C 
BRANCH  27  28
HETATM   28  N   UNL     1      42.029 -11.475  -0.819  1.00  0.00    -0.066 N 
HETATM   29  H   UNL     1      42.773 -12.158  -1.013  1.00  0.00     0.280 HD
HETATM   30  C   UNL     1      41.348 -11.217  -2.148  1.00  0.00     0.235 C 
HETATM   31  C   UNL     1      42.372 -10.734  -3.165  1.00  0.00     0.028 C 
HETATM   32  C   UNL     1      43.128  -9.509  -2.665  1.00  0.00     0.003 C 
HETATM   33  C   UNL     1      43.764  -9.776  -1.307  1.00  0.00     0.028 C 
HETATM   34  C   UNL     1      42.738 -10.252  -0.288  1.00  0.00     0.235 C 
ENDBRANCH  27  28
ENDBRANCH   5  27
BRANCH   4  35
HETATM   35  C   UNL     1      40.401 -14.622  -1.689  1.00  0.00     0.225 A 
HETATM   36  N   UNL     1      39.101 -14.322  -1.707  1.00  0.00    -0.081 NA
HETATM   37  O   UNL     1      38.753 -14.412  -3.056  1.00  0.00    -0.103 OA
HETATM   38  N   UNL     1      39.857 -14.722  -3.836  1.00  0.00    -0.083 NA
HETATM   39  C   UNL     1      40.876 -14.862  -2.989  1.00  0.00     0.201 A 
BRANCH  39  40
HETATM   40  N   UNL     1      42.135 -15.147  -3.358  1.00  0.00    -0.379 N 
HETATM   41  H   UNL     1      42.732 -15.690  -2.740  1.00  0.00     0.158 HD
HETATM   42  H   UNL     1      42.643 -14.601  -4.053  1.00  0.00     0.158 HD
ENDBRANCH  39  40
ENDBRANCH   4  35
TORSDOF 10
ENDMDL
MODEL 3
REMARK VINA RESULT:      -9.2      6.170      9.734
REMARK  10 active torsions:
REMARK  status: ('A' for Active; 'I' for Inactive)
REMARK    1  A    between atoms: C_6  and  C_7 
REMARK    2  A    between atoms: C_7  and  O_8 
REMARK    3  A    between atoms: O_8  and  C_9 
REMARK    4  A    between atoms: C_12  and  C_13 
REMARK    5  A    between atoms: N_14  and  N_15 
REMARK       I    between atoms: N_15  and  C_16 
REMARK    6  A    between atoms: C_16  and  C_17 
REMARK    7  A    between atoms: N_20  and  C_21 
REMARK    8  A    between atoms: C_25  and  N_26 
REMARK    9  A    between atoms: C_27  and  C_28 
REMARK   10  A    between atoms: C_28  and  N_29 
ROOT
HETATM    1  C   UNL     1      40.024 -12.620   1.287  1.00  0.00     0.170 C 
HETATM    2  N   UNL     1      40.116 -11.517   0.494  1.00  0.00    -0.152 NA
HETATM    3  N   UNL     1      40.219 -11.922  -0.761  1.00  0.00     0.012 NA
HETATM    4  N   UNL     1      40.215 -13.280  -0.797  1.00  0.00    -0.215 N 
HETATM    5  C   UNL     1      39.954 -13.756   0.487  1.00  0.00     0.096 C 
ENDROOT
BRANCH   1   6
HETATM    6  C   UNL     1      39.866 -12.555   2.734  1.00  0.00     0.293 C 
HETATM    7  N   UNL     1      41.006 -12.751   3.496  1.00  0.00    -0.242 N 
HETATM    8  H   UNL     1      40.875 -12.744   4.501  1.00  0.00     0.192 HD
HETATM    9  O   UNL     1      38.761 -12.477   3.263  1.00  0.00    -0.264 OA
BRANCH   7  10
HETATM   10  N   UNL     1      42.253 -12.763   2.949  1.00  0.00    -0.184 NA
HETATM   11  C   UNL     1      43.199 -13.468   3.499  1.00  0.00     0.150 C 
BRANCH  11  12
HETATM   12  C   UNL     1      43.146 -14.367   4.664  1.00  0.00    -0.017 A 
HETATM   13  C   UNL     1      42.233 -15.422   4.600  1.00  0.00     0.016 A 
HETATM   14  C   UNL     1      42.150 -16.323   5.661  1.00  0.00     0.037 A 
HETATM   15  C   UNL     1      42.990 -16.194   6.769  1.00  0.00     0.069 A 
HETATM   16  C   UNL     1      43.901 -15.138   6.827  1.00  0.00     0.037 A 
HETATM   17  C   UNL     1      43.992 -14.229   5.765  1.00  0.00     0.016 A 
BRANCH  15  18
HETATM   18  O   UNL     1      42.813 -17.147   7.729  1.00  0.00    -0.347 OA
BRANCH  18  19
HETATM   19  C   UNL     1      43.969 -17.884   8.131  1.00  0.00     0.214 C 
BRANCH  19  20
HETATM   20  C   UNL     1      44.039 -19.134   7.289  1.00  0.00    -0.033 A 
HETATM   21  C   UNL     1      44.529 -19.063   5.974  1.00  0.00     0.033 A 
HETATM   22  C   UNL     1      44.619 -20.214   5.191  1.00  0.00     0.034 A 
HETATM   23  C   UNL     1      44.230 -21.447   5.705  1.00  0.00     0.024 A 
HETATM   24 CL   UNL     1      45.221 -20.105   3.583  1.00  0.00    -0.084 Cl
HETATM   25  C   UNL     1      43.742 -21.530   7.010  1.00  0.00     0.002 A 
HETATM   26  C   UNL     1      43.647 -20.379   7.799  1.00  0.00     0.009 A 
ENDBRANCH  19  20
ENDBRANCH  18  19
ENDBRANCH  15  18
ENDBRANCH  11  12
ENDBRANCH   7  10
ENDBRANCH   1   6
BRANCH   5  27
HETATM   27  C   UNL     1      39.694 -15.154   0.886  1.00  0.00     0.296 C 
BRANCH  27  28
HETATM   28  N   UNL     1      40.907 -15.937   1.373  1.00  0.00    -0.066 N 
HETATM   29  H   UNL     1      41.076 -15.572   2.320  1.00  0.00     0.280 HD
HETATM   30  C   UNL     1      40.663 -17.424   1.542  1.00  0.00     0.235 C 
HETATM   31  C   UNL     1      41.854 -18.063   2.241  1.00  0.00     0.028 C 
HETATM   32  C   UNL     1      43.158 -17.780   1.506  1.00  0.00     0.003 C 
HETATM   33  C   UNL     1      43.358 -16.283   1.307  1.00  0.00     0.028 C 
HETATM   34  C   UNL     1      42.170 -15.645   0.601  1.00  0.00     0.235 C 
ENDBRANCH  27  28
ENDBRANCH   5  27
BRANCH   4  35
HETATM   35  C   UNL     1      40.407 -13.997  -2.003  1.00  0.00     0.225 A 
HETATM   36  N   UNL     1      41.621 -14.093  -2.547  1.00  0.00    -0.081 NA
HETATM   37  O   UNL     1      41.412 -14.841  -3.707  1.00  0.00    -0.103 OA
HETATM   38  N   UNL     1      40.083 -15.221  -3.823  1.00  0.00    -0.083 NA
HETATM   39  C   UNL     1      39.458 -14.691  -2.772  1.00  0.00     0.201 A 
BRANCH  39  40
HETATM   40  N   UNL     1      38.150 -14.847  -2.509  1.00  0.00    -0.379 N 
HETATM   41  H   UNL     1      37.814 -14.768  -1.553  1.00  0.00     0.158 HD
HETATM   42  H   UNL     1      37.519 -15.350  -3.132  1.00  0.00     0.158 HD
ENDBRANCH  39  40
ENDBRANCH   4  35
TORSDOF 10
ENDMDL
MODEL 4
REMARK VINA RESULT:      -9.1      5.322     11.601
REMARK  10 active torsions:
REMARK  status: ('A' for Active; 'I' for Inactive)
REMARK    1  A    between atoms: C_6  and  C_7 
REMARK    2  A    between atoms: C_7  and  O_8 
REMARK    3  A    between atoms: O_8  and  C_9 
REMARK    4  A    between atoms: C_12  and  C_13 
REMARK    5  A    between atoms: N_14  and  N_15 
REMARK       I    between atoms: N_15  and  C_16 
REMARK    6  A    between atoms: C_16  and  C_17 
REMARK    7  A    between atoms: N_20  and  C_21 
REMARK    8  A    between atoms: C_25  and  N_26 
REMARK    9  A    between atoms: C_27  and  C_28 
REMARK   10  A    between atoms: C_28  and  N_29 
ROOT
HETATM    1  C   UNL     1      42.190 -13.070   1.690  1.00  0.00     0.170 C 
HETATM    2  N   UNL     1      42.280 -11.926   0.956  1.00  0.00    -0.152 NA
HETATM    3  N   UNL     1      41.909 -12.204  -0.283  1.00  0.00     0.012 NA
HETATM    4  N   UNL     1      41.594 -13.523  -0.373  1.00  0.00    -0.215 N 
HETATM    5  C   UNL     1      41.634 -14.075   0.906  1.00  0.00     0.096 C 
ENDROOT
BRANCH   1   6
HETATM    6  C   UNL     1      42.494 -13.133   3.113  1.00  0.00     0.293 C 
HETATM    7  N   UNL     1      41.460 -12.838   3.986  1.00  0.00    -0.242 N 
HETATM    8  H   UNL     1      41.695 -12.846   4.972  1.00  0.00     0.192 HD
HETATM    9  O   UNL     1      43.639 -13.294   3.525  1.00  0.00    -0.264 OA
BRANCH   7  10
HETATM   10  N   UNL     1      40.167 -12.733   3.573  1.00  0.00    -0.184 NA
HETATM   11  C   UNL     1      39.281 -12.167   4.341  1.00  0.00     0.150 C 
BRANCH  11  12
HETATM   12  C   UNL     1      39.449 -11.523   5.654  1.00  0.00    -0.017 A 
HETATM   13  C   UNL     1      39.365 -12.353   6.775  1.00  0.00     0.016 A 
HETATM   14  C   UNL     1      39.539 -11.809   8.046  1.00  0.00     0.037 A 
HETATM   15  C   UNL     1      39.823 -10.451   8.204  1.00  0.00     0.069 A 
HETATM   16  C   UNL     1      39.906  -9.626   7.081  1.00  0.00     0.037 A 
HETATM   17  C   UNL     1      39.735 -10.164   5.799  1.00  0.00     0.016 A 
BRANCH  15  18
HETATM   18  O   UNL     1      39.981 -10.051   9.499  1.00  0.00    -0.347 OA
BRANCH  18  19
HETATM   19  C   UNL     1      40.226 -11.072  10.468  1.00  0.00     0.214 C 
BRANCH  19  20
HETATM   20  C   UNL     1      41.397 -10.638  11.314  1.00  0.00    -0.033 A 
HETATM   21  C   UNL     1      41.246 -10.518  12.705  1.00  0.00     0.033 A 
HETATM   22  C   UNL     1      42.326 -10.138  13.502  1.00  0.00     0.034 A 
HETATM   23  C   UNL     1      43.567  -9.879  12.929  1.00  0.00     0.024 A 
HETATM   24 CL   UNL     1      42.120  -9.996  15.204  1.00  0.00    -0.084 Cl
HETATM   25  C   UNL     1      43.729  -9.995  11.548  1.00  0.00     0.002 A 
HETATM   26  C   UNL     1      42.650 -10.373  10.743  1.00  0.00     0.009 A 
ENDBRANCH  19  20
ENDBRANCH  18  19
ENDBRANCH  15  18
ENDBRANCH  11  12
ENDBRANCH   7  10
ENDBRANCH   1   6
BRANCH   5  27
HETATM   27  C   UNL     1      41.203 -15.430   1.308  1.00  0.00     0.296 C 
BRANCH  27  28
HETATM   28  N   UNL     1      42.286 -16.311   1.921  1.00  0.00    -0.066 N 
HETATM   29  H   UNL     1      43.041 -15.652   2.153  1.00  0.00     0.280 HD
HETATM   30  C   UNL     1      41.890 -16.963   3.231  1.00  0.00     0.235 C 
HETATM   31  C   UNL     1      43.107 -17.625   3.862  1.00  0.00     0.028 C 
HETATM   32  C   UNL     1      43.768 -18.614   2.909  1.00  0.00     0.003 C 
HETATM   33  C   UNL     1      44.112 -17.948   1.583  1.00  0.00     0.028 C 
HETATM   34  C   UNL     1      42.894 -17.292   0.949  1.00  0.00     0.235 C 
ENDBRANCH  27  28
ENDBRANCH   5  27
BRANCH   4  35
HETATM   35  C   UNL     1      41.251 -14.127  -1.606  1.00  0.00     0.225 A 
HETATM   36  N   UNL     1      40.132 -14.844  -1.720  1.00  0.00    -0.081 NA
HETATM   37  O   UNL     1      40.145 -15.281  -3.045  1.00  0.00    -0.103 OA
HETATM   38  N   UNL     1      41.250 -14.787  -3.723  1.00  0.00    -0.083 NA
HETATM   39  C   UNL     1      41.940 -14.079  -2.830  1.00  0.00     0.201 A 
BRANCH  39  40
HETATM   40  N   UNL     1      43.076 -13.416  -3.101  1.00  0.00    -0.379 N 
HETATM   41  H   UNL     1      43.895 -13.927  -3.419  1.00  0.00     0.158 HD
HETATM   42  H   UNL     1      43.283 -12.495  -2.716  1.00  0.00     0.158 HD
ENDBRANCH  39  40
ENDBRANCH   4  35
TORSDOF 10
ENDMDL
MODEL 5
REMARK VINA RESULT:      -9.1      6.570      9.806
REMARK  10 active torsions:
REMARK  status: ('A' for Active; 'I' for Inactive)
REMARK    1  A    between atoms: C_6  and  C_7 
REMARK    2  A    between atoms: C_7  and  O_8 
REMARK    3  A    between atoms: O_8  and  C_9 
REMARK    4  A    between atoms: C_12  and  C_13 
REMARK    5  A    between atoms: N_14  and  N_15 
REMARK       I    between atoms: N_15  and  C_16 
REMARK    6  A    between atoms: C_16  and  C_17 
REMARK    7  A    between atoms: N_20  and  C_21 
REMARK    8  A    between atoms: C_25  and  N_26 
REMARK    9  A    between atoms: C_27  and  C_28 
REMARK   10  A    between atoms: C_28  and  N_29 
ROOT
HETATM    1  C   UNL     1      41.162 -14.335   1.534  1.00  0.00     0.170 C 
HETATM    2  N   UNL     1      42.273 -13.984   2.239  1.00  0.00    -0.152 NA
HETATM    3  N   UNL     1      42.740 -12.855   1.733  1.00  0.00     0.012 NA
HETATM    4  N   UNL     1      41.957 -12.472   0.690  1.00  0.00    -0.215 N 
HETATM    5  C   UNL     1      40.859 -13.328   0.624  1.00  0.00     0.096 C 
ENDROOT
BRANCH   1   6
HETATM    6  C   UNL     1      40.364 -15.515   1.834  1.00  0.00     0.293 C 
HETATM    7  N   UNL     1      39.684 -15.519   3.041  1.00  0.00    -0.242 N 
HETATM    8  H   UNL     1      39.165 -16.363   3.256  1.00  0.00     0.192 HD
HETATM    9  O   UNL     1      40.401 -16.521   1.130  1.00  0.00    -0.264 OA
BRANCH   7  10
HETATM   10  N   UNL     1      39.556 -14.401   3.806  1.00  0.00    -0.184 NA
HETATM   11  C   UNL     1      40.228 -14.290   4.916  1.00  0.00     0.150 C 
BRANCH  11  12
HETATM   12  C   UNL     1      41.218 -15.202   5.510  1.00  0.00    -0.017 A 
HETATM   13  C   UNL     1      40.771 -16.483   5.843  1.00  0.00     0.016 A 
HETATM   14  C   UNL     1      41.666 -17.403   6.388  1.00  0.00     0.037 A 
HETATM   15  C   UNL     1      43.007 -17.062   6.576  1.00  0.00     0.069 A 
HETATM   16  C   UNL     1      43.449 -15.780   6.242  1.00  0.00     0.037 A 
HETATM   17  C   UNL     1      42.557 -14.850   5.692  1.00  0.00     0.016 A 
BRANCH  15  18
HETATM   18  O   UNL     1      43.776 -18.056   7.107  1.00  0.00    -0.347 OA
BRANCH  18  19
HETATM   19  C   UNL     1      45.021 -18.327   6.461  1.00  0.00     0.214 C 
BRANCH  19  20
HETATM   20  C   UNL     1      44.737 -19.150   5.229  1.00  0.00    -0.033 A 
HETATM   21  C   UNL     1      44.313 -18.515   4.049  1.00  0.00     0.033 A 
HETATM   22  C   UNL     1      44.066 -19.261   2.896  1.00  0.00     0.034 A 
HETATM   23  C   UNL     1      44.242 -20.642   2.900  1.00  0.00     0.024 A 
HETATM   24 CL   UNL     1      43.548 -18.465   1.462  1.00  0.00    -0.084 Cl
HETATM   25  C   UNL     1      44.662 -21.282   4.066  1.00  0.00     0.002 A 
HETATM   26  C   UNL     1      44.909 -20.541   5.226  1.00  0.00     0.009 A 
ENDBRANCH  19  20
ENDBRANCH  18  19
ENDBRANCH  15  18
ENDBRANCH  11  12
ENDBRANCH   7  10
ENDBRANCH   1   6
BRANCH   5  27
HETATM   27  C   UNL     1      39.671 -13.189  -0.242  1.00  0.00     0.296 C 
BRANCH  27  28
HETATM   28  N   UNL     1      39.514 -14.254  -1.322  1.00  0.00    -0.066 N 
HETATM   29  H   UNL     1      39.227 -15.095  -0.803  1.00  0.00     0.280 HD
HETATM   30  C   UNL     1      38.399 -13.980  -2.312  1.00  0.00     0.235 C 
HETATM   31  C   UNL     1      38.186 -15.200  -3.195  1.00  0.00     0.028 C 
HETATM   32  C   UNL     1      39.473 -15.625  -3.890  1.00  0.00     0.003 C 
HETATM   33  C   UNL     1      40.591 -15.850  -2.880  1.00  0.00     0.028 C 
HETATM   34  C   UNL     1      40.810 -14.626  -2.001  1.00  0.00     0.235 C 
ENDBRANCH  27  28
ENDBRANCH   5  27
BRANCH   4  35
HETATM   35  C   UNL     1      42.272 -11.344  -0.106  1.00  0.00     0.225 A 
HETATM   36  N   UNL     1      43.221 -11.419  -1.041  1.00  0.00    -0.081 NA
HETATM   37  O   UNL     1      43.254 -10.137  -1.591  1.00  0.00    -0.103 OA
HETATM   38  N   UNL     1      42.296  -9.320  -1.010  1.00  0.00    -0.083 NA
HETATM   39  C   UNL     1      41.693 -10.064  -0.084  1.00  0.00     0.201 A 
BRANCH  39  40
HETATM   40  N   UNL     1      40.684  -9.638   0.692  1.00  0.00    -0.379 N 
HETATM   41  H   UNL     1      39.996  -8.991   0.316  1.00  0.00     0.158 HD
HETATM   42  H   UNL     1      40.725  -9.656   1.711  1.00  0.00     0.158 HD
ENDBRANCH  39  40
ENDBRANCH   4  35
TORSDOF 10
ENDMDL
MODEL 6
REMARK VINA RESULT:      -9.0      6.611      9.984
REMARK  10 active torsions:
REMARK  status: ('A' for Active; 'I' for Inactive)
REMARK    1  A    between atoms: C_6  and  C_7 
REMARK    2  A    between atoms: C_7  and  O_8 
REMARK    3  A    between atoms: O_8  and  C_9 
REMARK    4  A    between atoms: C_12  and  C_13 
REMARK    5  A    between atoms: N_14  and  N_15 
REMARK       I    between atoms: N_15  and  C_16 
REMARK    6  A    between atoms: C_16  and  C_17 
REMARK    7  A    between atoms: N_20  and  C_21 
REMARK    8  A    between atoms: C_25  and  N_26 
REMARK    9  A    between atoms: C_27  and  C_28 
REMARK   10  A    between atoms: C_28  and  N_29 
ROOT
HETATM    1  C   UNL     1      40.831 -11.799  -0.877  1.00  0.00     0.170 C 
HETATM    2  N   UNL     1      39.868 -10.839  -0.946  1.00  0.00    -0.152 NA
HETATM    3  N   UNL     1      38.829 -11.346  -1.589  1.00  0.00     0.012 NA
HETATM    4  N   UNL     1      39.108 -12.624  -1.958  1.00  0.00    -0.215 N 
HETATM    5  C   UNL     1      40.331 -12.989  -1.398  1.00  0.00     0.096 C 
ENDROOT
BRANCH   1   6
HETATM    6  C   UNL     1      42.110 -11.603  -0.209  1.00  0.00     0.293 C 
HETATM    7  N   UNL     1      42.070 -11.103   1.082  1.00  0.00    -0.242 N 
HETATM    8  H   UNL     1      42.968 -10.932   1.521  1.00  0.00     0.192 HD
HETATM    9  O   UNL     1      43.178 -11.732  -0.801  1.00  0.00    -0.264 OA
BRANCH   7  10
HETATM   10  N   UNL     1      40.913 -11.022   1.795  1.00  0.00    -0.184 NA
HETATM   11  C   UNL     1      40.694 -11.848   2.777  1.00  0.00     0.150 C 
BRANCH  11  12
HETATM   12  C   UNL     1      41.562 -12.899   3.333  1.00  0.00    -0.017 A 
HETATM   13  C   UNL     1      41.142 -13.495   4.524  1.00  0.00     0.016 A 
HETATM   14  C   UNL     1      41.907 -14.514   5.090  1.00  0.00     0.037 A 
HETATM   15  C   UNL     1      43.071 -14.959   4.461  1.00  0.00     0.069 A 
HETATM   16  C   UNL     1      43.487 -14.360   3.270  1.00  0.00     0.037 A 
HETATM   17  C   UNL     1      42.724 -13.338   2.694  1.00  0.00     0.016 A 
BRANCH  15  18
HETATM   18  O   UNL     1      43.719 -15.967   5.114  1.00  0.00    -0.347 OA
BRANCH  18  19
HETATM   19  C   UNL     1      42.975 -17.161   5.364  1.00  0.00     0.214 C 
BRANCH  19  20
HETATM   20  C   UNL     1      43.581 -18.268   4.537  1.00  0.00    -0.033 A 
HETATM   21  C   UNL     1      44.016 -19.448   5.163  1.00  0.00     0.033 A 
HETATM   22  C   UNL     1      44.559 -20.488   4.409  1.00  0.00     0.034 A 
HETATM   23  C   UNL     1      44.671 -20.372   3.027  1.00  0.00     0.024 A 
HETATM   24 CL   UNL     1      45.086 -21.925   5.196  1.00  0.00    -0.084 Cl
HETATM   25  C   UNL     1      44.242 -19.204   2.395  1.00  0.00     0.002 A 
HETATM   26  C   UNL     1      43.699 -18.157   3.145  1.00  0.00     0.009 A 
ENDBRANCH  19  20
ENDBRANCH  18  19
ENDBRANCH  15  18
ENDBRANCH  11  12
ENDBRANCH   7  10
ENDBRANCH   1   6
BRANCH   5  27
HETATM   27  C   UNL     1      40.947 -14.331  -1.395  1.00  0.00     0.296 C 
BRANCH  27  28
HETATM   28  N   UNL     1      40.512 -15.253  -0.261  1.00  0.00    -0.066 N 
HETATM   29  H   UNL     1      39.794 -15.852  -0.689  1.00  0.00     0.280 HD
HETATM   30  C   UNL     1      41.595 -16.193   0.229  1.00  0.00     0.235 C 
HETATM   31  C   UNL     1      40.996 -17.210   1.190  1.00  0.00     0.028 C 
HETATM   32  C   UNL     1      40.263 -16.534   2.342  1.00  0.00     0.003 C 
HETATM   33  C   UNL     1      39.213 -15.560   1.825  1.00  0.00     0.028 C 
HETATM   34  C   UNL     1      39.814 -14.537   0.870  1.00  0.00     0.235 C 
ENDBRANCH  27  28
ENDBRANCH   5  27
BRANCH   4  35
HETATM   35  C   UNL     1      38.213 -13.387  -2.745  1.00  0.00     0.225 A 
HETATM   36  N   UNL     1      37.952 -14.658  -2.433  1.00  0.00    -0.081 NA
HETATM   37  O   UNL     1      37.061 -15.072  -3.424  1.00  0.00    -0.103 OA
HETATM   38  N   UNL     1      36.764 -14.034  -4.294  1.00  0.00    -0.083 NA
HETATM   39  C   UNL     1      37.484 -12.992  -3.880  1.00  0.00     0.201 A 
BRANCH  39  40
HETATM   40  N   UNL     1      37.461 -11.778  -4.453  1.00  0.00    -0.379 N 
HETATM   41  H   UNL     1      36.688 -11.522  -5.062  1.00  0.00     0.158 HD
HETATM   42  H   UNL     1      38.300 -11.214  -4.585  1.00  0.00     0.158 HD
ENDBRANCH  39  40
ENDBRANCH   4  35
TORSDOF 10
ENDMDL
MODEL 7
REMARK VINA RESULT:      -8.9      6.889     10.236
REMARK  10 active torsions:
REMARK  status: ('A' for Active; 'I' for Inactive)
REMARK    1  A    between atoms: C_6  and  C_7 
REMARK    2  A    between atoms: C_7  and  O_8 
REMARK    3  A    between atoms: O_8  and  C_9 
REMARK    4  A    between atoms: C_12  and  C_13 
REMARK    5  A    between atoms: N_14  and  N_15 
REMARK       I    between atoms: N_15  and  C_16 
REMARK    6  A    between atoms: C_16  and  C_17 
REMARK    7  A    between atoms: N_20  and  C_21 
REMARK    8  A    between atoms: C_25  and  N_26 
REMARK    9  A    between atoms: C_27  and  C_28 
REMARK   10  A    between atoms: C_28  and  N_29 
ROOT
HETATM    1  C   UNL     1      40.896 -15.135   0.725  1.00  0.00     0.170 C 
HETATM    2  N   UNL     1      39.792 -15.026   1.515  1.00  0.00    -0.152 NA
HETATM    3  N   UNL     1      38.843 -14.429   0.813  1.00  0.00     0.012 NA
HETATM    4  N   UNL     1      39.320 -14.130  -0.423  1.00  0.00    -0.215 N 
HETATM    5  C   UNL     1      40.588 -14.691  -0.557  1.00  0.00     0.096 C 
ENDROOT
BRANCH   1   6
HETATM    6  C   UNL     1      42.132 -15.772   1.160  1.00  0.00     0.293 C 
HETATM    7  N   UNL     1      43.017 -14.989   1.881  1.00  0.00    -0.242 N 
HETATM    8  H   UNL     1      43.891 -15.432   2.143  1.00  0.00     0.192 HD
HETATM    9  O   UNL     1      42.448 -16.898   0.786  1.00  0.00    -0.264 OA
BRANCH   7  10
HETATM   10  N   UNL     1      42.671 -13.770   2.378  1.00  0.00    -0.184 NA
HETATM   11  C   UNL     1      42.366 -13.642   3.638  1.00  0.00     0.150 C 
BRANCH  11  12
HETATM   12  C   UNL     1      42.381 -14.645   4.715  1.00  0.00    -0.017 A 
HETATM   13  C   UNL     1      43.543 -14.721   5.486  1.00  0.00     0.016 A 
HETATM   14  C   UNL     1      43.612 -15.634   6.537  1.00  0.00     0.037 A 
HETATM   15  C   UNL     1      42.521 -16.450   6.840  1.00  0.00     0.069 A 
HETATM   16  C   UNL     1      41.361 -16.371   6.067  1.00  0.00     0.037 A 
HETATM   17  C   UNL     1      41.282 -15.455   5.010  1.00  0.00     0.016 A 
BRANCH  15  18
HETATM   18  O   UNL     1      42.716 -17.290   7.898  1.00  0.00    -0.347 OA
BRANCH  18  19
HETATM   19  C   UNL     1      44.019 -17.856   8.044  1.00  0.00     0.214 C 
BRANCH  19  20
HETATM   20  C   UNL     1      44.068 -19.128   7.234  1.00  0.00    -0.033 A 
HETATM   21  C   UNL     1      44.533 -19.094   5.908  1.00  0.00     0.033 A 
HETATM   22  C   UNL     1      44.602 -20.265   5.154  1.00  0.00     0.034 A 
HETATM   23  C   UNL     1      44.216 -21.482   5.707  1.00  0.00     0.024 A 
HETATM   24 CL   UNL     1      45.175 -20.201   3.533  1.00  0.00    -0.084 Cl
HETATM   25  C   UNL     1      43.752 -21.528   7.022  1.00  0.00     0.002 A 
HETATM   26  C   UNL     1      43.678 -20.357   7.783  1.00  0.00     0.009 A 
ENDBRANCH  19  20
ENDBRANCH  18  19
ENDBRANCH  15  18
ENDBRANCH  11  12
ENDBRANCH   7  10
ENDBRANCH   1   6
BRANCH   5  27
HETATM   27  C   UNL     1      41.409 -14.761  -1.783  1.00  0.00     0.296 C 
BRANCH  27  28
HETATM   28  N   UNL     1      42.074 -13.457  -2.207  1.00  0.00    -0.066 N 
HETATM   29  H   UNL     1      43.030 -13.737  -2.465  1.00  0.00     0.280 HD
HETATM   30  C   UNL     1      41.478 -12.828  -3.450  1.00  0.00     0.235 C 
HETATM   31  C   UNL     1      42.352 -11.669  -3.908  1.00  0.00     0.028 C 
HETATM   32  C   UNL     1      42.562 -10.648  -2.798  1.00  0.00     0.003 C 
HETATM   33  C   UNL     1      43.117 -11.311  -1.544  1.00  0.00     0.028 C 
HETATM   34  C   UNL     1      42.239 -12.465  -1.081  1.00  0.00     0.235 C 
ENDBRANCH  27  28
ENDBRANCH   5  27
BRANCH   4  35
HETATM   35  C   UNL     1      38.552 -13.401  -1.364  1.00  0.00     0.225 A 
HETATM   36  N   UNL     1      38.497 -12.070  -1.307  1.00  0.00    -0.081 NA
HETATM   37  O   UNL     1      37.650 -11.722  -2.360  1.00  0.00    -0.103 OA
HETATM   38  N   UNL     1      37.240 -12.845  -3.063  1.00  0.00    -0.083 NA
HETATM   39  C   UNL     1      37.791 -13.886  -2.441  1.00  0.00     0.201 A 
BRANCH  39  40
HETATM   40  N   UNL     1      37.650 -15.164  -2.831  1.00  0.00    -0.379 N 
HETATM   41  H   UNL     1      37.714 -15.911  -2.145  1.00  0.00     0.158 HD
HETATM   42  H   UNL     1      37.801 -15.467  -3.792  1.00  0.00     0.158 HD
ENDBRANCH  39  40
ENDBRANCH   4  35
TORSDOF 10
ENDMDL
MODEL 8
REMARK VINA RESULT:      -8.9      1.754      2.296
REMARK  10 active torsions:
REMARK  status: ('A' for Active; 'I' for Inactive)
REMARK    1  A    between atoms: C_6  and  C_7 
REMARK    2  A    between atoms: C_7  and  O_8 
REMARK    3  A    between atoms: O_8  and  C_9 
REMARK    4  A    between atoms: C_12  and  C_13 
REMARK    5  A    between atoms: N_14  and  N_15 
REMARK       I    between atoms: N_15  and  C_16 
REMARK    6  A    between atoms: C_16  and  C_17 
REMARK    7  A    between atoms: N_20  and  C_21 
REMARK    8  A    between atoms: C_25  and  N_26 
REMARK    9  A    between atoms: C_27  and  C_28 
REMARK   10  A    between atoms: C_28  and  N_29 
ROOT
HETATM    1  C   UNL     1      40.235  -8.954   7.654  1.00  0.00     0.170 C 
HETATM    2  N   UNL     1      39.082  -8.241   7.532  1.00  0.00    -0.152 NA
HETATM    3  N   UNL     1      38.697  -7.873   8.742  1.00  0.00     0.012 NA
HETATM    4  N   UNL     1      39.577  -8.354   9.659  1.00  0.00    -0.215 N 
HETATM    5  C   UNL     1      40.648  -8.935   8.982  1.00  0.00     0.096 C 
ENDROOT
BRANCH   1   6
HETATM    6  C   UNL     1      40.965  -9.496   6.516  1.00  0.00     0.293 C 
HETATM    7  N   UNL     1      40.662 -10.794   6.139  1.00  0.00    -0.242 N 
HETATM    8  H   UNL     1      41.205 -11.173   5.372  1.00  0.00     0.192 HD
HETATM    9  O   UNL     1      41.906  -8.896   6.003  1.00  0.00    -0.264 OA
BRANCH   7  10
HETATM   10  N   UNL     1      39.579 -11.458   6.629  1.00  0.00    -0.184 NA
HETATM   11  C   UNL     1      39.324 -12.671   6.231  1.00  0.00     0.150 C 
BRANCH  11  12
HETATM   12  C   UNL     1      40.083 -13.540   5.316  1.00  0.00    -0.017 A 
HETATM   13  C   UNL     1      41.111 -14.299   5.881  1.00  0.00     0.016 A 
HETATM   14  C   UNL     1      41.852 -15.160   5.073  1.00  0.00     0.037 A 
HETATM   15  C   UNL     1      41.557 -15.288   3.715  1.00  0.00     0.069 A 
HETATM   16  C   UNL     1      40.528 -14.527   3.155  1.00  0.00     0.037 A 
HETATM   17  C   UNL     1      39.777 -13.661   3.960  1.00  0.00     0.016 A 
BRANCH  15  18
HETATM   18  O   UNL     1      42.350 -16.171   3.042  1.00  0.00    -0.347 OA
BRANCH  18  19
HETATM   19  C   UNL     1      41.785 -17.445   2.733  1.00  0.00     0.214 C 
BRANCH  19  20
HETATM   20  C   UNL     1      42.809 -18.502   3.068  1.00  0.00    -0.033 A 
HETATM   21  C   UNL     1      43.012 -19.580   2.190  1.00  0.00     0.033 A 
HETATM   22  C   UNL     1      43.969 -20.553   2.476  1.00  0.00     0.034 A 
HETATM   23  C   UNL     1      44.738 -20.465   3.632  1.00  0.00     0.024 A 
HETATM   24 CL   UNL     1      44.202 -21.864   1.387  1.00  0.00    -0.084 Cl
HETATM   25  C   UNL     1      44.545 -19.399   4.511  1.00  0.00     0.002 A 
HETATM   26  C   UNL     1      43.586 -18.421   4.232  1.00  0.00     0.009 A 
ENDBRANCH  19  20
ENDBRANCH  18  19
ENDBRANCH  15  18
ENDBRANCH  11  12
ENDBRANCH   7  10
ENDBRANCH   1   6
BRANCH   5  27
HETATM   27  C   UNL     1      41.909  -9.433   9.566  1.00  0.00     0.296 C 
BRANCH  27  28
HETATM   28  N   UNL     1      41.894  -9.659  11.074  1.00  0.00    -0.066 N 
HETATM   29  H   UNL     1      41.215  -8.969  11.422  1.00  0.00     0.280 HD
HETATM   30  C   UNL     1      41.360 -11.013  11.497  1.00  0.00     0.235 C 
HETATM   31  C   UNL     1      41.177 -11.043  13.007  1.00  0.00     0.028 C 
HETATM   32  C   UNL     1      42.465 -10.684  13.738  1.00  0.00     0.003 C 
HETATM   33  C   UNL     1      43.007  -9.343  13.263  1.00  0.00     0.028 C 
HETATM   34  C   UNL     1      43.197  -9.315  11.753  1.00  0.00     0.235 C 
ENDBRANCH  27  28
ENDBRANCH   5  27
BRANCH   4  35
HETATM   35  C   UNL     1      39.370  -8.194  11.050  1.00  0.00     0.225 A 
HETATM   36  N   UNL     1      40.181  -7.419  11.771  1.00  0.00    -0.081 NA
HETATM   37  O   UNL     1      39.681  -7.523  13.070  1.00  0.00    -0.103 OA
HETATM   38  N   UNL     1      38.549  -8.325  13.106  1.00  0.00    -0.083 NA
HETATM   39  C   UNL     1      38.361  -8.748  11.857  1.00  0.00     0.201 A 
BRANCH  39  40
HETATM   40  N   UNL     1      37.347  -9.538  11.469  1.00  0.00    -0.379 N 
HETATM   41  H   UNL     1      37.342  -9.929  10.530  1.00  0.00     0.158 HD
HETATM   42  H   UNL     1      36.432  -9.521  11.917  1.00  0.00     0.158 HD
ENDBRANCH  39  40
ENDBRANCH   4  35
TORSDOF 10
ENDMDL
MODEL 9
REMARK VINA RESULT:      -8.8      6.587     10.612
REMARK  10 active torsions:
REMARK  status: ('A' for Active; 'I' for Inactive)
REMARK    1  A    between atoms: C_6  and  C_7 
REMARK    2  A    between atoms: C_7  and  O_8 
REMARK    3  A    between atoms: O_8  and  C_9 
REMARK    4  A    between atoms: C_12  and  C_13 
REMARK    5  A    between atoms: N_14  and  N_15 
REMARK       I    between atoms: N_15  and  C_16 
REMARK    6  A    between atoms: C_16  and  C_17 
REMARK    7  A    between atoms: N_20  and  C_21 
REMARK    8  A    between atoms: C_25  and  N_26 
REMARK    9  A    between atoms: C_27  and  C_28 
REMARK   10  A    between atoms: C_28  and  N_29 
ROOT
HETATM    1  C   UNL     1      38.848 -12.152   0.289  1.00  0.00     0.170 C 
HETATM    2  N   UNL     1      38.422 -10.877   0.071  1.00  0.00    -0.152 NA
HETATM    3  N   UNL     1      39.142 -10.366  -0.913  1.00  0.00     0.012 NA
HETATM    4  N   UNL     1      40.050 -11.286  -1.330  1.00  0.00    -0.215 N 
HETATM    5  C   UNL     1      39.797 -12.488  -0.672  1.00  0.00     0.096 C 
ENDROOT
BRANCH   1   6
HETATM    6  C   UNL     1      38.257 -13.035   1.285  1.00  0.00     0.293 C 
HETATM    7  N   UNL     1      38.848 -13.048   2.537  1.00  0.00    -0.242 N 
HETATM    8  H   UNL     1      38.453 -13.696   3.209  1.00  0.00     0.192 HD
HETATM    9  O   UNL     1      37.374 -13.838   0.998  1.00  0.00    -0.264 OA
BRANCH   7  10
HETATM   10  N   UNL     1      39.773 -12.122   2.914  1.00  0.00    -0.184 NA
HETATM   11  C   UNL     1      40.908 -12.505   3.424  1.00  0.00     0.150 C 
BRANCH  11  12
HETATM   12  C   UNL     1      41.435 -13.864   3.631  1.00  0.00    -0.017 A 
HETATM   13  C   UNL     1      42.159 -14.424   2.576  1.00  0.00     0.016 A 
HETATM   14  C   UNL     1      42.705 -15.699   2.719  1.00  0.00     0.037 A 
HETATM   15  C   UNL     1      42.557 -16.404   3.914  1.00  0.00     0.069 A 
HETATM   16  C   UNL     1      41.833 -15.840   4.966  1.00  0.00     0.037 A 
HETATM   17  C   UNL     1      41.283 -14.559   4.833  1.00  0.00     0.016 A 
BRANCH  15  18
HETATM   18  O   UNL     1      43.148 -17.634   3.924  1.00  0.00    -0.347 OA
BRANCH  18  19
HETATM   19  C   UNL     1      43.884 -18.010   2.759  1.00  0.00     0.214 C 
BRANCH  19  20
HETATM   20  C   UNL     1      44.057 -19.508   2.782  1.00  0.00    -0.033 A 
HETATM   21  C   UNL     1      44.524 -20.139   3.947  1.00  0.00     0.033 A 
HETATM   22  C   UNL     1      44.670 -21.525   3.989  1.00  0.00     0.034 A 
HETATM   23  C   UNL     1      44.350 -22.301   2.879  1.00  0.00     0.024 A 
HETATM   24 CL   UNL     1      45.244 -22.278   5.426  1.00  0.00    -0.084 Cl
HETATM   25  C   UNL     1      43.885 -21.685   1.717  1.00  0.00     0.002 A 
HETATM   26  C   UNL     1      43.739 -20.296   1.667  1.00  0.00     0.009 A 
ENDBRANCH  19  20
ENDBRANCH  18  19
ENDBRANCH  15  18
ENDBRANCH  11  12
ENDBRANCH   7  10
ENDBRANCH   1   6
BRANCH   5  27
HETATM   27  C   UNL     1      40.423 -13.800  -0.933  1.00  0.00     0.296 C 
BRANCH  27  28
HETATM   28  N   UNL     1      39.660 -14.717  -1.882  1.00  0.00    -0.066 N 
HETATM   29  H   UNL     1      39.302 -15.464  -1.272  1.00  0.00     0.280 HD
HETATM   30  C   UNL     1      38.439 -14.082  -2.516  1.00  0.00     0.235 C 
HETATM   31  C   UNL     1      37.634 -15.142  -3.254  1.00  0.00     0.028 C 
HETATM   32  C   UNL     1      38.485 -15.886  -4.276  1.00  0.00     0.003 C 
HETATM   33  C   UNL     1      39.730 -16.475  -3.625  1.00  0.00     0.028 C 
HETATM   34  C   UNL     1      40.539 -15.413  -2.893  1.00  0.00     0.235 C 
ENDBRANCH  27  28
ENDBRANCH   5  27
BRANCH   4  35
HETATM   35  C   UNL     1      41.023 -10.984  -2.314  1.00  0.00     0.225 A 
HETATM   36  N   UNL     1      42.206 -10.480  -1.962  1.00  0.00    -0.081 NA
HETATM   37  O   UNL     1      42.871 -10.303  -3.176  1.00  0.00    -0.103 OA
HETATM   38  N   UNL     1      42.096 -10.743  -4.239  1.00  0.00    -0.083 NA
HETATM   39  C   UNL     1      40.947 -11.156  -3.706  1.00  0.00     0.201 A 
BRANCH  39  40
HETATM   40  N   UNL     1      39.929 -11.678  -4.410  1.00  0.00    -0.379 N 
HETATM   41  H   UNL     1      39.793 -12.685  -4.431  1.00  0.00     0.158 HD
HETATM   42  H   UNL     1      39.476 -11.181  -5.176  1.00  0.00     0.158 HD
ENDBRANCH  39  40
ENDBRANCH   4  35
TORSDOF 10
ENDMDL
MODEL 10
REMARK VINA RESULT:      -8.8      8.153     11.525
REMARK  10 active torsions:
REMARK  status: ('A' for Active; 'I' for Inactive)
REMARK    1  A    between atoms: C_6  and  C_7 
REMARK    2  A    between atoms: C_7  and  O_8 
REMARK    3  A    between atoms: O_8  and  C_9 
REMARK    4  A    between atoms: C_12  and  C_13 
REMARK    5  A    between atoms: N_14  and  N_15 
REMARK       I    between atoms: N_15  and  C_16 
REMARK    6  A    between atoms: C_16  and  C_17 
REMARK    7  A    between atoms: N_20  and  C_21 
REMARK    8  A    between atoms: C_25  and  N_26 
REMARK    9  A    between atoms: C_27  and  C_28 
REMARK   10  A    between atoms: C_28  and  N_29 
ROOT
HETATM    1  C   UNL     1      41.207 -10.745  -1.372  1.00  0.00     0.170 C 
HETATM    2  N   UNL     1      40.465  -9.604  -1.336  1.00  0.00    -0.152 NA
HETATM    3  N   UNL     1      40.059  -9.339  -2.567  1.00  0.00     0.012 NA
HETATM    4  N   UNL     1      40.544 -10.285  -3.413  1.00  0.00    -0.215 N 
HETATM    5  C   UNL     1      41.170 -11.275  -2.658  1.00  0.00     0.096 C 
ENDROOT
BRANCH   1   6
HETATM    6  C   UNL     1      41.794 -11.355  -0.188  1.00  0.00     0.293 C 
HETATM    7  N   UNL     1      41.023 -12.293   0.479  1.00  0.00    -0.242 N 
HETATM    8  H   UNL     1      41.426 -12.680   1.325  1.00  0.00     0.192 HD
HETATM    9  O   UNL     1      42.855 -10.960   0.287  1.00  0.00    -0.264 OA
BRANCH   7  10
HETATM   10  N   UNL     1      39.883 -12.810  -0.056  1.00  0.00    -0.184 NA
HETATM   11  C   UNL     1      39.537 -14.037   0.209  1.00  0.00     0.150 C 
BRANCH  11  12
HETATM   12  C   UNL     1      40.176 -15.024   1.094  1.00  0.00    -0.017 A 
HETATM   13  C   UNL     1      41.097 -15.892   0.504  1.00  0.00     0.016 A 
HETATM   14  C   UNL     1      41.756 -16.835   1.293  1.00  0.00     0.037 A 
HETATM   15  C   UNL     1      41.521 -16.897   2.667  1.00  0.00     0.069 A 
HETATM   16  C   UNL     1      40.600 -16.026   3.253  1.00  0.00     0.037 A 
HETATM   17  C   UNL     1      39.936 -15.075   2.469  1.00  0.00     0.016 A 
BRANCH  15  18
HETATM   18  O   UNL     1      42.238 -17.856   3.322  1.00  0.00    -0.347 OA
BRANCH  18  19
HETATM   19  C   UNL     1      43.603 -18.023   2.936  1.00  0.00     0.214 C 
BRANCH  19  20
HETATM   20  C   UNL     1      43.891 -19.503   2.875  1.00  0.00    -0.033 A 
HETATM   21  C   UNL     1      44.405 -20.160   4.005  1.00  0.00     0.033 A 
HETATM   22  C   UNL     1      44.657 -21.532   3.969  1.00  0.00     0.034 A 
HETATM   23  C   UNL     1      44.398 -22.266   2.816  1.00  0.00     0.024 A 
HETATM   24 CL   UNL     1      45.287 -22.318   5.364  1.00  0.00    -0.084 Cl
HETATM   25  C   UNL     1      43.887 -21.623   1.688  1.00  0.00     0.002 A 
HETATM   26  C   UNL     1      43.634 -20.248   1.716  1.00  0.00     0.009 A 
ENDBRANCH  19  20
ENDBRANCH  18  19
ENDBRANCH  15  18
ENDBRANCH  11  12
ENDBRANCH   7  10
ENDBRANCH   1   6
BRANCH   5  27
HETATM   27  C   UNL     1      41.691 -12.570  -3.140  1.00  0.00     0.296 C 
BRANCH  27  28
HETATM   28  N   UNL     1      40.726 -13.746  -3.043  1.00  0.00    -0.066 N 
HETATM   29  H   UNL     1      40.549 -13.842  -2.035  1.00  0.00     0.280 HD
HETATM   30  C   UNL     1      39.372 -13.495  -3.678  1.00  0.00     0.235 C 
HETATM   31  C   UNL     1      38.423 -14.632  -3.328  1.00  0.00     0.028 C 
HETATM   32  C   UNL     1      38.996 -15.987  -3.725  1.00  0.00     0.003 C 
HETATM   33  C   UNL     1      40.376 -16.196  -3.114  1.00  0.00     0.028 C 
HETATM   34  C   UNL     1      41.328 -15.063  -3.470  1.00  0.00     0.235 C 
ENDBRANCH  27  28
ENDBRANCH   5  27
BRANCH   4  35
HETATM   35  C   UNL     1      40.348 -10.207  -4.813  1.00  0.00     0.225 A 
HETATM   36  N   UNL     1      39.117 -10.192  -5.324  1.00  0.00    -0.081 NA
HETATM   37  O   UNL     1      39.324 -10.128  -6.703  1.00  0.00    -0.103 OA
HETATM   38  N   UNL     1      40.677 -10.061  -7.001  1.00  0.00    -0.083 NA
HETATM   39  C   UNL     1      41.313 -10.119  -5.831  1.00  0.00     0.201 A 
BRANCH  39  40
HETATM   40  N   UNL     1      42.647 -10.063  -5.690  1.00  0.00    -0.379 N 
HETATM   41  H   UNL     1      43.193 -10.920  -5.702  1.00  0.00     0.158 HD
HETATM   42  H   UNL     1      43.123  -9.273  -5.255  1.00  0.00     0.158 HD
ENDBRANCH  39  40
ENDBRANCH   4  35
TORSDOF 10
ENDMDL
