MODEL 1
REMARK VINA RESULT:      -8.6      0.000      0.000
REMARK  7 active torsions:
REMARK  status: ('A' for Active; 'I' for Inactive)
REMARK    1  A    between atoms: C_2  and  N_3 
REMARK    2  A    between atoms: C_2  and  C_12 
REMARK       I    between atoms: N_3  and  C_4 
REMARK    3  A    between atoms: C_4  and  C_5 
REMARK    4  A    between atoms: N_17  and  C_19 
REMARK    5  A    between atoms: C_19  and  C_20 
REMARK    6  A    between atoms: C_22  and  C_23 
REMARK    7  A    between atoms: C_23  and  N_24 
ROOT
HETATM    1  C   UNL     1      40.821  -9.715   7.347  1.00  0.00     0.152 A 
HETATM    2  N   UNL     1      40.421 -10.743   6.518  1.00  0.00    -0.317 N 
HETATM    3  C   UNL     1      41.066 -10.534   5.324  1.00  0.00     0.131 A 
HETATM    4  C   UNL     1      41.040 -11.428   4.141  1.00  0.00     0.108 C 
HETATM    5  C   UNL     1      41.380 -12.855   4.542  1.00  0.00     0.243 C 
HETATM    6  N   UNL     1      40.185 -13.619   5.110  1.00  0.00    -0.065 N 
HETATM    7  H   UNL     1      39.719 -14.040   4.295  1.00  0.00     0.280 HD
HETATM    8  C   UNL     1      39.096 -12.777   5.775  1.00  0.00     0.255 C 
HETATM    9  C   UNL     1      39.596 -11.868   6.898  1.00  0.00     0.159 C 
HETATM   10  N   UNL     1      41.804  -9.454   5.421  1.00  0.00    -0.135 NA
HETATM   11  N   UNL     1      41.659  -8.948   6.678  1.00  0.00    -0.133 NA
ENDROOT
BRANCH   6  12
HETATM   12  C   UNL     1      40.626 -14.805   5.967  1.00  0.00     0.280 C 
BRANCH  12  13
HETATM   13  C   UNL     1      41.353 -15.862   5.178  1.00  0.00     0.009 A 
HETATM   14  S   UNL     1      42.836 -16.510   5.754  1.00  0.00    -0.096 SA
HETATM   15  C   UNL     1      43.031 -17.513   4.378  1.00  0.00     0.009 A 
HETATM   16  C   UNL     1      41.963 -17.381   3.512  1.00  0.00     0.017 A 
HETATM   17  C   UNL     1      40.992 -16.444   3.979  1.00  0.00     0.017 A 
BRANCH  15  18
HETATM   18  C   UNL     1      44.258 -18.367   4.219  1.00  0.00     0.280 C 
BRANCH  18  19
HETATM   19  N   UNL     1      43.982 -19.768   3.711  1.00  0.00    -0.067 N 
HETATM   20  H   UNL     1      43.040 -20.016   4.041  1.00  0.00     0.280 HD
HETATM   21  C   UNL     1      43.982 -19.857   2.202  1.00  0.00     0.235 C 
HETATM   22  C   UNL     1      43.624 -21.272   1.768  1.00  0.00     0.028 C 
HETATM   23  C   UNL     1      44.560 -22.304   2.382  1.00  0.00     0.003 C 
HETATM   24  C   UNL     1      44.593 -22.171   3.898  1.00  0.00     0.028 C 
HETATM   25  C   UNL     1      44.949 -20.757   4.332  1.00  0.00     0.235 C 
ENDBRANCH  18  19
ENDBRANCH  15  18
ENDBRANCH  12  13
ENDBRANCH   6  12
BRANCH   1  26
HETATM   26  C   UNL     1      40.448  -9.537   8.792  1.00  0.00     0.152 C 
HETATM   27  C   UNL     1      39.560  -8.312   8.985  1.00  0.00     0.040 C 
BRANCH  26  28
HETATM   28  N   UNL     1      41.688  -9.395   9.540  1.00  0.00    -0.349 N 
HETATM   29  C   UNL     1      41.951 -10.143  10.659  1.00  0.00     0.222 C 
HETATM   30  O   UNL     1      41.099 -10.859  11.183  1.00  0.00    -0.273 OA
HETATM   31  H   UNL     1      42.458  -8.949   9.052  1.00  0.00     0.163 HD
BRANCH  29  32
HETATM   32  C   UNL     1      43.393 -10.061  11.161  1.00  0.00     0.082 C 
HETATM   33  C   UNL     1      43.595 -10.902  12.426  1.00  0.00     0.040 C 
HETATM   34  C   UNL     1      43.595 -12.399  12.128  1.00  0.00     0.168 C 
HETATM   35  O   UNL     1      44.511 -12.745  11.089  1.00  0.00    -0.391 OA
HETATM   36  C   UNL     1      44.278 -12.035   9.874  1.00  0.00     0.168 C 
HETATM   37  C   UNL     1      44.374 -10.529  10.082  1.00  0.00     0.040 C 
ENDBRANCH  29  32
ENDBRANCH  26  28
ENDBRANCH   1  26
TORSDOF 7
ENDMDL
MODEL 2
REMARK VINA RESULT:      -8.6      1.543      2.245
REMARK  7 active torsions:
REMARK  status: ('A' for Active; 'I' for Inactive)
REMARK    1  A    between atoms: C_2  and  N_3 
REMARK    2  A    between atoms: C_2  and  C_12 
REMARK       I    between atoms: N_3  and  C_4 
REMARK    3  A    between atoms: C_4  and  C_5 
REMARK    4  A    between atoms: N_17  and  C_19 
REMARK    5  A    between atoms: C_19  and  C_20 
REMARK    6  A    between atoms: C_22  and  C_23 
REMARK    7  A    between atoms: C_23  and  N_24 
ROOT
HETATM    1  C   UNL     1      40.679 -10.385   8.568  1.00  0.00     0.152 A 
HETATM    2  N   UNL     1      40.387 -11.133   7.445  1.00  0.00    -0.317 N 
HETATM    3  C   UNL     1      41.218 -10.665   6.457  1.00  0.00     0.131 A 
HETATM    4  C   UNL     1      41.355 -11.217   5.087  1.00  0.00     0.108 C 
HETATM    5  C   UNL     1      41.588 -12.719   5.138  1.00  0.00     0.243 C 
HETATM    6  N   UNL     1      40.298 -13.521   5.301  1.00  0.00    -0.065 N 
HETATM    7  H   UNL     1      39.955 -13.683   4.345  1.00  0.00     0.280 HD
HETATM    8  C   UNL     1      39.141 -12.809   6.001  1.00  0.00     0.255 C 
HETATM    9  C   UNL     1      39.482 -12.259   7.386  1.00  0.00     0.159 C 
HETATM   10  N   UNL     1      41.960  -9.700   6.945  1.00  0.00    -0.135 NA
HETATM   11  N   UNL     1      41.633  -9.530   8.257  1.00  0.00    -0.133 NA
ENDROOT
BRANCH   6  12
HETATM   12  C   UNL     1      40.565 -14.917   5.864  1.00  0.00     0.280 C 
BRANCH  12  13
HETATM   13  C   UNL     1      41.255 -15.825   4.881  1.00  0.00     0.009 A 
HETATM   14  S   UNL     1      42.738 -16.587   5.294  1.00  0.00    -0.096 SA
HETATM   15  C   UNL     1      42.884 -17.329   3.756  1.00  0.00     0.009 A 
HETATM   16  C   UNL     1      41.800 -17.028   2.955  1.00  0.00     0.017 A 
HETATM   17  C   UNL     1      40.856 -16.177   3.606  1.00  0.00     0.017 A 
BRANCH  15  18
HETATM   18  C   UNL     1      44.092 -18.158   3.416  1.00  0.00     0.280 C 
BRANCH  18  19
HETATM   19  N   UNL     1      44.000 -19.605   3.858  1.00  0.00    -0.067 N 
HETATM   20  H   UNL     1      42.998 -19.823   3.931  1.00  0.00     0.280 HD
HETATM   21  C   UNL     1      44.610 -20.564   2.860  1.00  0.00     0.235 C 
HETATM   22  C   UNL     1      44.413 -21.997   3.335  1.00  0.00     0.028 C 
HETATM   23  C   UNL     1      44.985 -22.213   4.729  1.00  0.00     0.003 C 
HETATM   24  C   UNL     1      44.404 -21.208   5.715  1.00  0.00     0.028 C 
HETATM   25  C   UNL     1      44.599 -19.776   5.240  1.00  0.00     0.235 C 
ENDBRANCH  18  19
ENDBRANCH  15  18
ENDBRANCH  12  13
ENDBRANCH   6  12
BRANCH   1  26
HETATM   26  C   UNL     1      40.087 -10.564   9.938  1.00  0.00     0.152 C 
HETATM   27  C   UNL     1      38.868  -9.669  10.132  1.00  0.00     0.040 C 
BRANCH  26  28
HETATM   28  N   UNL     1      41.127 -10.231  10.900  1.00  0.00    -0.349 N 
HETATM   29  C   UNL     1      41.230 -10.871  12.109  1.00  0.00     0.222 C 
HETATM   30  O   UNL     1      40.367 -11.647  12.513  1.00  0.00    -0.273 OA
HETATM   31  H   UNL     1      41.931  -9.729  10.536  1.00  0.00     0.163 HD
BRANCH  29  32
HETATM   32  C   UNL     1      42.523 -10.589  12.875  1.00  0.00     0.082 C 
HETATM   33  C   UNL     1      43.239  -9.349  12.329  1.00  0.00     0.040 C 
HETATM   34  C   UNL     1      42.522  -8.056  12.706  1.00  0.00     0.168 C 
HETATM   35  O   UNL     1      42.267  -7.966  14.108  1.00  0.00    -0.391 OA
HETATM   36  C   UNL     1      41.521  -9.071  14.616  1.00  0.00     0.168 C 
HETATM   37  C   UNL     1      42.241 -10.391  14.368  1.00  0.00     0.040 C 
ENDBRANCH  29  32
ENDBRANCH  26  28
ENDBRANCH   1  26
TORSDOF 7
ENDMDL
MODEL 3
REMARK VINA RESULT:      -8.4      4.088      6.341
REMARK  7 active torsions:
REMARK  status: ('A' for Active; 'I' for Inactive)
REMARK    1  A    between atoms: C_2  and  N_3 
REMARK    2  A    between atoms: C_2  and  C_12 
REMARK       I    between atoms: N_3  and  C_4 
REMARK    3  A    between atoms: C_4  and  C_5 
REMARK    4  A    between atoms: N_17  and  C_19 
REMARK    5  A    between atoms: C_19  and  C_20 
REMARK    6  A    between atoms: C_22  and  C_23 
REMARK    7  A    between atoms: C_23  and  N_24 
ROOT
HETATM    1  C   UNL     1      40.303 -10.697   3.101  1.00  0.00     0.152 A 
HETATM    2  N   UNL     1      40.620 -11.510   4.171  1.00  0.00    -0.317 N 
HETATM    3  C   UNL     1      39.741 -11.169   5.171  1.00  0.00     0.131 A 
HETATM    4  C   UNL     1      39.612 -11.831   6.492  1.00  0.00     0.108 C 
HETATM    5  C   UNL     1      39.474 -13.337   6.324  1.00  0.00     0.243 C 
HETATM    6  N   UNL     1      40.815 -14.043   6.133  1.00  0.00    -0.065 N 
HETATM    7  H   UNL     1      41.148 -14.257   7.083  1.00  0.00     0.280 HD
HETATM    8  C   UNL     1      41.939 -13.211   5.516  1.00  0.00     0.255 C 
HETATM    9  C   UNL     1      41.592 -12.579   4.168  1.00  0.00     0.159 C 
HETATM   10  N   UNL     1      38.950 -10.217   4.739  1.00  0.00    -0.135 NA
HETATM   11  N   UNL     1      39.292  -9.928   3.451  1.00  0.00    -0.133 NA
ENDROOT
BRANCH   6  12
HETATM   12  C   UNL     1      40.647 -15.406   5.461  1.00  0.00     0.280 C 
BRANCH  12  13
HETATM   13  C   UNL     1      41.771 -16.359   5.774  1.00  0.00     0.009 A 
HETATM   14  S   UNL     1      42.766 -16.974   4.516  1.00  0.00    -0.096 SA
HETATM   15  C   UNL     1      43.676 -17.945   5.594  1.00  0.00     0.009 A 
HETATM   16  C   UNL     1      43.250 -17.774   6.897  1.00  0.00     0.017 A 
HETATM   17  C   UNL     1      42.165 -16.852   7.003  1.00  0.00     0.017 A 
BRANCH  15  18
HETATM   18  C   UNL     1      44.760 -18.853   5.081  1.00  0.00     0.280 C 
BRANCH  18  19
HETATM   19  N   UNL     1      44.264 -19.975   4.191  1.00  0.00    -0.067 N 
HETATM   20  H   UNL     1      43.293 -20.162   4.473  1.00  0.00     0.280 HD
HETATM   21  C   UNL     1      44.256 -19.604   2.725  1.00  0.00     0.235 C 
HETATM   22  C   UNL     1      43.676 -20.748   1.906  1.00  0.00     0.028 C 
HETATM   23  C   UNL     1      44.431 -22.049   2.141  1.00  0.00     0.003 C 
HETATM   24  C   UNL     1      44.479 -22.387   3.625  1.00  0.00     0.028 C 
HETATM   25  C   UNL     1      45.056 -21.243   4.445  1.00  0.00     0.235 C 
ENDBRANCH  18  19
ENDBRANCH  15  18
ENDBRANCH  12  13
ENDBRANCH   6  12
BRANCH   1  26
HETATM   26  C   UNL     1      40.933 -10.735   1.737  1.00  0.00     0.152 C 
HETATM   27  C   UNL     1      40.798  -9.390   1.030  1.00  0.00     0.040 C 
BRANCH  26  28
HETATM   28  N   UNL     1      40.257 -11.780   0.983  1.00  0.00    -0.349 N 
HETATM   29  C   UNL     1      40.938 -12.843   0.444  1.00  0.00     0.222 C 
HETATM   30  O   UNL     1      42.166 -12.894   0.432  1.00  0.00    -0.273 OA
HETATM   31  H   UNL     1      39.253 -11.853   1.116  1.00  0.00     0.163 HD
BRANCH  29  32
HETATM   32  C   UNL     1      40.050 -13.973  -0.079  1.00  0.00     0.082 C 
HETATM   33  C   UNL     1      40.815 -15.298  -0.152  1.00  0.00     0.040 C 
HETATM   34  C   UNL     1      41.068 -15.896   1.229  1.00  0.00     0.168 C 
HETATM   35  O   UNL     1      39.872 -15.996   2.003  1.00  0.00    -0.391 OA
HETATM   36  C   UNL     1      39.195 -14.751   2.157  1.00  0.00     0.168 C 
HETATM   37  C   UNL     1      38.814 -14.152   0.808  1.00  0.00     0.040 C 
ENDBRANCH  29  32
ENDBRANCH  26  28
ENDBRANCH   1  26
TORSDOF 7
ENDMDL
MODEL 4
REMARK VINA RESULT:      -8.1      1.930      2.847
REMARK  7 active torsions:
REMARK  status: ('A' for Active; 'I' for Inactive)
REMARK    1  A    between atoms: C_2  and  N_3 
REMARK    2  A    between atoms: C_2  and  C_12 
REMARK       I    between atoms: N_3  and  C_4 
REMARK    3  A    between atoms: C_4  and  C_5 
REMARK    4  A    between atoms: N_17  and  C_19 
REMARK    5  A    between atoms: C_19  and  C_20 
REMARK    6  A    between atoms: C_22  and  C_23 
REMARK    7  A    between atoms: C_23  and  N_24 
ROOT
HETATM    1  C   UNL     1      39.262  -9.078   9.078  1.00  0.00     0.152 A 
HETATM    2  N   UNL     1      39.436  -9.890   7.975  1.00  0.00    -0.317 N 
HETATM    3  C   UNL     1      39.561  -9.040   6.902  1.00  0.00     0.131 A 
HETATM    4  C   UNL     1      39.865  -9.428   5.504  1.00  0.00     0.108 C 
HETATM    5  C   UNL     1      41.089 -10.330   5.454  1.00  0.00     0.243 C 
HETATM    6  N   UNL     1      40.769 -11.792   5.759  1.00  0.00    -0.065 N 
HETATM    7  H   UNL     1      40.518 -12.211   4.854  1.00  0.00     0.280 HD
HETATM    8  C   UNL     1      39.551 -12.049   6.645  1.00  0.00     0.255 C 
HETATM    9  C   UNL     1      39.585 -11.327   7.992  1.00  0.00     0.159 C 
HETATM   10  N   UNL     1      39.467  -7.803   7.325  1.00  0.00    -0.135 NA
HETATM   11  N   UNL     1      39.289  -7.823   8.676  1.00  0.00    -0.133 NA
ENDROOT
BRANCH   6  12
HETATM   12  C   UNL     1      42.010 -12.560   6.217  1.00  0.00     0.280 C 
BRANCH  12  13
HETATM   13  C   UNL     1      42.285 -13.784   5.383  1.00  0.00     0.009 A 
HETATM   14  S   UNL     1      41.362 -15.215   5.608  1.00  0.00    -0.096 SA
HETATM   15  C   UNL     1      42.257 -16.080   4.430  1.00  0.00     0.009 A 
HETATM   16  C   UNL     1      43.219 -15.276   3.849  1.00  0.00     0.017 A 
HETATM   17  C   UNL     1      43.226 -13.953   4.386  1.00  0.00     0.017 A 
BRANCH  15  18
HETATM   18  C   UNL     1      41.969 -17.530   4.159  1.00  0.00     0.280 C 
BRANCH  18  19
HETATM   19  N   UNL     1      43.199 -18.369   3.876  1.00  0.00    -0.067 N 
HETATM   20  H   UNL     1      43.959 -17.708   3.671  1.00  0.00     0.280 HD
HETATM   21  C   UNL     1      43.623 -19.209   5.060  1.00  0.00     0.235 C 
HETATM   22  C   UNL     1      44.904 -19.961   4.726  1.00  0.00     0.028 C 
HETATM   23  C   UNL     1      44.747 -20.812   3.473  1.00  0.00     0.003 C 
HETATM   24  C   UNL     1      44.269 -19.967   2.300  1.00  0.00     0.028 C 
HETATM   25  C   UNL     1      42.990 -19.213   2.634  1.00  0.00     0.235 C 
ENDBRANCH  18  19
ENDBRANCH  15  18
ENDBRANCH  12  13
ENDBRANCH   6  12
BRANCH   1  26
HETATM   26  C   UNL     1      39.152  -9.529  10.508  1.00  0.00     0.152 C 
HETATM   27  C   UNL     1      37.874  -9.003  11.154  1.00  0.00     0.040 C 
BRANCH  26  28
HETATM   28  N   UNL     1      40.324  -9.025  11.207  1.00  0.00    -0.349 N 
HETATM   29  C   UNL     1      41.441  -9.798  11.401  1.00  0.00     0.222 C 
HETATM   30  O   UNL     1      41.460 -10.999  11.137  1.00  0.00    -0.273 OA
HETATM   31  H   UNL     1      40.402  -8.016  11.284  1.00  0.00     0.163 HD
BRANCH  29  32
HETATM   32  C   UNL     1      42.666  -9.037  11.910  1.00  0.00     0.082 C 
HETATM   33  C   UNL     1      42.269  -7.710  12.565  1.00  0.00     0.040 C 
HETATM   34  C   UNL     1      41.608  -7.914  13.925  1.00  0.00     0.168 C 
HETATM   35  O   UNL     1      42.390  -8.739  14.790  1.00  0.00    -0.391 OA
HETATM   36  C   UNL     1      42.692 -10.015  14.229  1.00  0.00     0.168 C 
HETATM   37  C   UNL     1      43.454  -9.881  12.917  1.00  0.00     0.040 C 
ENDBRANCH  29  32
ENDBRANCH  26  28
ENDBRANCH   1  26
TORSDOF 7
ENDMDL
MODEL 5
REMARK VINA RESULT:      -8.0      5.106     10.986
REMARK  7 active torsions:
REMARK  status: ('A' for Active; 'I' for Inactive)
REMARK    1  A    between atoms: C_2  and  N_3 
REMARK    2  A    between atoms: C_2  and  C_12 
REMARK       I    between atoms: N_3  and  C_4 
REMARK    3  A    between atoms: C_4  and  C_5 
REMARK    4  A    between atoms: N_17  and  C_19 
REMARK    5  A    between atoms: C_19  and  C_20 
REMARK    6  A    between atoms: C_22  and  C_23 
REMARK    7  A    between atoms: C_23  and  N_24 
ROOT
HETATM    1  C   UNL     1      41.280 -14.451   2.387  1.00  0.00     0.152 A 
HETATM    2  N   UNL     1      41.214 -14.177   3.738  1.00  0.00    -0.317 N 
HETATM    3  C   UNL     1      42.447 -13.676   4.080  1.00  0.00     0.131 A 
HETATM    4  C   UNL     1      42.843 -13.140   5.404  1.00  0.00     0.108 C 
HETATM    5  C   UNL     1      41.837 -12.104   5.883  1.00  0.00     0.243 C 
HETATM    6  N   UNL     1      40.603 -12.725   6.536  1.00  0.00    -0.065 N 
HETATM    7  H   UNL     1      40.847 -12.836   7.529  1.00  0.00     0.280 HD
HETATM    8  C   UNL     1      40.230 -14.135   6.078  1.00  0.00     0.255 C 
HETATM    9  C   UNL     1      40.035 -14.279   4.569  1.00  0.00     0.159 C 
HETATM   10  N   UNL     1      43.208 -13.652   3.012  1.00  0.00    -0.135 NA
HETATM   11  N   UNL     1      42.483 -14.125   1.959  1.00  0.00    -0.133 NA
ENDROOT
BRANCH   6  12
HETATM   12  C   UNL     1      39.414 -11.764   6.529  1.00  0.00     0.280 C 
BRANCH  12  13
HETATM   13  C   UNL     1      39.459 -10.764   7.654  1.00  0.00     0.009 A 
HETATM   14  S   UNL     1      39.693 -11.287   9.273  1.00  0.00    -0.096 SA
HETATM   15  C   UNL     1      39.569  -9.696   9.896  1.00  0.00     0.009 A 
HETATM   16  C   UNL     1      39.387  -8.778   8.880  1.00  0.00     0.017 A 
HETATM   17  C   UNL     1      39.339  -9.389   7.591  1.00  0.00     0.017 A 
BRANCH  15  18
HETATM   18  C   UNL     1      39.633  -9.444  11.377  1.00  0.00     0.280 C 
BRANCH  18  19
HETATM   19  N   UNL     1      40.935  -9.868  12.026  1.00  0.00    -0.067 N 
HETATM   20  H   UNL     1      40.994 -10.889  11.918  1.00  0.00     0.280 HD
HETATM   21  C   UNL     1      42.150  -9.262  11.359  1.00  0.00     0.235 C 
HETATM   22  C   UNL     1      43.417  -9.792  12.015  1.00  0.00     0.028 C 
HETATM   23  C   UNL     1      43.425  -9.536  13.516  1.00  0.00     0.003 C 
HETATM   24  C   UNL     1      42.173 -10.103  14.170  1.00  0.00     0.028 C 
HETATM   25  C   UNL     1      40.907  -9.575  13.514  1.00  0.00     0.235 C 
ENDBRANCH  18  19
ENDBRANCH  15  18
ENDBRANCH  12  13
ENDBRANCH   6  12
BRANCH   1  26
HETATM   26  C   UNL     1      40.157 -14.950   1.522  1.00  0.00     0.152 C 
HETATM   27  C   UNL     1      39.945 -16.449   1.704  1.00  0.00     0.040 C 
BRANCH  26  28
HETATM   28  N   UNL     1      40.512 -14.646   0.144  1.00  0.00    -0.349 N 
HETATM   29  C   UNL     1      39.611 -14.097  -0.733  1.00  0.00     0.222 C 
HETATM   30  O   UNL     1      38.419 -13.974  -0.456  1.00  0.00    -0.273 OA
HETATM   31  H   UNL     1      41.504 -14.580  -0.060  1.00  0.00     0.163 HD
BRANCH  29  32
HETATM   32  C   UNL     1      40.217 -13.600  -2.046  1.00  0.00     0.082 C 
HETATM   33  C   UNL     1      41.289 -14.562  -2.569  1.00  0.00     0.040 C 
HETATM   34  C   UNL     1      40.686 -15.848  -3.127  1.00  0.00     0.168 C 
HETATM   35  O   UNL     1      39.663 -15.595  -4.089  1.00  0.00    -0.391 OA
HETATM   36  C   UNL     1      38.610 -14.773  -3.589  1.00  0.00     0.168 C 
HETATM   37  C   UNL     1      39.134 -13.422  -3.115  1.00  0.00     0.040 C 
ENDBRANCH  29  32
ENDBRANCH  26  28
ENDBRANCH   1  26
TORSDOF 7
ENDMDL
MODEL 6
REMARK VINA RESULT:      -7.9      4.224      7.569
REMARK  7 active torsions:
REMARK  status: ('A' for Active; 'I' for Inactive)
REMARK    1  A    between atoms: C_2  and  N_3 
REMARK    2  A    between atoms: C_2  and  C_12 
REMARK       I    between atoms: N_3  and  C_4 
REMARK    3  A    between atoms: C_4  and  C_5 
REMARK    4  A    between atoms: N_17  and  C_19 
REMARK    5  A    between atoms: C_19  and  C_20 
REMARK    6  A    between atoms: C_22  and  C_23 
REMARK    7  A    between atoms: C_23  and  N_24 
ROOT
HETATM    1  C   UNL     1      43.711 -15.073   6.311  1.00  0.00     0.152 A 
HETATM    2  N   UNL     1      43.572 -15.828   5.164  1.00  0.00    -0.317 N 
HETATM    3  C   UNL     1      43.732 -17.135   5.556  1.00  0.00     0.131 A 
HETATM    4  C   UNL     1      43.573 -18.336   4.700  1.00  0.00     0.108 C 
HETATM    5  C   UNL     1      42.243 -18.292   3.962  1.00  0.00     0.243 C 
HETATM    6  N   UNL     1      42.287 -17.434   2.699  1.00  0.00    -0.065 N 
HETATM    7  H   UNL     1      42.595 -18.067   1.950  1.00  0.00     0.280 HD
HETATM    8  C   UNL     1      43.313 -16.302   2.684  1.00  0.00     0.255 C 
HETATM    9  C   UNL     1      43.202 -15.330   3.859  1.00  0.00     0.159 C 
HETATM   10  N   UNL     1      43.956 -17.170   6.847  1.00  0.00    -0.135 NA
HETATM   11  N   UNL     1      43.935 -15.891   7.320  1.00  0.00    -0.133 NA
ENDROOT
BRANCH   6  12
HETATM   12  C   UNL     1      40.891 -16.976   2.276  1.00  0.00     0.280 C 
BRANCH  12  13
HETATM   13  C   UNL     1      40.902 -16.132   1.029  1.00  0.00     0.009 A 
HETATM   14  S   UNL     1      40.316 -14.518   1.066  1.00  0.00    -0.096 SA
HETATM   15  C   UNL     1      40.589 -14.290  -0.611  1.00  0.00     0.009 A 
HETATM   16  C   UNL     1      41.151 -15.416  -1.180  1.00  0.00     0.017 A 
HETATM   17  C   UNL     1      41.345 -16.469  -0.236  1.00  0.00     0.017 A 
BRANCH  15  18
HETATM   18  C   UNL     1      40.203 -13.001  -1.283  1.00  0.00     0.280 C 
BRANCH  18  19
HETATM   19  N   UNL     1      41.370 -12.223  -1.857  1.00  0.00    -0.067 N 
HETATM   20  H   UNL     1      42.026 -12.920  -2.233  1.00  0.00     0.280 HD
HETATM   21  C   UNL     1      40.966 -11.309  -2.992  1.00  0.00     0.235 C 
HETATM   22  C   UNL     1      42.198 -10.621  -3.564  1.00  0.00     0.028 C 
HETATM   23  C   UNL     1      42.971  -9.864  -2.493  1.00  0.00     0.003 C 
HETATM   24  C   UNL     1      43.327 -10.781  -1.331  1.00  0.00     0.028 C 
HETATM   25  C   UNL     1      42.096 -11.470  -0.760  1.00  0.00     0.235 C 
ENDBRANCH  18  19
ENDBRANCH  15  18
ENDBRANCH  12  13
ENDBRANCH   6  12
BRANCH   1  26
HETATM   26  C   UNL     1      43.548 -13.583   6.423  1.00  0.00     0.152 C 
HETATM   27  C   UNL     1      44.258 -13.042   7.659  1.00  0.00     0.040 C 
BRANCH  26  28
HETATM   28  N   UNL     1      42.120 -13.314   6.493  1.00  0.00    -0.349 N 
HETATM   29  C   UNL     1      41.460 -12.635   5.500  1.00  0.00     0.222 C 
HETATM   30  O   UNL     1      42.055 -12.083   4.578  1.00  0.00    -0.273 OA
HETATM   31  H   UNL     1      41.586 -13.886   7.140  1.00  0.00     0.163 HD
BRANCH  29  32
HETATM   32  C   UNL     1      39.934 -12.673   5.604  1.00  0.00     0.082 C 
HETATM   33  C   UNL     1      39.464 -12.437   7.043  1.00  0.00     0.040 C 
HETATM   34  C   UNL     1      39.636 -10.984   7.475  1.00  0.00     0.168 C 
HETATM   35  O   UNL     1      39.045 -10.070   6.551  1.00  0.00    -0.391 OA
HETATM   36  C   UNL     1      39.540 -10.216   5.221  1.00  0.00     0.168 C 
HETATM   37  C   UNL     1      39.299 -11.622   4.687  1.00  0.00     0.040 C 
ENDBRANCH  29  32
ENDBRANCH  26  28
ENDBRANCH   1  26
TORSDOF 7
ENDMDL
MODEL 7
REMARK VINA RESULT:      -7.9      3.081      9.533
REMARK  7 active torsions:
REMARK  status: ('A' for Active; 'I' for Inactive)
REMARK    1  A    between atoms: C_2  and  N_3 
REMARK    2  A    between atoms: C_2  and  C_12 
REMARK       I    between atoms: N_3  and  C_4 
REMARK    3  A    between atoms: C_4  and  C_5 
REMARK    4  A    between atoms: N_17  and  C_19 
REMARK    5  A    between atoms: C_19  and  C_20 
REMARK    6  A    between atoms: C_22  and  C_23 
REMARK    7  A    between atoms: C_23  and  N_24 
ROOT
HETATM    1  C   UNL     1      40.990 -15.689   2.219  1.00  0.00     0.152 A 
HETATM    2  N   UNL     1      40.957 -14.418   2.756  1.00  0.00    -0.317 N 
HETATM    3  C   UNL     1      39.685 -13.949   2.530  1.00  0.00     0.131 A 
HETATM    4  C   UNL     1      39.123 -12.663   3.009  1.00  0.00     0.108 C 
HETATM    5  C   UNL     1      39.356 -12.503   4.504  1.00  0.00     0.243 C 
HETATM    6  N   UNL     1      40.753 -11.984   4.840  1.00  0.00    -0.065 N 
HETATM    7  H   UNL     1      40.675 -10.959   4.819  1.00  0.00     0.280 HD
HETATM    8  C   UNL     1      41.855 -12.300   3.830  1.00  0.00     0.255 C 
HETATM    9  C   UNL     1      42.015 -13.787   3.511  1.00  0.00     0.159 C 
HETATM   10  N   UNL     1      38.997 -14.869   1.898  1.00  0.00    -0.135 NA
HETATM   11  N   UNL     1      39.803 -15.953   1.711  1.00  0.00    -0.133 NA
ENDROOT
BRANCH   6  12
HETATM   12  C   UNL     1      41.151 -12.319   6.278  1.00  0.00     0.280 C 
BRANCH  12  13
HETATM   13  C   UNL     1      40.805 -11.225   7.253  1.00  0.00     0.009 A 
HETATM   14  S   UNL     1      41.994 -10.614   8.332  1.00  0.00    -0.096 SA
HETATM   15  C   UNL     1      40.887  -9.541   9.081  1.00  0.00     0.009 A 
HETATM   16  C   UNL     1      39.640  -9.624   8.491  1.00  0.00     0.017 A 
HETATM   17  C   UNL     1      39.596 -10.580   7.432  1.00  0.00     0.017 A 
BRANCH  15  18
HETATM   18  C   UNL     1      41.313  -8.685  10.241  1.00  0.00     0.280 C 
BRANCH  18  19
HETATM   19  N   UNL     1      41.834  -9.463  11.432  1.00  0.00    -0.067 N 
HETATM   20  H   UNL     1      42.277 -10.310  11.054  1.00  0.00     0.280 HD
HETATM   21  C   UNL     1      42.882  -8.705  12.216  1.00  0.00     0.235 C 
HETATM   22  C   UNL     1      43.411  -9.576  13.347  1.00  0.00     0.028 C 
HETATM   23  C   UNL     1      42.290 -10.065  14.254  1.00  0.00     0.003 C 
HETATM   24  C   UNL     1      41.214 -10.781  13.448  1.00  0.00     0.028 C 
HETATM   25  C   UNL     1      40.687  -9.911  12.316  1.00  0.00     0.235 C 
ENDBRANCH  18  19
ENDBRANCH  15  18
ENDBRANCH  12  13
ENDBRANCH   6  12
BRANCH   1  26
HETATM   26  C   UNL     1      42.143 -16.651   2.276  1.00  0.00     0.152 C 
HETATM   27  C   UNL     1      42.148 -17.578   1.065  1.00  0.00     0.040 C 
BRANCH  26  28
HETATM   28  N   UNL     1      42.000 -17.416   3.506  1.00  0.00    -0.349 N 
HETATM   29  C   UNL     1      43.075 -18.004   4.123  1.00  0.00     0.222 C 
HETATM   30  O   UNL     1      44.186 -18.053   3.597  1.00  0.00    -0.273 OA
HETATM   31  H   UNL     1      41.151 -17.256   4.038  1.00  0.00     0.163 HD
BRANCH  29  32
HETATM   32  C   UNL     1      42.794 -18.536   5.529  1.00  0.00     0.082 C 
HETATM   33  C   UNL     1      44.093 -18.851   6.279  1.00  0.00     0.040 C 
HETATM   34  C   UNL     1      44.832 -17.587   6.710  1.00  0.00     0.168 C 
HETATM   35  O   UNL     1      43.990 -16.686   7.430  1.00  0.00    -0.391 OA
HETATM   36  C   UNL     1      42.819 -16.311   6.707  1.00  0.00     0.168 C 
HETATM   37  C   UNL     1      41.976 -17.526   6.341  1.00  0.00     0.040 C 
ENDBRANCH  29  32
ENDBRANCH  26  28
ENDBRANCH   1  26
TORSDOF 7
ENDMDL
MODEL 8
REMARK VINA RESULT:      -7.9      4.917      8.937
REMARK  7 active torsions:
REMARK  status: ('A' for Active; 'I' for Inactive)
REMARK    1  A    between atoms: C_2  and  N_3 
REMARK    2  A    between atoms: C_2  and  C_12 
REMARK       I    between atoms: N_3  and  C_4 
REMARK    3  A    between atoms: C_4  and  C_5 
REMARK    4  A    between atoms: N_17  and  C_19 
REMARK    5  A    between atoms: C_19  and  C_20 
REMARK    6  A    between atoms: C_22  and  C_23 
REMARK    7  A    between atoms: C_23  and  N_24 
ROOT
HETATM    1  C   UNL     1      43.219 -16.012   6.318  1.00  0.00     0.152 A 
HETATM    2  N   UNL     1      42.230 -15.266   5.710  1.00  0.00    -0.317 N 
HETATM    3  C   UNL     1      42.780 -14.027   5.486  1.00  0.00     0.131 A 
HETATM    4  C   UNL     1      42.144 -12.899   4.764  1.00  0.00     0.108 C 
HETATM    5  C   UNL     1      41.616 -13.360   3.414  1.00  0.00     0.243 C 
HETATM    6  N   UNL     1      40.248 -14.035   3.504  1.00  0.00    -0.065 N 
HETATM    7  H   UNL     1      39.562 -13.273   3.427  1.00  0.00     0.280 HD
HETATM    8  C   UNL     1      39.913 -14.713   4.832  1.00  0.00     0.255 C 
HETATM    9  C   UNL     1      40.936 -15.753   5.288  1.00  0.00     0.159 C 
HETATM   10  N   UNL     1      44.014 -14.022   5.929  1.00  0.00    -0.135 NA
HETATM   11  N   UNL     1      44.292 -15.256   6.439  1.00  0.00    -0.133 NA
ENDROOT
BRANCH   6  12
HETATM   12  C   UNL     1      39.978 -14.931   2.295  1.00  0.00     0.280 C 
BRANCH  12  13
HETATM   13  C   UNL     1      40.155 -14.216   0.981  1.00  0.00     0.009 A 
HETATM   14  S   UNL     1      41.394 -14.694  -0.108  1.00  0.00    -0.096 SA
HETATM   15  C   UNL     1      41.003 -13.458  -1.229  1.00  0.00     0.009 A 
HETATM   16  C   UNL     1      39.922 -12.716  -0.793  1.00  0.00     0.017 A 
HETATM   17  C   UNL     1      39.425 -13.161   0.469  1.00  0.00     0.017 A 
BRANCH  15  18
HETATM   18  C   UNL     1      41.815 -13.273  -2.482  1.00  0.00     0.280 C 
BRANCH  18  19
HETATM   19  N   UNL     1      42.528 -11.939  -2.571  1.00  0.00    -0.067 N 
HETATM   20  H   UNL     1      43.408 -12.114  -3.075  1.00  0.00     0.280 HD
HETATM   21  C   UNL     1      41.747 -10.905  -3.350  1.00  0.00     0.235 C 
HETATM   22  C   UNL     1      42.558  -9.622  -3.462  1.00  0.00     0.028 C 
HETATM   23  C   UNL     1      42.965  -9.091  -2.094  1.00  0.00     0.003 C 
HETATM   24  C   UNL     1      43.705 -10.157  -1.297  1.00  0.00     0.028 C 
HETATM   25  C   UNL     1      42.896 -11.440  -1.187  1.00  0.00     0.235 C 
ENDBRANCH  18  19
ENDBRANCH  15  18
ENDBRANCH  12  13
ENDBRANCH   6  12
BRANCH   1  26
HETATM   26  C   UNL     1      43.134 -17.464   6.699  1.00  0.00     0.152 C 
HETATM   27  C   UNL     1      43.542 -17.677   8.153  1.00  0.00     0.040 C 
BRANCH  26  28
HETATM   28  N   UNL     1      44.022 -18.192   5.805  1.00  0.00    -0.349 N 
HETATM   29  C   UNL     1      43.619 -18.608   4.561  1.00  0.00     0.222 C 
HETATM   30  O   UNL     1      42.449 -18.528   4.192  1.00  0.00    -0.273 OA
HETATM   31  H   UNL     1      45.015 -18.127   6.007  1.00  0.00     0.163 HD
BRANCH  29  32
HETATM   32  C   UNL     1      44.745 -19.117   3.660  1.00  0.00     0.082 C 
HETATM   33  C   UNL     1      45.303 -20.453   4.160  1.00  0.00     0.040 C 
HETATM   34  C   UNL     1      44.338 -21.610   3.911  1.00  0.00     0.168 C 
HETATM   35  O   UNL     1      43.906 -21.672   2.552  1.00  0.00    -0.391 OA
HETATM   36  C   UNL     1      43.301 -20.463   2.098  1.00  0.00     0.168 C 
HETATM   37  C   UNL     1      44.257 -19.282   2.217  1.00  0.00     0.040 C 
ENDBRANCH  29  32
ENDBRANCH  26  28
ENDBRANCH   1  26
TORSDOF 7
ENDMDL
MODEL 9
REMARK VINA RESULT:      -7.9      6.045      9.689
REMARK  7 active torsions:
REMARK  status: ('A' for Active; 'I' for Inactive)
REMARK    1  A    between atoms: C_2  and  N_3 
REMARK    2  A    between atoms: C_2  and  C_12 
REMARK       I    between atoms: N_3  and  C_4 
REMARK    3  A    between atoms: C_4  and  C_5 
REMARK    4  A    between atoms: N_17  and  C_19 
REMARK    5  A    between atoms: C_19  and  C_20 
REMARK    6  A    between atoms: C_22  and  C_23 
REMARK    7  A    between atoms: C_23  and  N_24 
ROOT
HETATM    1  C   UNL     1      43.009 -16.038   5.883  1.00  0.00     0.152 A 
HETATM    2  N   UNL     1      42.228 -15.250   5.061  1.00  0.00    -0.317 N 
HETATM    3  C   UNL     1      42.853 -14.028   5.010  1.00  0.00     0.131 A 
HETATM    4  C   UNL     1      42.454 -12.870   4.174  1.00  0.00     0.108 C 
HETATM    5  C   UNL     1      42.271 -13.295   2.725  1.00  0.00     0.243 C 
HETATM    6  N   UNL     1      40.906 -13.925   2.453  1.00  0.00    -0.065 N 
HETATM    7  H   UNL     1      40.284 -13.139   2.221  1.00  0.00     0.280 HD
HETATM    8  C   UNL     1      40.226 -14.608   3.639  1.00  0.00     0.255 C 
HETATM    9  C   UNL     1      41.069 -15.688   4.316  1.00  0.00     0.159 C 
HETATM   10  N   UNL     1      43.935 -14.070   5.750  1.00  0.00    -0.135 NA
HETATM   11  N   UNL     1      44.038 -15.319   6.287  1.00  0.00    -0.133 NA
ENDROOT
BRANCH   6  12
HETATM   12  C   UNL     1      40.924 -14.796   1.196  1.00  0.00     0.280 C 
BRANCH  12  13
HETATM   13  C   UNL     1      39.907 -14.369   0.171  1.00  0.00     0.009 A 
HETATM   14  S   UNL     1      40.325 -14.304  -1.494  1.00  0.00    -0.096 SA
HETATM   15  C   UNL     1      38.778 -13.720  -1.947  1.00  0.00     0.009 A 
HETATM   16  C   UNL     1      37.947 -13.612  -0.849  1.00  0.00     0.017 A 
HETATM   17  C   UNL     1      38.590 -13.999   0.366  1.00  0.00     0.017 A 
BRANCH  15  18
HETATM   18  C   UNL     1      38.478 -13.374  -3.379  1.00  0.00     0.280 C 
BRANCH  18  19
HETATM   19  N   UNL     1      37.009 -13.152  -3.673  1.00  0.00    -0.067 N 
HETATM   20  H   UNL     1      36.516 -13.245  -2.775  1.00  0.00     0.280 HD
HETATM   21  C   UNL     1      36.719 -11.772  -4.219  1.00  0.00     0.235 C 
HETATM   22  C   UNL     1      35.220 -11.599  -4.416  1.00  0.00     0.028 C 
HETATM   23  C   UNL     1      34.641 -12.681  -5.318  1.00  0.00     0.003 C 
HETATM   24  C   UNL     1      34.983 -14.067  -4.789  1.00  0.00     0.028 C 
HETATM   25  C   UNL     1      36.481 -14.240  -4.589  1.00  0.00     0.235 C 
ENDBRANCH  18  19
ENDBRANCH  15  18
ENDBRANCH  12  13
ENDBRANCH   6  12
BRANCH   1  26
HETATM   26  C   UNL     1      42.788 -17.490   6.199  1.00  0.00     0.152 C 
HETATM   27  C   UNL     1      42.979 -17.765   7.687  1.00  0.00     0.040 C 
BRANCH  26  28
HETATM   28  N   UNL     1      43.747 -18.250   5.411  1.00  0.00    -0.349 N 
HETATM   29  C   UNL     1      43.454 -18.699   4.148  1.00  0.00     0.222 C 
HETATM   30  O   UNL     1      42.322 -18.624   3.673  1.00  0.00    -0.273 OA
HETATM   31  H   UNL     1      44.718 -18.184   5.699  1.00  0.00     0.163 HD
BRANCH  29  32
HETATM   32  C   UNL     1      44.652 -19.241   3.367  1.00  0.00     0.082 C 
HETATM   33  C   UNL     1      45.384 -20.335   4.150  1.00  0.00     0.040 C 
HETATM   34  C   UNL     1      44.594 -21.640   4.193  1.00  0.00     0.168 C 
HETATM   35  O   UNL     1      44.193 -22.074   2.893  1.00  0.00    -0.391 OA
HETATM   36  C   UNL     1      43.432 -21.098   2.184  1.00  0.00     0.168 C 
HETATM   37  C   UNL     1      44.211 -19.801   2.010  1.00  0.00     0.040 C 
ENDBRANCH  29  32
ENDBRANCH  26  28
ENDBRANCH   1  26
TORSDOF 7
ENDMDL
MODEL 10
REMARK VINA RESULT:      -7.8      5.194     10.055
REMARK  7 active torsions:
REMARK  status: ('A' for Active; 'I' for Inactive)
REMARK    1  A    between atoms: C_2  and  N_3 
REMARK    2  A    between atoms: C_2  and  C_12 
REMARK       I    between atoms: N_3  and  C_4 
REMARK    3  A    between atoms: C_4  and  C_5 
REMARK    4  A    between atoms: N_17  and  C_19 
REMARK    5  A    between atoms: C_19  and  C_20 
REMARK    6  A    between atoms: C_22  and  C_23 
REMARK    7  A    between atoms: C_23  and  N_24 
ROOT
HETATM    1  C   UNL     1      43.277 -16.437   6.383  1.00  0.00     0.152 A 
HETATM    2  N   UNL     1      42.343 -15.518   5.949  1.00  0.00    -0.317 N 
HETATM    3  C   UNL     1      42.983 -14.302   5.956  1.00  0.00     0.131 A 
HETATM    4  C   UNL     1      42.429 -13.013   5.476  1.00  0.00     0.108 C 
HETATM    5  C   UNL     1      41.861 -13.165   4.073  1.00  0.00     0.243 C 
HETATM    6  N   UNL     1      40.447 -13.745   4.059  1.00  0.00    -0.065 N 
HETATM    7  H   UNL     1      39.820 -12.934   4.142  1.00  0.00     0.280 HD
HETATM    8  C   UNL     1      40.069 -14.639   5.239  1.00  0.00     0.255 C 
HETATM    9  C   UNL     1      41.014 -15.819   5.467  1.00  0.00     0.159 C 
HETATM   10  N   UNL     1      44.216 -14.472   6.367  1.00  0.00    -0.135 NA
HETATM   11  N   UNL     1      44.404 -15.797   6.625  1.00  0.00    -0.133 NA
ENDROOT
BRANCH   6  12
HETATM   12  C   UNL     1      40.104 -14.369   2.706  1.00  0.00     0.280 C 
BRANCH  12  13
HETATM   13  C   UNL     1      39.005 -13.637   1.982  1.00  0.00     0.009 A 
HETATM   14  S   UNL     1      38.738 -11.965   2.271  1.00  0.00    -0.096 SA
HETATM   15  C   UNL     1      37.395 -11.908   1.208  1.00  0.00     0.009 A 
HETATM   16  C   UNL     1      37.178 -13.137   0.616  1.00  0.00     0.017 A 
HETATM   17  C   UNL     1      38.112 -14.127   1.049  1.00  0.00     0.017 A 
BRANCH  15  18
HETATM   18  C   UNL     1      36.605 -10.640   1.036  1.00  0.00     0.280 C 
BRANCH  18  19
HETATM   19  N   UNL     1      35.149 -10.855   0.677  1.00  0.00    -0.067 N 
HETATM   20  H   UNL     1      34.979 -11.867   0.748  1.00  0.00     0.280 HD
HETATM   21  C   UNL     1      34.200 -10.160   1.628  1.00  0.00     0.235 C 
HETATM   22  C   UNL     1      32.762 -10.484   1.250  1.00  0.00     0.028 C 
HETATM   23  C   UNL     1      32.462 -10.116  -0.197  1.00  0.00     0.003 C 
HETATM   24  C   UNL     1      33.455 -10.778  -1.142  1.00  0.00     0.028 C 
HETATM   25  C   UNL     1      34.893 -10.457  -0.763  1.00  0.00     0.235 C 
ENDBRANCH  18  19
ENDBRANCH  15  18
ENDBRANCH  12  13
ENDBRANCH   6  12
BRANCH   1  26
HETATM   26  C   UNL     1      43.086 -17.924   6.480  1.00  0.00     0.152 C 
HETATM   27  C   UNL     1      43.529 -18.449   7.841  1.00  0.00     0.040 C 
BRANCH  26  28
HETATM   28  N   UNL     1      43.876 -18.527   5.416  1.00  0.00    -0.349 N 
HETATM   29  C   UNL     1      43.374 -18.704   4.151  1.00  0.00     0.222 C 
HETATM   30  O   UNL     1      42.190 -18.511   3.884  1.00  0.00    -0.273 OA
HETATM   31  H   UNL     1      44.881 -18.540   5.556  1.00  0.00     0.163 HD
BRANCH  29  32
HETATM   32  C   UNL     1      44.413 -19.100   3.101  1.00  0.00     0.082 C 
HETATM   33  C   UNL     1      45.328 -20.218   3.610  1.00  0.00     0.040 C 
HETATM   34  C   UNL     1      44.613 -21.565   3.670  1.00  0.00     0.168 C 
HETATM   35  O   UNL     1      43.979 -21.898   2.435  1.00  0.00    -0.391 OA
HETATM   36  C   UNL     1      43.054 -20.906   1.992  1.00  0.00     0.168 C 
HETATM   37  C   UNL     1      43.733 -19.555   1.805  1.00  0.00     0.040 C 
ENDBRANCH  29  32
ENDBRANCH  26  28
ENDBRANCH   1  26
TORSDOF 7
ENDMDL
