MODEL 1
REMARK VINA RESULT:      -8.3      0.000      0.000
REMARK  9 active torsions:
REMARK  status: ('A' for Active; 'I' for Inactive)
REMARK    1  A    between atoms: C_2  and  N_3 
REMARK    2  A    between atoms: C_4  and  S_5 
REMARK    3  A    between atoms: S_5  and  C_6 
REMARK    4  A    between atoms: C_6  and  C_7 
REMARK       I    between atoms: C_7  and  N_8 
REMARK    5  A    between atoms: N_8  and  C_9 
REMARK    6  A    between atoms: C_9  and  C_10 
REMARK    7  A    between atoms: C_10  and  C_11 
REMARK    8  A    between atoms: C_14  and  O_15 
REMARK    9  A    between atoms: C_22  and  C_23 
ROOT
HETATM    1  S   UNL     1      41.408 -14.175   3.945  1.00  0.00    -0.081 SA
ENDROOT
BRANCH   1   2
HETATM    2  C   UNL     1      41.720 -15.854   4.207  1.00  0.00     0.192 A 
HETATM    3  N   UNL     1      42.648 -16.585   3.514  1.00  0.00    -0.308 N 
HETATM    4  C   UNL     1      42.541 -17.874   4.001  1.00  0.00     0.165 A 
HETATM    5  N   UNL     1      41.605 -17.890   4.934  1.00  0.00    -0.128 NA
HETATM    6  N   UNL     1      41.097 -16.622   5.067  1.00  0.00    -0.122 NA
BRANCH   3   7
HETATM    7  C   UNL     1      43.528 -16.123   2.462  1.00  0.00     0.128 C 
HETATM    8  C   UNL     1      42.897 -16.212   1.084  1.00  0.00     0.027 C 
ENDBRANCH   3   7
BRANCH   4   9
HETATM    9  C   UNL     1      43.276 -19.042   3.517  1.00  0.00     0.018 A 
HETATM   10  C   UNL     1      44.368 -19.569   4.242  1.00  0.00    -0.048 A 
HETATM   11  C   UNL     1      44.848 -18.934   5.521  1.00  0.00     0.049 C 
HETATM   12  C   UNL     1      45.047 -20.691   3.741  1.00  0.00     0.007 A 
HETATM   13  C   UNL     1      44.654 -21.288   2.543  1.00  0.00     0.001 A 
HETATM   14  C   UNL     1      43.590 -20.760   1.820  1.00  0.00     0.001 A 
HETATM   15  C   UNL     1      42.910 -19.639   2.300  1.00  0.00     0.016 A 
ENDBRANCH   4   9
ENDBRANCH   1   2
BRANCH   1  16
HETATM   16  C   UNL     1      41.742 -13.524   5.610  1.00  0.00     0.185 C 
BRANCH  16  17
HETATM   17  C   UNL     1      43.233 -13.598   5.897  1.00  0.00     0.227 C 
HETATM   18  N   UNL     1      43.557 -13.682   7.239  1.00  0.00    -0.360 N 
HETATM   19  H   UNL     1      42.840 -13.468   7.921  1.00  0.00     0.162 HD
HETATM   20  O   UNL     1      44.080 -13.609   5.005  1.00  0.00    -0.273 OA
BRANCH  18  21
HETATM   21  C   UNL     1      44.941 -13.643   7.682  1.00  0.00     0.127 C 
BRANCH  21  22
HETATM   22  C   UNL     1      45.306 -12.292   8.296  1.00  0.00     0.058 C 
BRANCH  22  23
HETATM   23  C   UNL     1      44.389 -11.938   9.441  1.00  0.00    -0.057 A 
HETATM   24  C   UNL     1      43.353 -11.015   9.263  1.00  0.00     0.010 A 
HETATM   25  C   UNL     1      42.536 -10.660  10.339  1.00  0.00     0.037 A 
HETATM   26  C   UNL     1      42.740 -11.211  11.605  1.00  0.00     0.068 A 
HETATM   27  C   UNL     1      43.769 -12.134  11.786  1.00  0.00     0.037 A 
HETATM   28  C   UNL     1      44.590 -12.494  10.710  1.00  0.00     0.010 A 
BRANCH  26  29
HETATM   29  O   UNL     1      41.876 -10.768  12.569  1.00  0.00    -0.356 OA
HETATM   30  C   UNL     1      42.434 -10.465  13.841  1.00  0.00     0.210 C 
ENDBRANCH  26  29
ENDBRANCH  22  23
ENDBRANCH  21  22
ENDBRANCH  18  21
ENDBRANCH  16  17
ENDBRANCH   1  16
TORSDOF 9
ENDMDL
MODEL 2
REMARK VINA RESULT:      -8.2      1.783      2.393
REMARK  9 active torsions:
REMARK  status: ('A' for Active; 'I' for Inactive)
REMARK    1  A    between atoms: C_2  and  N_3 
REMARK    2  A    between atoms: C_4  and  S_5 
REMARK    3  A    between atoms: S_5  and  C_6 
REMARK    4  A    between atoms: C_6  and  C_7 
REMARK       I    between atoms: C_7  and  N_8 
REMARK    5  A    between atoms: N_8  and  C_9 
REMARK    6  A    between atoms: C_9  and  C_10 
REMARK    7  A    between atoms: C_10  and  C_11 
REMARK    8  A    between atoms: C_14  and  O_15 
REMARK    9  A    between atoms: C_22  and  C_23 
ROOT
HETATM    1  S   UNL     1      42.646 -15.554   6.455  1.00  0.00    -0.081 SA
ENDROOT
BRANCH   1   2
HETATM    2  C   UNL     1      43.671 -16.897   6.095  1.00  0.00     0.192 A 
HETATM    3  N   UNL     1      43.319 -17.943   5.285  1.00  0.00    -0.308 N 
HETATM    4  C   UNL     1      44.398 -18.807   5.306  1.00  0.00     0.165 A 
HETATM    5  N   UNL     1      45.333 -18.286   6.082  1.00  0.00    -0.128 NA
HETATM    6  N   UNL     1      44.878 -17.087   6.571  1.00  0.00    -0.122 NA
BRANCH   3   7
HETATM    7  C   UNL     1      42.067 -18.133   4.584  1.00  0.00     0.128 C 
HETATM    8  C   UNL     1      42.085 -17.556   3.179  1.00  0.00     0.027 C 
ENDBRANCH   3   7
BRANCH   4   9
HETATM    9  C   UNL     1      44.471 -20.112   4.649  1.00  0.00     0.018 A 
HETATM   10  C   UNL     1      44.303 -21.308   5.380  1.00  0.00    -0.048 A 
HETATM   11  C   UNL     1      44.079 -21.299   6.869  1.00  0.00     0.049 C 
HETATM   12  C   UNL     1      44.383 -22.539   4.709  1.00  0.00     0.007 A 
HETATM   13  C   UNL     1      44.624 -22.590   3.336  1.00  0.00     0.001 A 
HETATM   14  C   UNL     1      44.806 -21.414   2.618  1.00  0.00     0.001 A 
HETATM   15  C   UNL     1      44.739 -20.182   3.272  1.00  0.00     0.016 A 
ENDBRANCH   4   9
ENDBRANCH   1   2
BRANCH   1  16
HETATM   16  C   UNL     1      43.625 -14.203   5.732  1.00  0.00     0.185 C 
BRANCH  16  17
HETATM   17  C   UNL     1      44.570 -13.640   6.781  1.00  0.00     0.227 C 
HETATM   18  N   UNL     1      43.967 -13.311   7.983  1.00  0.00    -0.360 N 
HETATM   19  H   UNL     1      42.957 -13.250   8.012  1.00  0.00     0.162 HD
HETATM   20  O   UNL     1      45.777 -13.512   6.585  1.00  0.00    -0.273 OA
BRANCH  18  21
HETATM   21  C   UNL     1      44.713 -12.655   9.043  1.00  0.00     0.127 C 
BRANCH  21  22
HETATM   22  C   UNL     1      44.358 -11.172   9.158  1.00  0.00     0.058 C 
BRANCH  22  23
HETATM   23  C   UNL     1      43.534 -10.893  10.390  1.00  0.00    -0.057 A 
HETATM   24  C   UNL     1      44.150 -10.519  11.590  1.00  0.00     0.010 A 
HETATM   25  C   UNL     1      43.384 -10.306  12.737  1.00  0.00     0.037 A 
HETATM   26  C   UNL     1      41.997 -10.465  12.711  1.00  0.00     0.068 A 
HETATM   27  C   UNL     1      41.378 -10.833  11.518  1.00  0.00     0.037 A 
HETATM   28  C   UNL     1      42.142 -11.048  10.365  1.00  0.00     0.010 A 
BRANCH  26  29
HETATM   29  O   UNL     1      41.372 -10.235  13.906  1.00  0.00    -0.356 OA
HETATM   30  C   UNL     1      42.204  -9.929  15.018  1.00  0.00     0.210 C 
ENDBRANCH  26  29
ENDBRANCH  22  23
ENDBRANCH  21  22
ENDBRANCH  18  21
ENDBRANCH  16  17
ENDBRANCH   1  16
TORSDOF 9
ENDMDL
MODEL 3
REMARK VINA RESULT:      -8.0      5.141      9.169
REMARK  9 active torsions:
REMARK  status: ('A' for Active; 'I' for Inactive)
REMARK    1  A    between atoms: C_2  and  N_3 
REMARK    2  A    between atoms: C_4  and  S_5 
REMARK    3  A    between atoms: S_5  and  C_6 
REMARK    4  A    between atoms: C_6  and  C_7 
REMARK       I    between atoms: C_7  and  N_8 
REMARK    5  A    between atoms: N_8  and  C_9 
REMARK    6  A    between atoms: C_9  and  C_10 
REMARK    7  A    between atoms: C_10  and  C_11 
REMARK    8  A    between atoms: C_14  and  O_15 
REMARK    9  A    between atoms: C_22  and  C_23 
ROOT
HETATM    1  S   UNL     1      41.308 -14.465   4.215  1.00  0.00    -0.081 SA
ENDROOT
BRANCH   1   2
HETATM    2  C   UNL     1      42.352 -15.642   3.502  1.00  0.00     0.192 A 
HETATM    3  N   UNL     1      42.279 -16.988   3.743  1.00  0.00    -0.308 N 
HETATM    4  C   UNL     1      43.312 -17.550   3.018  1.00  0.00     0.165 A 
HETATM    5  N   UNL     1      43.949 -16.582   2.382  1.00  0.00    -0.128 NA
HETATM    6  N   UNL     1      43.343 -15.388   2.681  1.00  0.00    -0.122 NA
BRANCH   3   7
HETATM    7  C   UNL     1      41.346 -17.679   4.607  1.00  0.00     0.128 C 
HETATM    8  C   UNL     1      41.640 -17.466   6.082  1.00  0.00     0.027 C 
ENDBRANCH   3   7
BRANCH   4   9
HETATM    9  C   UNL     1      43.692 -18.963   3.011  1.00  0.00     0.018 A 
HETATM   10  C   UNL     1      44.432 -19.525   4.074  1.00  0.00    -0.048 A 
HETATM   11  C   UNL     1      44.896 -18.693   5.241  1.00  0.00     0.049 C 
HETATM   12  C   UNL     1      44.778 -20.885   4.026  1.00  0.00     0.007 A 
HETATM   13  C   UNL     1      44.397 -21.681   2.946  1.00  0.00     0.001 A 
HETATM   14  C   UNL     1      43.682 -21.125   1.891  1.00  0.00     0.001 A 
HETATM   15  C   UNL     1      43.340 -19.772   1.919  1.00  0.00     0.016 A 
ENDBRANCH   4   9
ENDBRANCH   1   2
BRANCH   1  16
HETATM   16  C   UNL     1      39.820 -14.700   3.198  1.00  0.00     0.185 C 
BRANCH  16  17
HETATM   17  C   UNL     1      39.922 -13.854   1.940  1.00  0.00     0.227 C 
HETATM   18  N   UNL     1      40.822 -14.325   1.001  1.00  0.00    -0.360 N 
HETATM   19  H   UNL     1      41.487 -15.032   1.286  1.00  0.00     0.162 HD
HETATM   20  O   UNL     1      39.241 -12.845   1.763  1.00  0.00    -0.273 OA
BRANCH  18  21
HETATM   21  C   UNL     1      41.119 -13.566  -0.203  1.00  0.00     0.127 C 
BRANCH  21  22
HETATM   22  C   UNL     1      41.473 -14.476  -1.379  1.00  0.00     0.058 C 
BRANCH  22  23
HETATM   23  C   UNL     1      40.298 -14.670  -2.304  1.00  0.00    -0.057 A 
HETATM   24  C   UNL     1      39.203 -13.800  -2.257  1.00  0.00     0.010 A 
HETATM   25  C   UNL     1      38.100 -14.012  -3.086  1.00  0.00     0.037 A 
HETATM   26  C   UNL     1      38.066 -15.093  -3.969  1.00  0.00     0.068 A 
HETATM   27  C   UNL     1      39.156 -15.960  -4.023  1.00  0.00     0.037 A 
HETATM   28  C   UNL     1      40.265 -15.751  -3.194  1.00  0.00     0.010 A 
BRANCH  26  29
HETATM   29  O   UNL     1      36.922 -15.188  -4.714  1.00  0.00    -0.356 OA
HETATM   30  C   UNL     1      36.037 -14.077  -4.676  1.00  0.00     0.210 C 
ENDBRANCH  26  29
ENDBRANCH  22  23
ENDBRANCH  21  22
ENDBRANCH  18  21
ENDBRANCH  16  17
ENDBRANCH   1  16
TORSDOF 9
ENDMDL
MODEL 4
REMARK VINA RESULT:      -8.0      4.153      7.940
REMARK  9 active torsions:
REMARK  status: ('A' for Active; 'I' for Inactive)
REMARK    1  A    between atoms: C_2  and  N_3 
REMARK    2  A    between atoms: C_4  and  S_5 
REMARK    3  A    between atoms: S_5  and  C_6 
REMARK    4  A    between atoms: C_6  and  C_7 
REMARK       I    between atoms: C_7  and  N_8 
REMARK    5  A    between atoms: N_8  and  C_9 
REMARK    6  A    between atoms: C_9  and  C_10 
REMARK    7  A    between atoms: C_10  and  C_11 
REMARK    8  A    between atoms: C_14  and  O_15 
REMARK    9  A    between atoms: C_22  and  C_23 
ROOT
HETATM    1  S   UNL     1      40.613 -12.635   1.962  1.00  0.00    -0.081 SA
ENDROOT
BRANCH   1   2
HETATM    2  C   UNL     1      41.735 -13.627   2.823  1.00  0.00     0.192 A 
HETATM    3  N   UNL     1      41.459 -14.259   4.005  1.00  0.00    -0.308 N 
HETATM    4  C   UNL     1      42.631 -14.898   4.365  1.00  0.00     0.165 A 
HETATM    5  N   UNL     1      43.539 -14.656   3.436  1.00  0.00    -0.128 NA
HETATM    6  N   UNL     1      42.975 -13.865   2.467  1.00  0.00    -0.122 NA
BRANCH   3   7
HETATM    7  C   UNL     1      40.218 -14.235   4.750  1.00  0.00     0.128 C 
HETATM    8  C   UNL     1      40.189 -13.147   5.810  1.00  0.00     0.027 C 
ENDBRANCH   3   7
BRANCH   4   9
HETATM    9  C   UNL     1      42.860 -15.650   5.599  1.00  0.00     0.018 A 
HETATM   10  C   UNL     1      42.245 -16.902   5.815  1.00  0.00    -0.048 A 
HETATM   11  C   UNL     1      41.298 -17.503   4.810  1.00  0.00     0.049 C 
HETATM   12  C   UNL     1      42.491 -17.590   7.015  1.00  0.00     0.007 A 
HETATM   13  C   UNL     1      43.334 -17.051   7.987  1.00  0.00     0.001 A 
HETATM   14  C   UNL     1      43.928 -15.810   7.782  1.00  0.00     0.001 A 
HETATM   15  C   UNL     1      43.685 -15.110   6.598  1.00  0.00     0.016 A 
ENDBRANCH   4   9
ENDBRANCH   1   2
BRANCH   1  16
HETATM   16  C   UNL     1      40.063 -13.807   0.686  1.00  0.00     0.185 C 
BRANCH  16  17
HETATM   17  C   UNL     1      40.280 -15.231   1.174  1.00  0.00     0.227 C 
HETATM   18  N   UNL     1      41.513 -15.769   0.850  1.00  0.00    -0.360 N 
HETATM   19  H   UNL     1      42.073 -15.298   0.151  1.00  0.00     0.162 HD
HETATM   20  O   UNL     1      39.437 -15.844   1.826  1.00  0.00    -0.273 OA
BRANCH  18  21
HETATM   21  C   UNL     1      41.828 -17.157   1.143  1.00  0.00     0.127 C 
BRANCH  21  22
HETATM   22  C   UNL     1      43.328 -17.435   1.043  1.00  0.00     0.058 C 
BRANCH  22  23
HETATM   23  C   UNL     1      43.732 -18.612   1.896  1.00  0.00    -0.057 A 
HETATM   24  C   UNL     1      43.581 -19.920   1.423  1.00  0.00     0.010 A 
HETATM   25  C   UNL     1      43.916 -21.005   2.236  1.00  0.00     0.037 A 
HETATM   26  C   UNL     1      44.401 -20.806   3.530  1.00  0.00     0.068 A 
HETATM   27  C   UNL     1      44.558 -19.505   4.004  1.00  0.00     0.037 A 
HETATM   28  C   UNL     1      44.223 -18.414   3.193  1.00  0.00     0.010 A 
BRANCH  26  29
HETATM   29  O   UNL     1      44.680 -21.954   4.220  1.00  0.00    -0.356 OA
HETATM   30  C   UNL     1      44.669 -21.869   5.639  1.00  0.00     0.210 C 
ENDBRANCH  26  29
ENDBRANCH  22  23
ENDBRANCH  21  22
ENDBRANCH  18  21
ENDBRANCH  16  17
ENDBRANCH   1  16
TORSDOF 9
ENDMDL
MODEL 5
REMARK VINA RESULT:      -8.0      2.364      3.559
REMARK  9 active torsions:
REMARK  status: ('A' for Active; 'I' for Inactive)
REMARK    1  A    between atoms: C_2  and  N_3 
REMARK    2  A    between atoms: C_4  and  S_5 
REMARK    3  A    between atoms: S_5  and  C_6 
REMARK    4  A    between atoms: C_6  and  C_7 
REMARK       I    between atoms: C_7  and  N_8 
REMARK    5  A    between atoms: N_8  and  C_9 
REMARK    6  A    between atoms: C_9  and  C_10 
REMARK    7  A    between atoms: C_10  and  C_11 
REMARK    8  A    between atoms: C_14  and  O_15 
REMARK    9  A    between atoms: C_22  and  C_23 
ROOT
HETATM    1  S   UNL     1      40.970 -12.480   5.663  1.00  0.00    -0.081 SA
ENDROOT
BRANCH   1   2
HETATM    2  C   UNL     1      41.155 -14.196   5.754  1.00  0.00     0.192 A 
HETATM    3  N   UNL     1      42.354 -14.849   5.657  1.00  0.00    -0.308 N 
HETATM    4  C   UNL     1      42.048 -16.195   5.733  1.00  0.00     0.165 A 
HETATM    5  N   UNL     1      40.740 -16.317   5.875  1.00  0.00    -0.128 NA
HETATM    6  N   UNL     1      40.183 -15.063   5.893  1.00  0.00    -0.122 NA
BRANCH   3   7
HETATM    7  C   UNL     1      43.666 -14.265   5.472  1.00  0.00     0.128 C 
HETATM    8  C   UNL     1      44.406 -14.052   6.781  1.00  0.00     0.027 C 
ENDBRANCH   3   7
BRANCH   4   9
HETATM    9  C   UNL     1      42.994 -17.304   5.602  1.00  0.00     0.018 A 
HETATM   10  C   UNL     1      43.611 -17.875   6.736  1.00  0.00    -0.048 A 
HETATM   11  C   UNL     1      43.357 -17.348   8.124  1.00  0.00     0.049 C 
HETATM   12  C   UNL     1      44.514 -18.937   6.565  1.00  0.00     0.007 A 
HETATM   13  C   UNL     1      44.802 -19.431   5.293  1.00  0.00     0.001 A 
HETATM   14  C   UNL     1      44.208 -18.859   4.174  1.00  0.00     0.001 A 
HETATM   15  C   UNL     1      43.315 -17.795   4.327  1.00  0.00     0.016 A 
ENDBRANCH   4   9
ENDBRANCH   1   2
BRANCH   1  16
HETATM   16  C   UNL     1      39.462 -12.269   6.656  1.00  0.00     0.185 C 
BRANCH  16  17
HETATM   17  C   UNL     1      39.713 -11.248   7.754  1.00  0.00     0.227 C 
HETATM   18  N   UNL     1      40.992 -11.270   8.279  1.00  0.00    -0.360 N 
HETATM   19  H   UNL     1      41.581 -12.069   8.077  1.00  0.00     0.162 HD
HETATM   20  O   UNL     1      38.854 -10.451   8.127  1.00  0.00    -0.273 OA
BRANCH  18  21
HETATM   21  C   UNL     1      41.354 -10.436   9.414  1.00  0.00     0.127 C 
BRANCH  21  22
HETATM   22  C   UNL     1      42.591 -10.966  10.140  1.00  0.00     0.058 C 
BRANCH  22  23
HETATM   23  C   UNL     1      42.572 -10.603  11.604  1.00  0.00    -0.057 A 
HETATM   24  C   UNL     1      41.512 -11.005  12.424  1.00  0.00     0.010 A 
HETATM   25  C   UNL     1      41.480 -10.627  13.768  1.00  0.00     0.037 A 
HETATM   26  C   UNL     1      42.497  -9.842  14.314  1.00  0.00     0.068 A 
HETATM   27  C   UNL     1      43.557  -9.443  13.503  1.00  0.00     0.037 A 
HETATM   28  C   UNL     1      43.594  -9.819  12.155  1.00  0.00     0.010 A 
BRANCH  26  29
HETATM   29  O   UNL     1      42.336  -9.536  15.638  1.00  0.00    -0.356 OA
HETATM   30  C   UNL     1      41.028  -9.170  16.058  1.00  0.00     0.210 C 
ENDBRANCH  26  29
ENDBRANCH  22  23
ENDBRANCH  21  22
ENDBRANCH  18  21
ENDBRANCH  16  17
ENDBRANCH   1  16
TORSDOF 9
ENDMDL
MODEL 6
REMARK VINA RESULT:      -7.9      2.504     10.611
REMARK  9 active torsions:
REMARK  status: ('A' for Active; 'I' for Inactive)
REMARK    1  A    between atoms: C_2  and  N_3 
REMARK    2  A    between atoms: C_4  and  S_5 
REMARK    3  A    between atoms: S_5  and  C_6 
REMARK    4  A    between atoms: C_6  and  C_7 
REMARK       I    between atoms: C_7  and  N_8 
REMARK    5  A    between atoms: N_8  and  C_9 
REMARK    6  A    between atoms: C_9  and  C_10 
REMARK    7  A    between atoms: C_10  and  C_11 
REMARK    8  A    between atoms: C_14  and  O_15 
REMARK    9  A    between atoms: C_22  and  C_23 
ROOT
HETATM    1  S   UNL     1      43.960 -12.136   7.837  1.00  0.00    -0.081 SA
ENDROOT
BRANCH   1   2
HETATM    2  C   UNL     1      43.836 -12.074   9.559  1.00  0.00     0.192 A 
HETATM    3  N   UNL     1      43.131 -11.125  10.249  1.00  0.00    -0.308 N 
HETATM    4  C   UNL     1      43.331 -11.416  11.586  1.00  0.00     0.165 A 
HETATM    5  N   UNL     1      44.106 -12.484  11.668  1.00  0.00    -0.128 NA
HETATM    6  N   UNL     1      44.416 -12.898  10.397  1.00  0.00    -0.122 NA
BRANCH   3   7
HETATM    7  C   UNL     1      42.370 -10.021   9.704  1.00  0.00     0.128 C 
HETATM    8  C   UNL     1      40.931 -10.396   9.390  1.00  0.00     0.027 C 
ENDBRANCH   3   7
BRANCH   4   9
HETATM    9  C   UNL     1      42.839 -10.635  12.722  1.00  0.00     0.018 A 
HETATM   10  C   UNL     1      41.553 -10.860  13.259  1.00  0.00    -0.048 A 
HETATM   11  C   UNL     1      40.616 -11.880  12.668  1.00  0.00     0.049 C 
HETATM   12  C   UNL     1      41.119 -10.087  14.348  1.00  0.00     0.007 A 
HETATM   13  C   UNL     1      41.945  -9.108  14.903  1.00  0.00     0.001 A 
HETATM   14  C   UNL     1      43.205  -8.875  14.364  1.00  0.00     0.001 A 
HETATM   15  C   UNL     1      43.647  -9.629  13.274  1.00  0.00     0.016 A 
ENDBRANCH   4   9
ENDBRANCH   1   2
BRANCH   1  16
HETATM   16  C   UNL     1      45.008 -13.608   7.645  1.00  0.00     0.185 C 
BRANCH  16  17
HETATM   17  C   UNL     1      44.334 -14.596   6.707  1.00  0.00     0.227 C 
HETATM   18  N   UNL     1      43.500 -14.019   5.766  1.00  0.00    -0.360 N 
HETATM   19  H   UNL     1      43.223 -13.054   5.896  1.00  0.00     0.162 HD
HETATM   20  O   UNL     1      44.534 -15.808   6.765  1.00  0.00    -0.273 OA
BRANCH  18  21
HETATM   21  C   UNL     1      42.694 -14.836   4.874  1.00  0.00     0.127 C 
BRANCH  21  22
HETATM   22  C   UNL     1      43.312 -14.938   3.479  1.00  0.00     0.058 C 
BRANCH  22  23
HETATM   23  C   UNL     1      43.345 -16.365   2.991  1.00  0.00    -0.057 A 
HETATM   24  C   UNL     1      43.034 -17.421   3.855  1.00  0.00     0.010 A 
HETATM   25  C   UNL     1      43.109 -18.742   3.407  1.00  0.00     0.037 A 
HETATM   26  C   UNL     1      43.499 -19.032   2.098  1.00  0.00     0.068 A 
HETATM   27  C   UNL     1      43.805 -17.984   1.232  1.00  0.00     0.037 A 
HETATM   28  C   UNL     1      43.731 -16.658   1.677  1.00  0.00     0.010 A 
BRANCH  26  29
HETATM   29  O   UNL     1      43.540 -20.366   1.795  1.00  0.00    -0.356 OA
HETATM   30  C   UNL     1      44.391 -21.179   2.593  1.00  0.00     0.210 C 
ENDBRANCH  26  29
ENDBRANCH  22  23
ENDBRANCH  21  22
ENDBRANCH  18  21
ENDBRANCH  16  17
ENDBRANCH   1  16
TORSDOF 9
ENDMDL
MODEL 7
REMARK VINA RESULT:      -7.9      1.863      3.248
REMARK  9 active torsions:
REMARK  status: ('A' for Active; 'I' for Inactive)
REMARK    1  A    between atoms: C_2  and  N_3 
REMARK    2  A    between atoms: C_4  and  S_5 
REMARK    3  A    between atoms: S_5  and  C_6 
REMARK    4  A    between atoms: C_6  and  C_7 
REMARK       I    between atoms: C_7  and  N_8 
REMARK    5  A    between atoms: N_8  and  C_9 
REMARK    6  A    between atoms: C_9  and  C_10 
REMARK    7  A    between atoms: C_10  and  C_11 
REMARK    8  A    between atoms: C_14  and  O_15 
REMARK    9  A    between atoms: C_22  and  C_23 
ROOT
HETATM    1  S   UNL     1      43.148 -13.613   6.258  1.00  0.00    -0.081 SA
ENDROOT
BRANCH   1   2
HETATM    2  C   UNL     1      43.307 -14.607   4.854  1.00  0.00     0.192 A 
HETATM    3  N   UNL     1      43.103 -15.961   4.839  1.00  0.00    -0.308 N 
HETATM    4  C   UNL     1      43.376 -16.361   3.545  1.00  0.00     0.165 A 
HETATM    5  N   UNL     1      43.714 -15.293   2.841  1.00  0.00    -0.128 NA
HETATM    6  N   UNL     1      43.664 -14.195   3.662  1.00  0.00    -0.122 NA
BRANCH   3   7
HETATM    7  C   UNL     1      42.723 -16.809   5.949  1.00  0.00     0.128 C 
HETATM    8  C   UNL     1      41.222 -17.023   6.039  1.00  0.00     0.027 C 
ENDBRANCH   3   7
BRANCH   4   9
HETATM    9  C   UNL     1      43.372 -17.737   3.047  1.00  0.00     0.018 A 
HETATM   10  C   UNL     1      42.388 -18.181   2.137  1.00  0.00    -0.048 A 
HETATM   11  C   UNL     1      41.280 -17.276   1.667  1.00  0.00     0.049 C 
HETATM   12  C   UNL     1      42.420 -19.511   1.687  1.00  0.00     0.007 A 
HETATM   13  C   UNL     1      43.410 -20.390   2.125  1.00  0.00     0.001 A 
HETATM   14  C   UNL     1      44.370 -19.958   3.034  1.00  0.00     0.001 A 
HETATM   15  C   UNL     1      44.346 -18.642   3.499  1.00  0.00     0.016 A 
ENDBRANCH   4   9
ENDBRANCH   1   2
BRANCH   1  16
HETATM   16  C   UNL     1      44.699 -14.020   7.115  1.00  0.00     0.185 C 
BRANCH  16  17
HETATM   17  C   UNL     1      45.032 -12.925   8.115  1.00  0.00     0.227 C 
HETATM   18  N   UNL     1      43.971 -12.528   8.909  1.00  0.00    -0.360 N 
HETATM   19  H   UNL     1      43.037 -12.807   8.637  1.00  0.00     0.162 HD
HETATM   20  O   UNL     1      46.160 -12.449   8.225  1.00  0.00    -0.273 OA
BRANCH  18  21
HETATM   21  C   UNL     1      44.098 -11.413   9.832  1.00  0.00     0.127 C 
BRANCH  21  22
HETATM   22  C   UNL     1      44.092 -11.874  11.290  1.00  0.00     0.058 C 
BRANCH  22  23
HETATM   23  C   UNL     1      43.165 -11.036  12.133  1.00  0.00    -0.057 A 
HETATM   24  C   UNL     1      43.639  -9.901  12.800  1.00  0.00     0.010 A 
HETATM   25  C   UNL     1      42.784  -9.155  13.615  1.00  0.00     0.037 A 
HETATM   26  C   UNL     1      41.449  -9.528  13.781  1.00  0.00     0.068 A 
HETATM   27  C   UNL     1      40.971 -10.655  13.114  1.00  0.00     0.037 A 
HETATM   28  C   UNL     1      41.824 -11.405  12.297  1.00  0.00     0.010 A 
BRANCH  26  29
HETATM   29  O   UNL     1      40.727  -8.716  14.613  1.00  0.00    -0.356 OA
HETATM   30  C   UNL     1      41.345  -7.502  15.020  1.00  0.00     0.210 C 
ENDBRANCH  26  29
ENDBRANCH  22  23
ENDBRANCH  21  22
ENDBRANCH  18  21
ENDBRANCH  16  17
ENDBRANCH   1  16
TORSDOF 9
ENDMDL
MODEL 8
REMARK VINA RESULT:      -7.9      2.289      3.067
REMARK  9 active torsions:
REMARK  status: ('A' for Active; 'I' for Inactive)
REMARK    1  A    between atoms: C_2  and  N_3 
REMARK    2  A    between atoms: C_4  and  S_5 
REMARK    3  A    between atoms: S_5  and  C_6 
REMARK    4  A    between atoms: C_6  and  C_7 
REMARK       I    between atoms: C_7  and  N_8 
REMARK    5  A    between atoms: N_8  and  C_9 
REMARK    6  A    between atoms: C_9  and  C_10 
REMARK    7  A    between atoms: C_10  and  C_11 
REMARK    8  A    between atoms: C_14  and  O_15 
REMARK    9  A    between atoms: C_22  and  C_23 
ROOT
HETATM    1  S   UNL     1      40.023 -12.472   4.549  1.00  0.00    -0.081 SA
ENDROOT
BRANCH   1   2
HETATM    2  C   UNL     1      41.394 -13.508   4.365  1.00  0.00     0.192 A 
HETATM    3  N   UNL     1      41.381 -14.692   3.679  1.00  0.00    -0.308 N 
HETATM    4  C   UNL     1      42.654 -15.213   3.817  1.00  0.00     0.165 A 
HETATM    5  N   UNL     1      43.372 -14.371   4.540  1.00  0.00    -0.128 NA
HETATM    6  N   UNL     1      42.583 -13.301   4.878  1.00  0.00    -0.122 NA
BRANCH   3   7
HETATM    7  C   UNL     1      40.264 -15.299   2.987  1.00  0.00     0.128 C 
HETATM    8  C   UNL     1      40.246 -14.978   1.502  1.00  0.00     0.027 C 
ENDBRANCH   3   7
BRANCH   4   9
HETATM    9  C   UNL     1      43.114 -16.510   3.319  1.00  0.00     0.018 A 
HETATM   10  C   UNL     1      42.972 -17.681   4.094  1.00  0.00    -0.048 A 
HETATM   11  C   UNL     1      42.379 -17.648   5.478  1.00  0.00     0.049 C 
HETATM   12  C   UNL     1      43.430 -18.905   3.578  1.00  0.00     0.007 A 
HETATM   13  C   UNL     1      44.017 -18.972   2.315  1.00  0.00     0.001 A 
HETATM   14  C   UNL     1      44.172 -17.817   1.557  1.00  0.00     0.001 A 
HETATM   15  C   UNL     1      43.731 -16.591   2.060  1.00  0.00     0.016 A 
ENDBRANCH   4   9
ENDBRANCH   1   2
BRANCH   1  16
HETATM   16  C   UNL     1      39.584 -12.828   6.277  1.00  0.00     0.185 C 
BRANCH  16  17
HETATM   17  C   UNL     1      39.918 -11.626   7.146  1.00  0.00     0.227 C 
HETATM   18  N   UNL     1      41.270 -11.422   7.351  1.00  0.00    -0.360 N 
HETATM   19  H   UNL     1      41.910 -12.171   7.118  1.00  0.00     0.162 HD
HETATM   20  O   UNL     1      39.054 -10.882   7.608  1.00  0.00    -0.273 OA
BRANCH  18  21
HETATM   21  C   UNL     1      41.746 -10.385   8.252  1.00  0.00     0.127 C 
BRANCH  21  22
HETATM   22  C   UNL     1      42.970 -10.839   9.049  1.00  0.00     0.058 C 
BRANCH  22  23
HETATM   23  C   UNL     1      42.744 -10.707  10.534  1.00  0.00    -0.057 A 
HETATM   24  C   UNL     1      43.758 -10.225  11.369  1.00  0.00     0.010 A 
HETATM   25  C   UNL     1      43.557 -10.147  12.748  1.00  0.00     0.037 A 
HETATM   26  C   UNL     1      42.347 -10.550  13.318  1.00  0.00     0.068 A 
HETATM   27  C   UNL     1      41.332 -11.026  12.490  1.00  0.00     0.037 A 
HETATM   28  C   UNL     1      41.530 -11.106  11.107  1.00  0.00     0.010 A 
BRANCH  26  29
HETATM   29  O   UNL     1      42.288 -10.430  14.680  1.00  0.00    -0.356 OA
HETATM   30  C   UNL     1      42.412  -9.118  15.215  1.00  0.00     0.210 C 
ENDBRANCH  26  29
ENDBRANCH  22  23
ENDBRANCH  21  22
ENDBRANCH  18  21
ENDBRANCH  16  17
ENDBRANCH   1  16
TORSDOF 9
ENDMDL
MODEL 9
REMARK VINA RESULT:      -7.8      4.595      8.453
REMARK  9 active torsions:
REMARK  status: ('A' for Active; 'I' for Inactive)
REMARK    1  A    between atoms: C_2  and  N_3 
REMARK    2  A    between atoms: C_4  and  S_5 
REMARK    3  A    between atoms: S_5  and  C_6 
REMARK    4  A    between atoms: C_6  and  C_7 
REMARK       I    between atoms: C_7  and  N_8 
REMARK    5  A    between atoms: N_8  and  C_9 
REMARK    6  A    between atoms: C_9  and  C_10 
REMARK    7  A    between atoms: C_10  and  C_11 
REMARK    8  A    between atoms: C_14  and  O_15 
REMARK    9  A    between atoms: C_22  and  C_23 
ROOT
HETATM    1  S   UNL     1      42.692 -13.829   2.759  1.00  0.00    -0.081 SA
ENDROOT
BRANCH   1   2
HETATM    2  C   UNL     1      41.994 -13.535   1.206  1.00  0.00     0.192 A 
HETATM    3  N   UNL     1      41.124 -14.384   0.577  1.00  0.00    -0.308 N 
HETATM    4  C   UNL     1      40.852 -13.795  -0.644  1.00  0.00     0.165 A 
HETATM    5  N   UNL     1      41.523 -12.659  -0.717  1.00  0.00    -0.128 NA
HETATM    6  N   UNL     1      42.233 -12.494   0.446  1.00  0.00    -0.122 NA
BRANCH   3   7
HETATM    7  C   UNL     1      40.623 -15.652   1.061  1.00  0.00     0.128 C 
HETATM    8  C   UNL     1      41.521 -16.820   0.691  1.00  0.00     0.027 C 
ENDBRANCH   3   7
BRANCH   4   9
HETATM    9  C   UNL     1      40.026 -14.362  -1.711  1.00  0.00     0.018 A 
HETATM   10  C   UNL     1      38.657 -14.038  -1.824  1.00  0.00    -0.048 A 
HETATM   11  C   UNL     1      37.974 -13.129  -0.836  1.00  0.00     0.049 C 
HETATM   12  C   UNL     1      37.901 -14.607  -2.862  1.00  0.00     0.007 A 
HETATM   13  C   UNL     1      38.488 -15.481  -3.778  1.00  0.00     0.001 A 
HETATM   14  C   UNL     1      39.833 -15.813  -3.657  1.00  0.00     0.001 A 
HETATM   15  C   UNL     1      40.596 -15.264  -2.624  1.00  0.00     0.016 A 
ENDBRANCH   4   9
ENDBRANCH   1   2
BRANCH   1  16
HETATM   16  C   UNL     1      41.298 -13.366   3.830  1.00  0.00     0.185 C 
BRANCH  16  17
HETATM   17  C   UNL     1      40.901 -14.553   4.693  1.00  0.00     0.227 C 
HETATM   18  N   UNL     1      41.850 -15.557   4.762  1.00  0.00    -0.360 N 
HETATM   19  H   UNL     1      42.608 -15.549   4.091  1.00  0.00     0.162 HD
HETATM   20  O   UNL     1      39.832 -14.603   5.299  1.00  0.00    -0.273 OA
BRANCH  18  21
HETATM   21  C   UNL     1      41.573 -16.807   5.452  1.00  0.00     0.127 C 
BRANCH  21  22
HETATM   22  C   UNL     1      42.842 -17.431   6.032  1.00  0.00     0.058 C 
BRANCH  22  23
HETATM   23  C   UNL     1      43.442 -18.445   5.091  1.00  0.00    -0.057 A 
HETATM   24  C   UNL     1      43.053 -18.487   3.747  1.00  0.00     0.010 A 
HETATM   25  C   UNL     1      43.580 -19.458   2.892  1.00  0.00     0.037 A 
HETATM   26  C   UNL     1      44.496 -20.402   3.360  1.00  0.00     0.068 A 
HETATM   27  C   UNL     1      44.890 -20.361   4.697  1.00  0.00     0.037 A 
HETATM   28  C   UNL     1      44.365 -19.390   5.557  1.00  0.00     0.010 A 
BRANCH  26  29
HETATM   29  O   UNL     1      44.924 -21.299   2.421  1.00  0.00    -0.356 OA
HETATM   30  C   UNL     1      43.938 -21.830   1.544  1.00  0.00     0.210 C 
ENDBRANCH  26  29
ENDBRANCH  22  23
ENDBRANCH  21  22
ENDBRANCH  18  21
ENDBRANCH  16  17
ENDBRANCH   1  16
TORSDOF 9
ENDMDL
MODEL 10
REMARK VINA RESULT:      -7.8      4.296      7.925
REMARK  9 active torsions:
REMARK  status: ('A' for Active; 'I' for Inactive)
REMARK    1  A    between atoms: C_2  and  N_3 
REMARK    2  A    between atoms: C_4  and  S_5 
REMARK    3  A    between atoms: S_5  and  C_6 
REMARK    4  A    between atoms: C_6  and  C_7 
REMARK       I    between atoms: C_7  and  N_8 
REMARK    5  A    between atoms: N_8  and  C_9 
REMARK    6  A    between atoms: C_9  and  C_10 
REMARK    7  A    between atoms: C_10  and  C_11 
REMARK    8  A    between atoms: C_14  and  O_15 
REMARK    9  A    between atoms: C_22  and  C_23 
ROOT
HETATM    1  S   UNL     1      41.923 -14.056   4.455  1.00  0.00    -0.081 SA
ENDROOT
BRANCH   1   2
HETATM    2  C   UNL     1      41.220 -14.726   3.027  1.00  0.00     0.192 A 
HETATM    3  N   UNL     1      41.300 -14.155   1.785  1.00  0.00    -0.308 N 
HETATM    4  C   UNL     1      40.572 -14.982   0.950  1.00  0.00     0.165 A 
HETATM    5  N   UNL     1      40.100 -15.987   1.669  1.00  0.00    -0.128 NA
HETATM    6  N   UNL     1      40.512 -15.828   2.968  1.00  0.00    -0.122 NA
BRANCH   3   7
HETATM    7  C   UNL     1      41.967 -12.923   1.422  1.00  0.00     0.128 C 
HETATM    8  C   UNL     1      41.079 -11.702   1.586  1.00  0.00     0.027 C 
ENDBRANCH   3   7
BRANCH   4   9
HETATM    9  C   UNL     1      40.300 -14.753  -0.469  1.00  0.00     0.018 A 
HETATM   10  C   UNL     1      39.171 -14.014  -0.885  1.00  0.00    -0.048 A 
HETATM   11  C   UNL     1      38.178 -13.463   0.103  1.00  0.00     0.049 C 
HETATM   12  C   UNL     1      38.947 -13.820  -2.258  1.00  0.00     0.007 A 
HETATM   13  C   UNL     1      39.825 -14.344  -3.207  1.00  0.00     0.001 A 
HETATM   14  C   UNL     1      40.928 -15.085  -2.798  1.00  0.00     0.001 A 
HETATM   15  C   UNL     1      41.159 -15.297  -1.437  1.00  0.00     0.016 A 
ENDBRANCH   4   9
ENDBRANCH   1   2
BRANCH   1  16
HETATM   16  C   UNL     1      40.718 -14.613   5.697  1.00  0.00     0.185 C 
BRANCH  16  17
HETATM   17  C   UNL     1      41.166 -15.942   6.283  1.00  0.00     0.227 C 
HETATM   18  N   UNL     1      42.458 -15.947   6.777  1.00  0.00    -0.360 N 
HETATM   19  H   UNL     1      43.071 -15.182   6.526  1.00  0.00     0.162 HD
HETATM   20  O   UNL     1      40.429 -16.925   6.335  1.00  0.00    -0.273 OA
BRANCH  18  21
HETATM   21  C   UNL     1      43.072 -17.171   7.264  1.00  0.00     0.127 C 
BRANCH  21  22
HETATM   22  C   UNL     1      44.432 -17.425   6.612  1.00  0.00     0.058 C 
BRANCH  22  23
HETATM   23  C   UNL     1      44.296 -18.222   5.339  1.00  0.00    -0.057 A 
HETATM   24  C   UNL     1      43.620 -17.692   4.235  1.00  0.00     0.010 A 
HETATM   25  C   UNL     1      43.461 -18.453   3.075  1.00  0.00     0.037 A 
HETATM   26  C   UNL     1      43.966 -19.752   2.997  1.00  0.00     0.068 A 
HETATM   27  C   UNL     1      44.645 -20.283   4.092  1.00  0.00     0.037 A 
HETATM   28  C   UNL     1      44.808 -19.524   5.257  1.00  0.00     0.010 A 
BRANCH  26  29
HETATM   29  O   UNL     1      43.731 -20.387   1.808  1.00  0.00    -0.356 OA
HETATM   30  C   UNL     1      43.943 -21.793   1.779  1.00  0.00     0.210 C 
ENDBRANCH  26  29
ENDBRANCH  22  23
ENDBRANCH  21  22
ENDBRANCH  18  21
ENDBRANCH  16  17
ENDBRANCH   1  16
TORSDOF 9
ENDMDL
