MODEL 1
REMARK VINA RESULT:      -9.5      0.000      0.000
REMARK  8 active torsions:
REMARK  status: ('A' for Active; 'I' for Inactive)
REMARK    1  A    between atoms: C_4  and  N_5 
REMARK       I    between atoms: N_5  and  C_6 
REMARK    2  A    between atoms: C_6  and  C_7 
REMARK    3  A    between atoms: C_10  and  N_11 
REMARK       I    between atoms: N_11  and  C_12 
REMARK       I    between atoms: C_12  and  N_21 
REMARK    4  A    between atoms: N_21  and  CA_22 
REMARK    5  A    between atoms: CA_22  and  C_23 
REMARK    6  A    between atoms: CA_22  and  CB_25 
REMARK    7  A    between atoms: C_23  and  O_24 
REMARK    8  A    between atoms: CB_25  and  CG_26 
ROOT
HETATM    1  N   UNK A   0      42.244 -14.682   4.925  1.00  0.00    -0.309 N 
HETATM    2  C   UNK A   0      42.677 -14.983   3.653  1.00  0.00     0.321 C 
HETATM    3  O   UNK A   0      43.429 -14.317   2.954  1.00  0.00    -0.247 OA
HETATM    4  H   UNK A   0      41.405 -15.161   5.213  1.00  0.00     0.170 HD
ATOM      5  N   TRP A   1      42.148 -16.191   3.251  1.00  0.00    -0.336 N 
ATOM      6  H   TRP A   1      41.996 -16.848   4.007  1.00  0.00     0.164 HD
ENDROOT
BRANCH   1   7
HETATM    7  C   UNK A   0      42.876 -13.858   5.870  1.00  0.00     0.036 A 
HETATM    8  C   UNK A   0      44.031 -14.226   6.559  1.00  0.00     0.030 A 
HETATM    9  C   UNK A   0      44.486 -13.467   7.646  1.00  0.00     0.019 A 
HETATM   10  C   UNK A   0      43.804 -12.309   8.039  1.00  0.00     0.032 A 
HETATM   11  C   UNK A   0      42.693 -11.899   7.290  1.00  0.00     0.019 A 
HETATM   12  C   UNK A   0      42.231 -12.668   6.216  1.00  0.00     0.030 A 
BRANCH  10  13
HETATM   13  C   UNK A   0      44.115 -11.553   9.297  1.00  0.00     0.256 C 
HETATM   14  N   UNK A   0      43.233 -11.714  10.352  1.00  0.00    -0.323 N 
HETATM   15  H   UNK A   0      42.599 -12.498  10.322  1.00  0.00     0.169 HD
HETATM   16  O   UNK A   0      45.107 -10.830   9.306  1.00  0.00    -0.267 OA
BRANCH  14  17
HETATM   17  C   UNK A   0      43.110 -10.881  11.485  1.00  0.00     0.035 A 
HETATM   18  C   UNK A   0      43.200  -9.487  11.440  1.00  0.00     0.029 A 
HETATM   19  C   UNK A   0      43.000  -8.724  12.595  1.00  0.00     0.002 A 
HETATM   20  C   UNK A   0      42.708  -9.347  13.804  1.00  0.00     0.000 A 
HETATM   21  C   UNK A   0      42.619 -10.735  13.862  1.00  0.00     0.002 A 
HETATM   22  C   UNK A   0      42.817 -11.498  12.708  1.00  0.00     0.029 A 
ENDBRANCH  14  17
ENDBRANCH  10  13
ENDBRANCH   1   7
BRANCH   5  23
ATOM     23  CA  TRP A   1      42.605 -16.857   2.033  1.00  0.00     0.114 C 
BRANCH  23  24
ATOM     24  C   TRP A   1      41.518 -17.838   1.548  1.00  0.00     0.189 C 
BRANCH  24  25
ATOM     25  O   TRP A   1      40.601 -17.209   0.652  1.00  0.00    -0.399 OA
ATOM     26  H   TRP A   1      40.146 -16.514   1.159  1.00  0.00     0.209 HD
ENDBRANCH  24  25
ENDBRANCH  23  24
BRANCH  23  27
ATOM     27  CB  TRP A   1      44.003 -17.515   2.161  1.00  0.00     0.068 C 
BRANCH  27  28
ATOM     28  CG  TRP A   1      44.204 -18.472   3.304  1.00  0.00    -0.028 A 
ATOM     29  CD2 TRP A   1      44.317 -19.901   3.207  1.00  0.00    -0.002 A 
ATOM     30  CE2 TRP A   1      44.488 -20.400   4.498  1.00  0.00     0.042 A 
ATOM     31  CE3 TRP A   1      44.285 -20.820   2.137  1.00  0.00     0.014 A 
ATOM     32  CZ2 TRP A   1      44.645 -21.765   4.771  1.00  0.00     0.030 A 
ATOM     33  NE1 TRP A   1      44.460 -19.324   5.352  1.00  0.00    -0.365 N 
ATOM     34  CH2 TRP A   1      44.617 -22.652   3.692  1.00  0.00     0.002 A 
ATOM     35  CZ3 TRP A   1      44.434 -22.189   2.392  1.00  0.00     0.001 A 
ATOM     36  HE1 TRP A   1      44.554 -19.388   6.355  1.00  0.00     0.165 HD
ATOM     37  CD1 TRP A   1      44.270 -18.166   4.649  1.00  0.00     0.096 A 
ENDBRANCH  27  28
ENDBRANCH  23  27
ENDBRANCH   5  23
TORSDOF 8
ENDMDL
MODEL 2
REMARK VINA RESULT:      -9.4      2.546     10.955
REMARK  8 active torsions:
REMARK  status: ('A' for Active; 'I' for Inactive)
REMARK    1  A    between atoms: C_4  and  N_5 
REMARK       I    between atoms: N_5  and  C_6 
REMARK    2  A    between atoms: C_6  and  C_7 
REMARK    3  A    between atoms: C_10  and  N_11 
REMARK       I    between atoms: N_11  and  C_12 
REMARK       I    between atoms: C_12  and  N_21 
REMARK    4  A    between atoms: N_21  and  CA_22 
REMARK    5  A    between atoms: CA_22  and  C_23 
REMARK    6  A    between atoms: CA_22  and  CB_25 
REMARK    7  A    between atoms: C_23  and  O_24 
REMARK    8  A    between atoms: CB_25  and  CG_26 
ROOT
HETATM    1  N   UNK A   0      41.598 -11.932   4.990  1.00  0.00    -0.309 N 
HETATM    2  C   UNK A   0      41.009 -11.454   6.138  1.00  0.00     0.321 C 
HETATM    3  O   UNK A   0      40.189 -12.031   6.840  1.00  0.00    -0.247 OA
HETATM    4  H   UNK A   0      41.988 -11.225   4.386  1.00  0.00     0.170 HD
ATOM      5  N   TRP A   1      41.490 -10.194   6.423  1.00  0.00    -0.336 N 
ATOM      6  H   TRP A   1      42.446 -10.040   6.128  1.00  0.00     0.164 HD
ENDROOT
BRANCH   1   7
HETATM    7  C   UNK A   0      41.779 -13.274   4.616  1.00  0.00     0.036 A 
HETATM    8  C   UNK A   0      40.739 -14.099   4.191  1.00  0.00     0.030 A 
HETATM    9  C   UNK A   0      40.935 -15.480   4.049  1.00  0.00     0.019 A 
HETATM   10  C   UNK A   0      42.190 -16.048   4.303  1.00  0.00     0.032 A 
HETATM   11  C   UNK A   0      43.252 -15.201   4.649  1.00  0.00     0.019 A 
HETATM   12  C   UNK A   0      43.048 -13.826   4.806  1.00  0.00     0.030 A 
BRANCH  10  13
HETATM   13  C   UNK A   0      42.432 -17.528   4.357  1.00  0.00     0.256 C 
HETATM   14  N   UNK A   0      43.620 -17.983   3.813  1.00  0.00    -0.323 N 
HETATM   15  H   UNK A   0      44.354 -17.310   3.651  1.00  0.00     0.169 HD
HETATM   16  O   UNK A   0      41.562 -18.237   4.855  1.00  0.00    -0.267 OA
BRANCH  14  17
HETATM   17  C   UNK A   0      43.926 -19.310   3.440  1.00  0.00     0.035 A 
HETATM   18  C   UNK A   0      44.607 -20.212   4.262  1.00  0.00     0.029 A 
HETATM   19  C   UNK A   0      44.815 -21.532   3.850  1.00  0.00     0.002 A 
HETATM   20  C   UNK A   0      44.344 -21.962   2.613  1.00  0.00     0.000 A 
HETATM   21  C   UNK A   0      43.667 -21.072   1.784  1.00  0.00     0.002 A 
HETATM   22  C   UNK A   0      43.458 -19.753   2.196  1.00  0.00     0.029 A 
ENDBRANCH  14  17
ENDBRANCH  10  13
ENDBRANCH   1   7
BRANCH   5  23
ATOM     23  CA  TRP A   1      41.198  -9.535   7.695  1.00  0.00     0.114 C 
BRANCH  23  24
ATOM     24  C   TRP A   1      41.180  -8.007   7.486  1.00  0.00     0.189 C 
BRANCH  24  25
ATOM     25  O   TRP A   1      42.013  -7.612   6.396  1.00  0.00    -0.399 OA
ATOM     26  H   TRP A   1      42.721  -8.277   6.329  1.00  0.00     0.209 HD
ENDBRANCH  24  25
ENDBRANCH  23  24
BRANCH  23  27
ATOM     27  CB  TRP A   1      42.119  -9.978   8.860  1.00  0.00     0.068 C 
BRANCH  27  28
ATOM     28  CG  TRP A   1      41.453 -10.339  10.158  1.00  0.00    -0.028 A 
ATOM     29  CD2 TRP A   1      42.004 -10.167  11.474  1.00  0.00    -0.002 A 
ATOM     30  CE2 TRP A   1      41.063 -10.636  12.391  1.00  0.00     0.042 A 
ATOM     31  CE3 TRP A   1      43.221  -9.658  11.971  1.00  0.00     0.014 A 
ATOM     32  CZ2 TRP A   1      41.270 -10.605  13.776  1.00  0.00     0.030 A 
ATOM     33  NE1 TRP A   1      39.989 -11.094  11.666  1.00  0.00    -0.365 N 
ATOM     34  CH2 TRP A   1      42.482 -10.089  14.241  1.00  0.00     0.002 A 
ATOM     35  CZ3 TRP A   1      43.449  -9.627  13.353  1.00  0.00     0.001 A 
ATOM     36  HE1 TRP A   1      39.157 -11.498  12.070  1.00  0.00     0.165 HD
ATOM     37  CD1 TRP A   1      40.221 -10.940  10.326  1.00  0.00     0.096 A 
ENDBRANCH  27  28
ENDBRANCH  23  27
ENDBRANCH   5  23
TORSDOF 8
ENDMDL
MODEL 3
REMARK VINA RESULT:      -9.2      1.540      1.841
REMARK  8 active torsions:
REMARK  status: ('A' for Active; 'I' for Inactive)
REMARK    1  A    between atoms: C_4  and  N_5 
REMARK       I    between atoms: N_5  and  C_6 
REMARK    2  A    between atoms: C_6  and  C_7 
REMARK    3  A    between atoms: C_10  and  N_11 
REMARK       I    between atoms: N_11  and  C_12 
REMARK       I    between atoms: C_12  and  N_21 
REMARK    4  A    between atoms: N_21  and  CA_22 
REMARK    5  A    between atoms: CA_22  and  C_23 
REMARK    6  A    between atoms: CA_22  and  CB_25 
REMARK    7  A    between atoms: C_23  and  O_24 
REMARK    8  A    between atoms: CB_25  and  CG_26 
ROOT
HETATM    1  N   UNK A   0      41.166 -13.764   3.940  1.00  0.00    -0.309 N 
HETATM    2  C   UNK A   0      41.819 -14.127   2.783  1.00  0.00     0.321 C 
HETATM    3  O   UNK A   0      42.720 -13.515   2.224  1.00  0.00    -0.247 OA
HETATM    4  H   UNK A   0      40.266 -14.199   4.074  1.00  0.00     0.170 HD
ATOM      5  N   TRP A   1      41.322 -15.326   2.320  1.00  0.00    -0.336 N 
ATOM      6  H   TRP A   1      41.000 -15.950   3.050  1.00  0.00     0.164 HD
ENDROOT
BRANCH   1   7
HETATM    7  C   UNK A   0      41.642 -12.932   4.966  1.00  0.00     0.036 A 
HETATM    8  C   UNK A   0      42.674 -13.295   5.830  1.00  0.00     0.030 A 
HETATM    9  C   UNK A   0      42.954 -12.528   6.970  1.00  0.00     0.019 A 
HETATM   10  C   UNK A   0      42.220 -11.367   7.242  1.00  0.00     0.032 A 
HETATM   11  C   UNK A   0      41.240 -10.963   6.325  1.00  0.00     0.019 A 
HETATM   12  C   UNK A   0      40.951 -11.740   5.198  1.00  0.00     0.030 A 
BRANCH  10  13
HETATM   13  C   UNK A   0      42.330 -10.601   8.528  1.00  0.00     0.256 C 
HETATM   14  N   UNK A   0      42.674 -11.327   9.655  1.00  0.00    -0.323 N 
HETATM   15  H   UNK A   0      43.075 -12.243   9.523  1.00  0.00     0.169 HD
HETATM   16  O   UNK A   0      42.090  -9.398   8.505  1.00  0.00    -0.267 OA
BRANCH  14  17
HETATM   17  C   UNK A   0      42.514 -10.927  11.000  1.00  0.00     0.035 A 
HETATM   18  C   UNK A   0      41.387 -11.222  11.770  1.00  0.00     0.029 A 
HETATM   19  C   UNK A   0      41.329 -10.849  13.117  1.00  0.00     0.002 A 
HETATM   20  C   UNK A   0      42.396 -10.179  13.705  1.00  0.00     0.000 A 
HETATM   21  C   UNK A   0      43.524  -9.876  12.946  1.00  0.00     0.002 A 
HETATM   22  C   UNK A   0      43.583 -10.249  11.600  1.00  0.00     0.029 A 
ENDBRANCH  14  17
ENDBRANCH  10  13
ENDBRANCH   1   7
BRANCH   5  23
ATOM     23  CA  TRP A   1      41.973 -16.052   1.231  1.00  0.00     0.114 C 
BRANCH  23  24
ATOM     24  C   TRP A   1      41.355 -15.618  -0.113  1.00  0.00     0.189 C 
BRANCH  24  25
ATOM     25  O   TRP A   1      42.083 -14.542  -0.707  1.00  0.00    -0.399 OA
ATOM     26  H   TRP A   1      43.023 -14.794  -0.685  1.00  0.00     0.209 HD
ENDBRANCH  24  25
ENDBRANCH  23  24
BRANCH  23  27
ATOM     27  CB  TRP A   1      41.991 -17.590   1.422  1.00  0.00     0.068 C 
BRANCH  27  28
ATOM     28  CG  TRP A   1      42.895 -18.135   2.492  1.00  0.00    -0.028 A 
ATOM     29  CD2 TRP A   1      43.424 -19.469   2.562  1.00  0.00    -0.002 A 
ATOM     30  CE2 TRP A   1      44.207 -19.554   3.714  1.00  0.00     0.042 A 
ATOM     31  CE3 TRP A   1      43.305 -20.618   1.752  1.00  0.00     0.014 A 
ATOM     32  CZ2 TRP A   1      44.888 -20.720   4.085  1.00  0.00     0.030 A 
ATOM     33  NE1 TRP A   1      44.143 -18.330   4.333  1.00  0.00    -0.365 N 
ATOM     34  CH2 TRP A   1      44.759 -21.841   3.260  1.00  0.00     0.002 A 
ATOM     35  CZ3 TRP A   1      43.974 -21.794   2.111  1.00  0.00     0.001 A 
ATOM     36  HE1 TRP A   1      44.612 -18.102   5.198  1.00  0.00     0.165 HD
ATOM     37  CD1 TRP A   1      43.343 -17.478   3.621  1.00  0.00     0.096 A 
ENDBRANCH  27  28
ENDBRANCH  23  27
ENDBRANCH   5  23
TORSDOF 8
ENDMDL
MODEL 4
REMARK VINA RESULT:      -9.1      2.537     11.141
REMARK  8 active torsions:
REMARK  status: ('A' for Active; 'I' for Inactive)
REMARK    1  A    between atoms: C_4  and  N_5 
REMARK       I    between atoms: N_5  and  C_6 
REMARK    2  A    between atoms: C_6  and  C_7 
REMARK    3  A    between atoms: C_10  and  N_11 
REMARK       I    between atoms: N_11  and  C_12 
REMARK       I    between atoms: C_12  and  N_21 
REMARK    4  A    between atoms: N_21  and  CA_22 
REMARK    5  A    between atoms: CA_22  and  C_23 
REMARK    6  A    between atoms: CA_22  and  CB_25 
REMARK    7  A    between atoms: C_23  and  O_24 
REMARK    8  A    between atoms: CB_25  and  CG_26 
ROOT
HETATM    1  N   UNK A   0      41.539 -12.338   6.268  1.00  0.00    -0.309 N 
HETATM    2  C   UNK A   0      40.370 -11.958   6.888  1.00  0.00     0.321 C 
HETATM    3  O   UNK A   0      39.229 -12.209   6.524  1.00  0.00    -0.247 OA
HETATM    4  H   UNK A   0      42.349 -11.790   6.516  1.00  0.00     0.170 HD
ATOM      5  N   TRP A   1      40.656 -11.241   8.030  1.00  0.00    -0.336 N 
ATOM      6  H   TRP A   1      41.518 -11.515   8.487  1.00  0.00     0.164 HD
ENDROOT
BRANCH   1   7
HETATM    7  C   UNK A   0      41.736 -13.430   5.409  1.00  0.00     0.036 A 
HETATM    8  C   UNK A   0      41.198 -14.696   5.641  1.00  0.00     0.030 A 
HETATM    9  C   UNK A   0      41.609 -15.798   4.878  1.00  0.00     0.019 A 
HETATM   10  C   UNK A   0      42.545 -15.638   3.849  1.00  0.00     0.032 A 
HETATM   11  C   UNK A   0      43.019 -14.350   3.566  1.00  0.00     0.019 A 
HETATM   12  C   UNK A   0      42.619 -13.255   4.340  1.00  0.00     0.030 A 
BRANCH  10  13
HETATM   13  C   UNK A   0      43.173 -16.788   3.117  1.00  0.00     0.256 C 
HETATM   14  N   UNK A   0      42.758 -18.057   3.481  1.00  0.00    -0.323 N 
HETATM   15  H   UNK A   0      41.903 -18.141   4.009  1.00  0.00     0.169 HD
HETATM   16  O   UNK A   0      44.021 -16.536   2.266  1.00  0.00    -0.267 OA
BRANCH  14  17
HETATM   17  C   UNK A   0      43.416 -19.275   3.201  1.00  0.00     0.035 A 
HETATM   18  C   UNK A   0      44.326 -19.884   4.068  1.00  0.00     0.029 A 
HETATM   19  C   UNK A   0      44.887 -21.125   3.752  1.00  0.00     0.002 A 
HETATM   20  C   UNK A   0      44.544 -21.768   2.567  1.00  0.00     0.000 A 
HETATM   21  C   UNK A   0      43.641 -21.169   1.693  1.00  0.00     0.002 A 
HETATM   22  C   UNK A   0      43.079 -19.929   2.010  1.00  0.00     0.029 A 
ENDBRANCH  14  17
ENDBRANCH  10  13
ENDBRANCH   1   7
BRANCH   5  23
ATOM     23  CA  TRP A   1      39.614 -10.895   8.995  1.00  0.00     0.114 C 
BRANCH  23  24
ATOM     24  C   TRP A   1      39.170  -9.436   8.767  1.00  0.00     0.189 C 
BRANCH  24  25
ATOM     25  O   TRP A   1      38.396  -9.299   7.574  1.00  0.00    -0.399 OA
ATOM     26  H   TRP A   1      37.681  -9.957   7.628  1.00  0.00     0.209 HD
ENDBRANCH  24  25
ENDBRANCH  23  24
BRANCH  23  27
ATOM     27  CB  TRP A   1      39.996 -11.190  10.468  1.00  0.00     0.068 C 
BRANCH  27  28
ATOM     28  CG  TRP A   1      41.291 -10.610  10.966  1.00  0.00    -0.028 A 
ATOM     29  CD2 TRP A   1      41.609 -10.283  12.329  1.00  0.00    -0.002 A 
ATOM     30  CE2 TRP A   1      42.904  -9.767  12.349  1.00  0.00     0.042 A 
ATOM     31  CE3 TRP A   1      40.910 -10.376  13.550  1.00  0.00     0.014 A 
ATOM     32  CZ2 TRP A   1      43.541  -9.356  13.527  1.00  0.00     0.030 A 
ATOM     33  NE1 TRP A   1      43.354  -9.759  11.050  1.00  0.00    -0.365 N 
ATOM     34  CH2 TRP A   1      42.828  -9.465  14.724  1.00  0.00     0.002 A 
ATOM     35  CZ3 TRP A   1      41.528  -9.962  14.737  1.00  0.00     0.001 A 
ATOM     36  HE1 TRP A   1      44.263  -9.429  10.762  1.00  0.00     0.165 HD
ATOM     37  CD1 TRP A   1      42.387 -10.243  10.211  1.00  0.00     0.096 A 
ENDBRANCH  27  28
ENDBRANCH  23  27
ENDBRANCH   5  23
TORSDOF 8
ENDMDL
MODEL 5
REMARK VINA RESULT:      -9.1      2.891     11.165
REMARK  8 active torsions:
REMARK  status: ('A' for Active; 'I' for Inactive)
REMARK    1  A    between atoms: C_4  and  N_5 
REMARK       I    between atoms: N_5  and  C_6 
REMARK    2  A    between atoms: C_6  and  C_7 
REMARK    3  A    between atoms: C_10  and  N_11 
REMARK       I    between atoms: N_11  and  C_12 
REMARK       I    between atoms: C_12  and  N_21 
REMARK    4  A    between atoms: N_21  and  CA_22 
REMARK    5  A    between atoms: CA_22  and  C_23 
REMARK    6  A    between atoms: CA_22  and  CB_25 
REMARK    7  A    between atoms: C_23  and  O_24 
REMARK    8  A    between atoms: CB_25  and  CG_26 
ROOT
HETATM    1  N   UNK A   0      43.574 -15.037   7.007  1.00  0.00    -0.309 N 
HETATM    2  C   UNK A   0      44.432 -13.961   7.048  1.00  0.00     0.321 C 
HETATM    3  O   UNK A   0      45.074 -13.496   6.117  1.00  0.00    -0.247 OA
HETATM    4  H   UNK A   0      43.388 -15.467   7.900  1.00  0.00     0.170 HD
ATOM      5  N   TRP A   1      44.468 -13.439   8.323  1.00  0.00    -0.336 N 
ATOM      6  H   TRP A   1      43.599 -13.536   8.835  1.00  0.00     0.164 HD
ENDROOT
BRANCH   1   7
HETATM    7  C   UNK A   0      42.884 -15.538   5.891  1.00  0.00     0.036 A 
HETATM    8  C   UNK A   0      43.442 -16.440   4.985  1.00  0.00     0.030 A 
HETATM    9  C   UNK A   0      42.796 -16.730   3.776  1.00  0.00     0.019 A 
HETATM   10  C   UNK A   0      41.562 -16.141   3.472  1.00  0.00     0.032 A 
HETATM   11  C   UNK A   0      40.967 -15.301   4.423  1.00  0.00     0.019 A 
HETATM   12  C   UNK A   0      41.623 -15.000   5.622  1.00  0.00     0.030 A 
BRANCH  10  13
HETATM   13  C   UNK A   0      40.902 -16.251   2.129  1.00  0.00     0.256 C 
HETATM   14  N   UNK A   0      41.394 -15.434   1.126  1.00  0.00    -0.323 N 
HETATM   15  H   UNK A   0      42.302 -15.014   1.261  1.00  0.00     0.169 HD
HETATM   16  O   UNK A   0      39.963 -17.033   2.010  1.00  0.00    -0.267 OA
BRANCH  14  17
HETATM   17  C   UNK A   0      40.753 -15.105  -0.088  1.00  0.00     0.035 A 
HETATM   18  C   UNK A   0      39.735 -14.154  -0.198  1.00  0.00     0.029 A 
HETATM   19  C   UNK A   0      39.193 -13.833  -1.446  1.00  0.00     0.002 A 
HETATM   20  C   UNK A   0      39.663 -14.459  -2.596  1.00  0.00     0.000 A 
HETATM   21  C   UNK A   0      40.675 -15.411  -2.499  1.00  0.00     0.002 A 
HETATM   22  C   UNK A   0      41.218 -15.731  -1.251  1.00  0.00     0.029 A 
ENDBRANCH  14  17
ENDBRANCH  10  13
ENDBRANCH   1   7
BRANCH   5  23
ATOM     23  CA  TRP A   1      45.130 -12.167   8.608  1.00  0.00     0.114 C 
BRANCH  23  24
ATOM     24  C   TRP A   1      46.637 -12.296   8.310  1.00  0.00     0.189 C 
BRANCH  24  25
ATOM     25  O   TRP A   1      47.199 -11.056   7.880  1.00  0.00    -0.399 OA
ATOM     26  H   TRP A   1      46.958 -10.392   8.549  1.00  0.00     0.209 HD
ENDBRANCH  24  25
ENDBRANCH  23  24
BRANCH  23  27
ATOM     27  CB  TRP A   1      44.837 -11.608  10.025  1.00  0.00     0.068 C 
BRANCH  27  28
ATOM     28  CG  TRP A   1      43.643 -10.707  10.170  1.00  0.00    -0.028 A 
ATOM     29  CD2 TRP A   1      43.242 -10.009  11.360  1.00  0.00    -0.002 A 
ATOM     30  CE2 TRP A   1      42.082  -9.295  11.062  1.00  0.00     0.042 A 
ATOM     31  CE3 TRP A   1      43.760  -9.923  12.670  1.00  0.00     0.014 A 
ATOM     32  CZ2 TRP A   1      41.425  -8.487  11.999  1.00  0.00     0.030 A 
ATOM     33  NE1 TRP A   1      41.774  -9.560   9.750  1.00  0.00    -0.365 N 
ATOM     34  CH2 TRP A   1      41.964  -8.413  13.287  1.00  0.00     0.002 A 
ATOM     35  CZ3 TRP A   1      43.112  -9.125  13.622  1.00  0.00     0.001 A 
ATOM     36  HE1 TRP A   1      40.975  -9.180   9.263  1.00  0.00     0.165 HD
ATOM     37  CD1 TRP A   1      42.690 -10.421   9.211  1.00  0.00     0.096 A 
ENDBRANCH  27  28
ENDBRANCH  23  27
ENDBRANCH   5  23
TORSDOF 8
ENDMDL
MODEL 6
REMARK VINA RESULT:      -9.0      3.306      4.729
REMARK  8 active torsions:
REMARK  status: ('A' for Active; 'I' for Inactive)
REMARK    1  A    between atoms: C_4  and  N_5 
REMARK       I    between atoms: N_5  and  C_6 
REMARK    2  A    between atoms: C_6  and  C_7 
REMARK    3  A    between atoms: C_10  and  N_11 
REMARK       I    between atoms: N_11  and  C_12 
REMARK       I    between atoms: C_12  and  N_21 
REMARK    4  A    between atoms: N_21  and  CA_22 
REMARK    5  A    between atoms: CA_22  and  C_23 
REMARK    6  A    between atoms: CA_22  and  CB_25 
REMARK    7  A    between atoms: C_23  and  O_24 
REMARK    8  A    between atoms: CB_25  and  CG_26 
ROOT
HETATM    1  N   UNK A   0      41.597 -17.848   3.043  1.00  0.00    -0.309 N 
HETATM    2  C   UNK A   0      42.827 -18.225   2.551  1.00  0.00     0.321 C 
HETATM    3  O   UNK A   0      43.741 -17.486   2.211  1.00  0.00    -0.247 OA
HETATM    4  H   UNK A   0      40.876 -18.550   2.968  1.00  0.00     0.170 HD
ATOM      5  N   TRP A   1      42.912 -19.600   2.501  1.00  0.00    -0.336 N 
ATOM      6  H   TRP A   1      42.382 -20.073   3.223  1.00  0.00     0.164 HD
ENDROOT
BRANCH   1   7
HETATM    7  C   UNK A   0      41.267 -16.649   3.694  1.00  0.00     0.036 A 
HETATM    8  C   UNK A   0      41.227 -15.412   3.051  1.00  0.00     0.030 A 
HETATM    9  C   UNK A   0      41.115 -14.226   3.790  1.00  0.00     0.019 A 
HETATM   10  C   UNK A   0      41.011 -14.268   5.186  1.00  0.00     0.032 A 
HETATM   11  C   UNK A   0      40.967 -15.517   5.819  1.00  0.00     0.019 A 
HETATM   12  C   UNK A   0      41.096 -16.698   5.080  1.00  0.00     0.030 A 
BRANCH  10  13
HETATM   13  C   UNK A   0      41.077 -13.047   6.056  1.00  0.00     0.256 C 
HETATM   14  N   UNK A   0      39.913 -12.689   6.714  1.00  0.00    -0.323 N 
HETATM   15  H   UNK A   0      39.180 -13.378   6.786  1.00  0.00     0.169 HD
HETATM   16  O   UNK A   0      42.141 -12.437   6.114  1.00  0.00    -0.267 OA
BRANCH  14  17
HETATM   17  C   UNK A   0      39.623 -11.437   7.299  1.00  0.00     0.035 A 
HETATM   18  C   UNK A   0      39.568 -10.238   6.583  1.00  0.00     0.029 A 
HETATM   19  C   UNK A   0      39.208  -9.046   7.219  1.00  0.00     0.002 A 
HETATM   20  C   UNK A   0      38.901  -9.042   8.576  1.00  0.00     0.000 A 
HETATM   21  C   UNK A   0      38.956 -10.229   9.301  1.00  0.00     0.002 A 
HETATM   22  C   UNK A   0      39.314 -11.421   8.665  1.00  0.00     0.029 A 
ENDBRANCH  14  17
ENDBRANCH  10  13
ENDBRANCH   1   7
BRANCH   5  23
ATOM     23  CA  TRP A   1      44.177 -20.277   2.220  1.00  0.00     0.114 C 
BRANCH  23  24
ATOM     24  C   TRP A   1      43.892 -21.714   1.741  1.00  0.00     0.189 C 
BRANCH  24  25
ATOM     25  O   TRP A   1      44.894 -22.629   2.188  1.00  0.00    -0.399 OA
ATOM     26  H   TRP A   1      45.702 -22.426   1.685  1.00  0.00     0.209 HD
ENDBRANCH  24  25
ENDBRANCH  23  24
BRANCH  23  27
ATOM     27  CB  TRP A   1      45.195 -20.216   3.387  1.00  0.00     0.068 C 
BRANCH  27  28
ATOM     28  CG  TRP A   1      44.638 -20.256   4.783  1.00  0.00    -0.028 A 
ATOM     29  CD2 TRP A   1      44.432 -19.130   5.650  1.00  0.00    -0.002 A 
ATOM     30  CE2 TRP A   1      43.906 -19.609   6.850  1.00  0.00     0.042 A 
ATOM     31  CE3 TRP A   1      44.648 -17.741   5.526  1.00  0.00     0.014 A 
ATOM     32  CZ2 TRP A   1      43.571 -18.772   7.922  1.00  0.00     0.030 A 
ATOM     33  NE1 TRP A   1      43.814 -20.975   6.730  1.00  0.00    -0.365 N 
ATOM     34  CH2 TRP A   1      43.789 -17.400   7.769  1.00  0.00     0.002 A 
ATOM     35  CZ3 TRP A   1      44.325 -16.890   6.590  1.00  0.00     0.001 A 
ATOM     36  HE1 TRP A   1      43.471 -21.590   7.454  1.00  0.00     0.165 HD
ATOM     37  CD1 TRP A   1      44.269 -21.376   5.504  1.00  0.00     0.096 A 
ENDBRANCH  27  28
ENDBRANCH  23  27
ENDBRANCH   5  23
TORSDOF 8
ENDMDL
MODEL 7
REMARK VINA RESULT:      -9.0      2.868     10.254
REMARK  8 active torsions:
REMARK  status: ('A' for Active; 'I' for Inactive)
REMARK    1  A    between atoms: C_4  and  N_5 
REMARK       I    between atoms: N_5  and  C_6 
REMARK    2  A    between atoms: C_6  and  C_7 
REMARK    3  A    between atoms: C_10  and  N_11 
REMARK       I    between atoms: N_11  and  C_12 
REMARK       I    between atoms: C_12  and  N_21 
REMARK    4  A    between atoms: N_21  and  CA_22 
REMARK    5  A    between atoms: CA_22  and  C_23 
REMARK    6  A    between atoms: CA_22  and  CB_25 
REMARK    7  A    between atoms: C_23  and  O_24 
REMARK    8  A    between atoms: CB_25  and  CG_26 
ROOT
HETATM    1  N   UNK A   0      40.883 -11.753   5.970  1.00  0.00    -0.309 N 
HETATM    2  C   UNK A   0      40.046 -11.473   7.027  1.00  0.00     0.321 C 
HETATM    3  O   UNK A   0      39.159 -12.188   7.473  1.00  0.00    -0.247 OA
HETATM    4  H   UNK A   0      41.320 -10.948   5.548  1.00  0.00     0.170 HD
ATOM      5  N   TRP A   1      40.355 -10.238   7.555  1.00  0.00    -0.336 N 
ATOM      6  H   TRP A   1      41.334  -9.989   7.480  1.00  0.00     0.164 HD
ENDROOT
BRANCH   1   7
HETATM    7  C   UNK A   0      41.246 -13.017   5.478  1.00  0.00     0.036 A 
HETATM    8  C   UNK A   0      40.382 -13.833   4.748  1.00  0.00     0.030 A 
HETATM    9  C   UNK A   0      40.717 -15.168   4.479  1.00  0.00     0.019 A 
HETATM   10  C   UNK A   0      41.939 -15.694   4.914  1.00  0.00     0.032 A 
HETATM   11  C   UNK A   0      42.838 -14.845   5.575  1.00  0.00     0.019 A 
HETATM   12  C   UNK A   0      42.494 -13.519   5.857  1.00  0.00     0.030 A 
BRANCH  10  13
HETATM   13  C   UNK A   0      42.288 -17.151   4.833  1.00  0.00     0.256 C 
HETATM   14  N   UNK A   0      43.435 -17.477   4.129  1.00  0.00    -0.323 N 
HETATM   15  H   UNK A   0      44.096 -16.740   3.937  1.00  0.00     0.169 HD
HETATM   16  O   UNK A   0      41.533 -17.956   5.370  1.00  0.00    -0.267 OA
BRANCH  14  17
HETATM   17  C   UNK A   0      43.787 -18.750   3.629  1.00  0.00     0.035 A 
HETATM   18  C   UNK A   0      44.525 -19.692   4.349  1.00  0.00     0.029 A 
HETATM   19  C   UNK A   0      44.778 -20.958   3.812  1.00  0.00     0.002 A 
HETATM   20  C   UNK A   0      44.295 -21.294   2.551  1.00  0.00     0.000 A 
HETATM   21  C   UNK A   0      43.561 -20.362   1.822  1.00  0.00     0.002 A 
HETATM   22  C   UNK A   0      43.306 -19.097   2.359  1.00  0.00     0.029 A 
ENDBRANCH  14  17
ENDBRANCH  10  13
ENDBRANCH   1   7
BRANCH   5  23
ATOM     23  CA  TRP A   1      39.771  -9.778   8.814  1.00  0.00     0.114 C 
BRANCH  23  24
ATOM     24  C   TRP A   1      38.652  -8.759   8.516  1.00  0.00     0.189 C 
BRANCH  24  25
ATOM     25  O   TRP A   1      38.266  -8.785   7.141  1.00  0.00    -0.399 OA
ATOM     26  H   TRP A   1      38.208  -7.858   6.849  1.00  0.00     0.209 HD
ENDBRANCH  24  25
ENDBRANCH  23  24
BRANCH  23  27
ATOM     27  CB  TRP A   1      40.811  -9.255   9.837  1.00  0.00     0.068 C 
BRANCH  27  28
ATOM     28  CG  TRP A   1      41.500 -10.280  10.694  1.00  0.00    -0.028 A 
ATOM     29  CD2 TRP A   1      42.827 -10.796  10.504  1.00  0.00    -0.002 A 
ATOM     30  CE2 TRP A   1      43.069 -11.727  11.514  1.00  0.00     0.042 A 
ATOM     31  CE3 TRP A   1      43.848 -10.558   9.560  1.00  0.00     0.014 A 
ATOM     32  CZ2 TRP A   1      44.281 -12.418  11.637  1.00  0.00     0.030 A 
ATOM     33  NE1 TRP A   1      41.929 -11.794  12.279  1.00  0.00    -0.365 N 
ATOM     34  CH2 TRP A   1      45.277 -12.158  10.693  1.00  0.00     0.002 A 
ATOM     35  CZ3 TRP A   1      45.064 -11.245   9.664  1.00  0.00     0.001 A 
ATOM     36  HE1 TRP A   1      41.814 -12.395  13.081  1.00  0.00     0.165 HD
ATOM     37  CD1 TRP A   1      40.975 -10.947  11.784  1.00  0.00     0.096 A 
ENDBRANCH  27  28
ENDBRANCH  23  27
ENDBRANCH   5  23
TORSDOF 8
ENDMDL
MODEL 8
REMARK VINA RESULT:      -8.9      3.122     11.260
REMARK  8 active torsions:
REMARK  status: ('A' for Active; 'I' for Inactive)
REMARK    1  A    between atoms: C_4  and  N_5 
REMARK       I    between atoms: N_5  and  C_6 
REMARK    2  A    between atoms: C_6  and  C_7 
REMARK    3  A    between atoms: C_10  and  N_11 
REMARK       I    between atoms: N_11  and  C_12 
REMARK       I    between atoms: C_12  and  N_21 
REMARK    4  A    between atoms: N_21  and  CA_22 
REMARK    5  A    between atoms: CA_22  and  C_23 
REMARK    6  A    between atoms: CA_22  and  CB_25 
REMARK    7  A    between atoms: C_23  and  O_24 
REMARK    8  A    between atoms: CB_25  and  CG_26 
ROOT
HETATM    1  N   UNK A   0      43.589 -14.302   7.161  1.00  0.00    -0.309 N 
HETATM    2  C   UNK A   0      44.621 -13.576   7.711  1.00  0.00     0.321 C 
HETATM    3  O   UNK A   0      45.717 -13.359   7.211  1.00  0.00    -0.247 OA
HETATM    4  H   UNK A   0      42.907 -14.640   7.823  1.00  0.00     0.170 HD
ATOM      5  N   TRP A   1      44.247 -13.088   8.945  1.00  0.00    -0.336 N 
ATOM      6  H   TRP A   1      43.258 -12.885   9.027  1.00  0.00     0.164 HD
ENDROOT
BRANCH   1   7
HETATM    7  C   UNK A   0      43.348 -14.550   5.800  1.00  0.00     0.036 A 
HETATM    8  C   UNK A   0      43.086 -13.543   4.872  1.00  0.00     0.030 A 
HETATM    9  C   UNK A   0      42.632 -13.859   3.584  1.00  0.00     0.019 A 
HETATM   10  C   UNK A   0      42.463 -15.195   3.200  1.00  0.00     0.032 A 
HETATM   11  C   UNK A   0      42.808 -16.204   4.110  1.00  0.00     0.019 A 
HETATM   12  C   UNK A   0      43.245 -15.884   5.400  1.00  0.00     0.030 A 
BRANCH  10  13
HETATM   13  C   UNK A   0      41.807 -15.610   1.915  1.00  0.00     0.256 C 
HETATM   14  N   UNK A   0      41.814 -14.683   0.887  1.00  0.00    -0.323 N 
HETATM   15  H   UNK A   0      42.460 -13.910   0.952  1.00  0.00     0.169 HD
HETATM   16  O   UNK A   0      41.292 -16.723   1.863  1.00  0.00    -0.267 OA
BRANCH  14  17
HETATM   17  C   UNK A   0      40.996 -14.691  -0.264  1.00  0.00     0.035 A 
HETATM   18  C   UNK A   0      39.817 -13.952  -0.384  1.00  0.00     0.029 A 
HETATM   19  C   UNK A   0      39.093 -13.958  -1.581  1.00  0.00     0.002 A 
HETATM   20  C   UNK A   0      39.543 -14.701  -2.668  1.00  0.00     0.000 A 
HETATM   21  C   UNK A   0      40.716 -15.443  -2.559  1.00  0.00     0.002 A 
HETATM   22  C   UNK A   0      41.440 -15.437  -1.363  1.00  0.00     0.029 A 
ENDBRANCH  14  17
ENDBRANCH  10  13
ENDBRANCH   1   7
BRANCH   5  23
ATOM     23  CA  TRP A   1      45.065 -12.111   9.660  1.00  0.00     0.114 C 
BRANCH  23  24
ATOM     24  C   TRP A   1      45.372 -12.638  11.075  1.00  0.00     0.189 C 
BRANCH  24  25
ATOM     25  O   TRP A   1      44.295 -13.420  11.593  1.00  0.00    -0.399 OA
ATOM     26  H   TRP A   1      43.681 -13.574  10.854  1.00  0.00     0.209 HD
ENDBRANCH  24  25
ENDBRANCH  23  24
BRANCH  23  27
ATOM     27  CB  TRP A   1      44.476 -10.677   9.660  1.00  0.00     0.068 C 
BRANCH  27  28
ATOM     28  CG  TRP A   1      43.126 -10.494  10.297  1.00  0.00    -0.028 A 
ATOM     29  CD2 TRP A   1      42.871 -10.107  11.657  1.00  0.00    -0.002 A 
ATOM     30  CE2 TRP A   1      41.488 -10.063  11.832  1.00  0.00     0.042 A 
ATOM     31  CE3 TRP A   1      43.692  -9.793  12.760  1.00  0.00     0.014 A 
ATOM     32  CZ2 TRP A   1      40.887  -9.705  13.045  1.00  0.00     0.030 A 
ATOM     33  NE1 TRP A   1      40.920 -10.427  10.635  1.00  0.00    -0.365 N 
ATOM     34  CH2 TRP A   1      41.724  -9.391  14.119  1.00  0.00     0.002 A 
ATOM     35  CZ3 TRP A   1      43.109  -9.440  13.982  1.00  0.00     0.001 A 
ATOM     36  HE1 TRP A   1      39.926 -10.490  10.471  1.00  0.00     0.165 HD
ATOM     37  CD1 TRP A   1      41.892 -10.708   9.714  1.00  0.00     0.096 A 
ENDBRANCH  27  28
ENDBRANCH  23  27
ENDBRANCH   5  23
TORSDOF 8
ENDMDL
MODEL 9
REMARK VINA RESULT:      -8.8      4.724      8.187
REMARK  8 active torsions:
REMARK  status: ('A' for Active; 'I' for Inactive)
REMARK    1  A    between atoms: C_4  and  N_5 
REMARK       I    between atoms: N_5  and  C_6 
REMARK    2  A    between atoms: C_6  and  C_7 
REMARK    3  A    between atoms: C_10  and  N_11 
REMARK       I    between atoms: N_11  and  C_12 
REMARK       I    between atoms: C_12  and  N_21 
REMARK    4  A    between atoms: N_21  and  CA_22 
REMARK    5  A    between atoms: CA_22  and  C_23 
REMARK    6  A    between atoms: CA_22  and  CB_25 
REMARK    7  A    between atoms: C_23  and  O_24 
REMARK    8  A    between atoms: CB_25  and  CG_26 
ROOT
HETATM    1  N   UNK A   0      42.128 -15.077   6.193  1.00  0.00    -0.309 N 
HETATM    2  C   UNK A   0      42.149 -16.445   6.354  1.00  0.00     0.321 C 
HETATM    3  O   UNK A   0      41.299 -17.243   5.983  1.00  0.00    -0.247 OA
HETATM    4  H   UNK A   0      42.728 -14.566   6.821  1.00  0.00     0.170 HD
ATOM      5  N   TRP A   1      43.307 -16.823   7.000  1.00  0.00    -0.336 N 
ATOM      6  H   TRP A   1      44.103 -16.227   6.806  1.00  0.00     0.164 HD
ENDROOT
BRANCH   1   7
HETATM    7  C   UNK A   0      41.436 -14.342   5.217  1.00  0.00     0.036 A 
HETATM    8  C   UNK A   0      40.172 -13.790   5.424  1.00  0.00     0.030 A 
HETATM    9  C   UNK A   0      39.438 -13.265   4.352  1.00  0.00     0.019 A 
HETATM   10  C   UNK A   0      39.975 -13.259   3.059  1.00  0.00     0.032 A 
HETATM   11  C   UNK A   0      41.279 -13.739   2.872  1.00  0.00     0.019 A 
HETATM   12  C   UNK A   0      42.003 -14.278   3.941  1.00  0.00     0.030 A 
BRANCH  10  13
HETATM   13  C   UNK A   0      39.185 -12.892   1.837  1.00  0.00     0.256 C 
HETATM   14  N   UNK A   0      39.579 -13.475   0.645  1.00  0.00    -0.323 N 
HETATM   15  H   UNK A   0      40.180 -14.284   0.690  1.00  0.00     0.169 HD
HETATM   16  O   UNK A   0      38.264 -12.091   1.965  1.00  0.00    -0.267 OA
BRANCH  14  17
HETATM   17  C   UNK A   0      39.236 -13.050  -0.658  1.00  0.00     0.035 A 
HETATM   18  C   UNK A   0      40.007 -12.165  -1.415  1.00  0.00     0.029 A 
HETATM   19  C   UNK A   0      39.638 -11.842  -2.724  1.00  0.00     0.002 A 
HETATM   20  C   UNK A   0      38.496 -12.401  -3.289  1.00  0.00     0.000 A 
HETATM   21  C   UNK A   0      37.718 -13.283  -2.542  1.00  0.00     0.002 A 
HETATM   22  C   UNK A   0      38.087 -13.606  -1.234  1.00  0.00     0.029 A 
ENDBRANCH  14  17
ENDBRANCH  10  13
ENDBRANCH   1   7
BRANCH   5  23
ATOM     23  CA  TRP A   1      43.693 -18.228   7.115  1.00  0.00     0.114 C 
BRANCH  23  24
ATOM     24  C   TRP A   1      44.039 -18.545   8.583  1.00  0.00     0.189 C 
BRANCH  24  25
ATOM     25  O   TRP A   1      43.647 -17.487   9.459  1.00  0.00    -0.399 OA
ATOM     26  H   TRP A   1      44.071 -17.663  10.318  1.00  0.00     0.209 HD
ENDBRANCH  24  25
ENDBRANCH  23  24
BRANCH  23  27
ATOM     27  CB  TRP A   1      44.802 -18.659   6.122  1.00  0.00     0.068 C 
BRANCH  27  28
ATOM     28  CG  TRP A   1      44.392 -18.881   4.693  1.00  0.00    -0.028 A 
ATOM     29  CD2 TRP A   1      44.415 -20.131   3.985  1.00  0.00    -0.002 A 
ATOM     30  CE2 TRP A   1      43.962 -19.891   2.688  1.00  0.00     0.042 A 
ATOM     31  CE3 TRP A   1      44.784 -21.449   4.328  1.00  0.00     0.014 A 
ATOM     32  CZ2 TRP A   1      43.844 -20.901   1.724  1.00  0.00     0.030 A 
ATOM     33  NE1 TRP A   1      43.693 -18.546   2.599  1.00  0.00    -0.365 N 
ATOM     34  CH2 TRP A   1      44.210 -22.199   2.094  1.00  0.00     0.002 A 
ATOM     35  CZ3 TRP A   1      44.679 -22.470   3.376  1.00  0.00     0.001 A 
ATOM     36  HE1 TRP A   1      43.354 -18.086   1.767  1.00  0.00     0.165 HD
ATOM     37  CD1 TRP A   1      43.966 -17.928   3.788  1.00  0.00     0.096 A 
ENDBRANCH  27  28
ENDBRANCH  23  27
ENDBRANCH   5  23
TORSDOF 8
ENDMDL
MODEL 10
REMARK VINA RESULT:      -8.8      4.841      9.007
REMARK  8 active torsions:
REMARK  status: ('A' for Active; 'I' for Inactive)
REMARK    1  A    between atoms: C_4  and  N_5 
REMARK       I    between atoms: N_5  and  C_6 
REMARK    2  A    between atoms: C_6  and  C_7 
REMARK    3  A    between atoms: C_10  and  N_11 
REMARK       I    between atoms: N_11  and  C_12 
REMARK       I    between atoms: C_12  and  N_21 
REMARK    4  A    between atoms: N_21  and  CA_22 
REMARK    5  A    between atoms: CA_22  and  C_23 
REMARK    6  A    between atoms: CA_22  and  CB_25 
REMARK    7  A    between atoms: C_23  and  O_24 
REMARK    8  A    between atoms: CB_25  and  CG_26 
ROOT
HETATM    1  N   UNK A   0      42.998 -14.476   3.830  1.00  0.00    -0.309 N 
HETATM    2  C   UNK A   0      42.369 -14.879   4.987  1.00  0.00     0.321 C 
HETATM    3  O   UNK A   0      41.232 -14.600   5.342  1.00  0.00    -0.247 OA
HETATM    4  H   UNK A   0      44.005 -14.529   3.853  1.00  0.00     0.170 HD
ATOM      5  N   TRP A   1      43.212 -15.686   5.723  1.00  0.00    -0.336 N 
ATOM      6  H   TRP A   1      43.851 -16.236   5.162  1.00  0.00     0.164 HD
ENDROOT
BRANCH   1   7
HETATM    7  C   UNK A   0      42.399 -14.084   2.623  1.00  0.00     0.036 A 
HETATM    8  C   UNK A   0      42.144 -14.964   1.571  1.00  0.00     0.030 A 
HETATM    9  C   UNK A   0      41.756 -14.481   0.314  1.00  0.00     0.019 A 
HETATM   10  C   UNK A   0      41.587 -13.107   0.103  1.00  0.00     0.032 A 
HETATM   11  C   UNK A   0      41.764 -12.235   1.186  1.00  0.00     0.019 A 
HETATM   12  C   UNK A   0      42.168 -12.719   2.435  1.00  0.00     0.030 A 
BRANCH  10  13
HETATM   13  C   UNK A   0      41.360 -12.501  -1.250  1.00  0.00     0.256 C 
HETATM   14  N   UNK A   0      42.467 -11.966  -1.886  1.00  0.00    -0.323 N 
HETATM   15  H   UNK A   0      43.380 -12.230  -1.546  1.00  0.00     0.169 HD
HETATM   16  O   UNK A   0      40.216 -12.497  -1.696  1.00  0.00    -0.267 OA
BRANCH  14  17
HETATM   17  C   UNK A   0      42.465 -11.064  -2.972  1.00  0.00     0.035 A 
HETATM   18  C   UNK A   0      42.338 -11.454  -4.307  1.00  0.00     0.029 A 
HETATM   19  C   UNK A   0      42.277 -10.497  -5.325  1.00  0.00     0.002 A 
HETATM   20  C   UNK A   0      42.342  -9.142  -5.018  1.00  0.00     0.000 A 
HETATM   21  C   UNK A   0      42.473  -8.741  -3.690  1.00  0.00     0.002 A 
HETATM   22  C   UNK A   0      42.533  -9.697  -2.673  1.00  0.00     0.029 A 
ENDBRANCH  14  17
ENDBRANCH  10  13
ENDBRANCH   1   7
BRANCH   5  23
ATOM     23  CA  TRP A   1      42.734 -16.426   6.889  1.00  0.00     0.114 C 
BRANCH  23  24
ATOM     24  C   TRP A   1      43.808 -16.387   7.994  1.00  0.00     0.189 C 
BRANCH  24  25
ATOM     25  O   TRP A   1      43.452 -17.210   9.107  1.00  0.00    -0.399 OA
ATOM     26  H   TRP A   1      43.481 -18.131   8.794  1.00  0.00     0.209 HD
ENDBRANCH  24  25
ENDBRANCH  23  24
BRANCH  23  27
ATOM     27  CB  TRP A   1      42.245 -17.861   6.567  1.00  0.00     0.068 C 
BRANCH  27  28
ATOM     28  CG  TRP A   1      43.175 -18.737   5.774  1.00  0.00    -0.028 A 
ATOM     29  CD2 TRP A   1      43.214 -18.860   4.343  1.00  0.00    -0.002 A 
ATOM     30  CE2 TRP A   1      44.214 -19.779   4.024  1.00  0.00     0.042 A 
ATOM     31  CE3 TRP A   1      42.487 -18.274   3.285  1.00  0.00     0.014 A 
ATOM     32  CZ2 TRP A   1      44.534 -20.128   2.706  1.00  0.00     0.030 A 
ATOM     33  NE1 TRP A   1      44.750 -20.216   5.212  1.00  0.00    -0.365 N 
ATOM     34  CH2 TRP A   1      43.802 -19.527   1.678  1.00  0.00     0.002 A 
ATOM     35  CZ3 TRP A   1      42.788 -18.617   1.961  1.00  0.00     0.001 A 
ATOM     36  HE1 TRP A   1      45.493 -20.895   5.287  1.00  0.00     0.165 HD
ATOM     37  CD1 TRP A   1      44.121 -19.614   6.267  1.00  0.00     0.096 A 
ENDBRANCH  27  28
ENDBRANCH  23  27
ENDBRANCH   5  23
TORSDOF 8
ENDMDL
