MODEL 1
REMARK VINA RESULT:      -9.2      0.000      0.000
REMARK  6 active torsions:
REMARK  status: ('A' for Active; 'I' for Inactive)
REMARK    1  A    between atoms: C_6  and  C_7 
REMARK    2  A    between atoms: C_7  and  N_8 
REMARK    3  A    between atoms: C_12  and  C_13 
REMARK    4  A    between atoms: C_13  and  C_14 
REMARK    5  A    between atoms: N_23  and  C_24 
REMARK    6  A    between atoms: C_24  and  C_25 
ROOT
HETATM    1  C   UNL     1      42.393 -15.813   3.670  1.00  0.00     0.149 C 
HETATM    2  N   UNL     1      43.298 -15.672   2.538  1.00  0.00    -0.220 NA
HETATM    3  C   UNL     1      43.692 -16.905   2.057  1.00  0.00     0.304 C 
HETATM    4  O   UNL     1      44.571 -17.031   1.223  1.00  0.00    -0.253 OA
HETATM    5  N   UNL     1      42.951 -17.875   2.647  1.00  0.00    -0.270 N 
HETATM    6  C   UNL     1      42.118 -17.332   3.581  1.00  0.00     0.257 C 
HETATM    7  O   UNL     1      41.283 -17.937   4.240  1.00  0.00    -0.270 OA
HETATM    8  H   UNL     1      44.092 -15.042   2.649  1.00  0.00     0.134 HD
ENDROOT
BRANCH   1   9
HETATM    9  C   UNL     1      41.082 -14.979   3.498  1.00  0.00     0.028 C 
HETATM   10  C   UNL     1      40.067 -15.586   2.506  1.00  0.00     0.035 C 
HETATM   11  C   UNL     1      40.396 -15.363   1.031  1.00  0.00     0.235 C 
HETATM   12  N   UNL     1      40.650 -13.901   0.757  1.00  0.00    -0.067 N 
HETATM   13  H   UNL     1      39.763 -13.412   0.921  1.00  0.00     0.280 HD
HETATM   14  C   UNL     1      41.689 -13.292   1.665  1.00  0.00     0.235 C 
HETATM   15  C   UNL     1      41.294 -13.501   3.117  1.00  0.00     0.035 C 
BRANCH  12  16
HETATM   16  C   UNL     1      41.006 -13.638  -0.699  1.00  0.00     0.273 C 
BRANCH  16  17
HETATM   17  C   UNL     1      39.869 -13.869  -1.662  1.00  0.00    -0.027 A 
HETATM   18  C   UNL     1      39.941 -14.801  -2.718  1.00  0.00    -0.054 A 
HETATM   19  C   UNL     1      38.854 -14.917  -3.604  1.00  0.00     0.014 A 
HETATM   20  C   UNL     1      41.135 -15.694  -2.935  1.00  0.00     0.049 C 
HETATM   21  C   UNL     1      37.696 -14.148  -3.444  1.00  0.00    -0.061 A 
HETATM   22  C   UNL     1      36.554 -14.272  -4.410  1.00  0.00     0.048 C 
HETATM   23  C   UNL     1      37.632 -13.230  -2.396  1.00  0.00     0.007 A 
HETATM   24  C   UNL     1      38.701 -13.096  -1.512  1.00  0.00     0.010 A 
ENDBRANCH  16  17
ENDBRANCH  12  16
ENDBRANCH   1   9
BRANCH   1  25
HETATM   25  C   UNL     1      43.142 -15.466   4.956  1.00  0.00     0.067 A 
HETATM   26  N   UNL     1      43.772 -14.253   4.958  1.00  0.00    -0.263 NA
HETATM   27  C   UNL     1      44.469 -13.914   6.067  1.00  0.00     0.117 A 
HETATM   28  C   UNL     1      44.538 -14.702   7.201  1.00  0.00     0.019 A 
HETATM   29  C   UNL     1      43.855 -15.913   7.202  1.00  0.00     0.003 A 
HETATM   30  C   UNL     1      43.145 -16.303   6.071  1.00  0.00     0.030 A 
ENDBRANCH   1  25
BRANCH   5  31
HETATM   31  C   UNL     1      43.102 -19.294   2.391  1.00  0.00     0.168 C 
BRANCH  31  32
HETATM   32  C   UNL     1      44.346 -19.909   3.035  1.00  0.00     0.140 C 
HETATM   33  O   UNL     1      44.475 -21.275   2.594  1.00  0.00    -0.384 OA
HETATM   34  C   UNL     1      44.634 -22.118   3.742  1.00  0.00     0.168 C 
HETATM   35  C   UNL     1      45.077 -21.209   4.866  1.00  0.00     0.029 C 
HETATM   36  C   UNL     1      44.308 -19.948   4.558  1.00  0.00     0.036 C 
ENDBRANCH  31  32
ENDBRANCH   5  31
TORSDOF 6
ENDMDL
MODEL 2
REMARK VINA RESULT:      -8.8      3.309      8.462
REMARK  6 active torsions:
REMARK  status: ('A' for Active; 'I' for Inactive)
REMARK    1  A    between atoms: C_6  and  C_7 
REMARK    2  A    between atoms: C_7  and  N_8 
REMARK    3  A    between atoms: C_12  and  C_13 
REMARK    4  A    between atoms: C_13  and  C_14 
REMARK    5  A    between atoms: N_23  and  C_24 
REMARK    6  A    between atoms: C_24  and  C_25 
ROOT
HETATM    1  C   UNL     1      41.602 -15.298   3.215  1.00  0.00     0.149 C 
HETATM    2  N   UNL     1      42.353 -14.075   2.967  1.00  0.00    -0.220 NA
HETATM    3  C   UNL     1      41.890 -13.426   1.839  1.00  0.00     0.304 C 
HETATM    4  O   UNL     1      42.471 -12.474   1.349  1.00  0.00    -0.253 OA
HETATM    5  N   UNL     1      40.739 -14.009   1.425  1.00  0.00    -0.270 N 
HETATM    6  C   UNL     1      40.453 -15.096   2.199  1.00  0.00     0.257 C 
HETATM    7  O   UNL     1      39.454 -15.797   2.116  1.00  0.00    -0.270 OA
HETATM    8  H   UNL     1      43.370 -14.142   2.971  1.00  0.00     0.134 HD
ENDROOT
BRANCH   1   9
HETATM    9  C   UNL     1      41.065 -15.387   4.680  1.00  0.00     0.028 C 
HETATM   10  C   UNL     1      39.906 -14.416   4.994  1.00  0.00     0.035 C 
HETATM   11  C   UNL     1      40.326 -12.969   5.240  1.00  0.00     0.235 C 
HETATM   12  N   UNL     1      41.418 -12.901   6.280  1.00  0.00    -0.067 N 
HETATM   13  H   UNL     1      41.004 -13.224   7.162  1.00  0.00     0.280 HD
HETATM   14  C   UNL     1      42.599 -13.786   5.970  1.00  0.00     0.235 C 
HETATM   15  C   UNL     1      42.134 -15.220   5.778  1.00  0.00     0.035 C 
BRANCH  12  16
HETATM   16  C   UNL     1      41.884 -11.476   6.539  1.00  0.00     0.273 C 
BRANCH  16  17
HETATM   17  C   UNL     1      42.164 -11.174   7.990  1.00  0.00    -0.027 A 
HETATM   18  C   UNL     1      41.187 -10.650   8.862  1.00  0.00    -0.054 A 
HETATM   19  C   UNL     1      41.546 -10.347  10.189  1.00  0.00     0.014 A 
HETATM   20  C   UNL     1      39.762 -10.409   8.438  1.00  0.00     0.049 C 
HETATM   21  C   UNL     1      42.841 -10.578  10.666  1.00  0.00    -0.061 A 
HETATM   22  C   UNL     1      43.211 -10.231  12.079  1.00  0.00     0.048 C 
HETATM   23  C   UNL     1      43.800 -11.099   9.798  1.00  0.00     0.007 A 
HETATM   24  C   UNL     1      43.466 -11.399   8.478  1.00  0.00     0.010 A 
ENDBRANCH  16  17
ENDBRANCH  12  16
ENDBRANCH   1   9
BRANCH   1  25
HETATM   25  C   UNL     1      42.464 -16.501   2.835  1.00  0.00     0.067 A 
HETATM   26  N   UNL     1      42.104 -17.686   3.413  1.00  0.00    -0.263 NA
HETATM   27  C   UNL     1      42.855 -18.775   3.125  1.00  0.00     0.117 A 
HETATM   28  C   UNL     1      43.927 -18.758   2.252  1.00  0.00     0.019 A 
HETATM   29  C   UNL     1      44.255 -17.556   1.637  1.00  0.00     0.003 A 
HETATM   30  C   UNL     1      43.517 -16.411   1.926  1.00  0.00     0.030 A 
ENDBRANCH   1  25
BRANCH   5  31
HETATM   31  C   UNL     1      39.982 -13.595   0.259  1.00  0.00     0.168 C 
BRANCH  31  32
HETATM   32  C   UNL     1      40.667 -13.918  -1.069  1.00  0.00     0.140 C 
HETATM   33  O   UNL     1      39.799 -13.525  -2.151  1.00  0.00    -0.384 OA
HETATM   34  C   UNL     1      39.656 -14.630  -3.052  1.00  0.00     0.168 C 
HETATM   35  C   UNL     1      40.819 -15.552  -2.768  1.00  0.00     0.029 C 
HETATM   36  C   UNL     1      40.971 -15.397  -1.275  1.00  0.00     0.036 C 
ENDBRANCH  31  32
ENDBRANCH   5  31
TORSDOF 6
ENDMDL
MODEL 3
REMARK VINA RESULT:      -8.8      2.874      8.470
REMARK  6 active torsions:
REMARK  status: ('A' for Active; 'I' for Inactive)
REMARK    1  A    between atoms: C_6  and  C_7 
REMARK    2  A    between atoms: C_7  and  N_8 
REMARK    3  A    between atoms: C_12  and  C_13 
REMARK    4  A    between atoms: C_13  and  C_14 
REMARK    5  A    between atoms: N_23  and  C_24 
REMARK    6  A    between atoms: C_24  and  C_25 
ROOT
HETATM    1  C   UNL     1      40.622 -14.337   0.578  1.00  0.00     0.149 C 
HETATM    2  N   UNL     1      41.718 -13.813   1.380  1.00  0.00    -0.220 NA
HETATM    3  C   UNL     1      41.304 -12.749   2.156  1.00  0.00     0.304 C 
HETATM    4  O   UNL     1      42.084 -12.053   2.782  1.00  0.00    -0.253 OA
HETATM    5  N   UNL     1      39.954 -12.648   2.098  1.00  0.00    -0.270 N 
HETATM    6  C   UNL     1      39.447 -13.572   1.230  1.00  0.00     0.257 C 
HETATM    7  O   UNL     1      38.262 -13.773   1.003  1.00  0.00    -0.270 OA
HETATM    8  H   UNL     1      42.594 -13.609   0.901  1.00  0.00     0.134 HD
ENDROOT
BRANCH   1   9
HETATM    9  C   UNL     1      40.454 -15.883   0.726  1.00  0.00     0.028 C 
HETATM   10  C   UNL     1      40.091 -16.351   2.152  1.00  0.00     0.035 C 
HETATM   11  C   UNL     1      41.259 -16.388   3.135  1.00  0.00     0.235 C 
HETATM   12  N   UNL     1      42.414 -17.171   2.561  1.00  0.00    -0.067 N 
HETATM   13  H   UNL     1      42.095 -18.143   2.471  1.00  0.00     0.280 HD
HETATM   14  C   UNL     1      42.841 -16.696   1.194  1.00  0.00     0.235 C 
HETATM   15  C   UNL     1      41.656 -16.720   0.244  1.00  0.00     0.035 C 
BRANCH  12  16
HETATM   16  C   UNL     1      43.610 -17.213   3.500  1.00  0.00     0.273 C 
BRANCH  16  17
HETATM   17  C   UNL     1      43.972 -18.597   3.975  1.00  0.00    -0.027 A 
HETATM   18  C   UNL     1      44.011 -18.949   5.340  1.00  0.00    -0.054 A 
HETATM   19  C   UNL     1      44.410 -20.250   5.701  1.00  0.00     0.014 A 
HETATM   20  C   UNL     1      43.631 -17.992   6.439  1.00  0.00     0.049 C 
HETATM   21  C   UNL     1      44.743 -21.206   4.734  1.00  0.00    -0.061 A 
HETATM   22  C   UNL     1      45.185 -22.583   5.138  1.00  0.00     0.048 C 
HETATM   23  C   UNL     1      44.699 -20.851   3.386  1.00  0.00     0.007 A 
HETATM   24  C   UNL     1      44.313 -19.565   3.010  1.00  0.00     0.010 A 
ENDBRANCH  16  17
ENDBRANCH  12  16
ENDBRANCH   1   9
BRANCH   1  25
HETATM   25  C   UNL     1      40.816 -13.907  -0.876  1.00  0.00     0.067 A 
HETATM   26  N   UNL     1      39.780 -14.203  -1.717  1.00  0.00    -0.263 NA
HETATM   27  C   UNL     1      39.918 -13.863  -3.020  1.00  0.00     0.117 A 
HETATM   28  C   UNL     1      41.022 -13.201  -3.527  1.00  0.00     0.019 A 
HETATM   29  C   UNL     1      42.048 -12.868  -2.652  1.00  0.00     0.003 A 
HETATM   30  C   UNL     1      41.948 -13.219  -1.309  1.00  0.00     0.030 A 
ENDBRANCH   1  25
BRANCH   5  31
HETATM   31  C   UNL     1      39.175 -11.633   2.781  1.00  0.00     0.168 C 
BRANCH  31  32
HETATM   32  C   UNL     1      38.969 -11.911   4.271  1.00  0.00     0.140 C 
HETATM   33  O   UNL     1      39.756 -10.974   5.034  1.00  0.00    -0.384 OA
HETATM   34  C   UNL     1      40.545 -11.701   5.984  1.00  0.00     0.168 C 
HETATM   35  C   UNL     1      39.886 -13.054   6.123  1.00  0.00     0.029 C 
HETATM   36  C   UNL     1      39.404 -13.303   4.715  1.00  0.00     0.036 C 
ENDBRANCH  31  32
ENDBRANCH   5  31
TORSDOF 6
ENDMDL
MODEL 4
REMARK VINA RESULT:      -8.8      3.239      8.860
REMARK  6 active torsions:
REMARK  status: ('A' for Active; 'I' for Inactive)
REMARK    1  A    between atoms: C_6  and  C_7 
REMARK    2  A    between atoms: C_7  and  N_8 
REMARK    3  A    between atoms: C_12  and  C_13 
REMARK    4  A    between atoms: C_13  and  C_14 
REMARK    5  A    between atoms: N_23  and  C_24 
REMARK    6  A    between atoms: C_24  and  C_25 
ROOT
HETATM    1  C   UNL     1      40.314 -13.269  -0.347  1.00  0.00     0.149 C 
HETATM    2  N   UNL     1      41.754 -13.075  -0.252  1.00  0.00    -0.220 NA
HETATM    3  C   UNL     1      42.117 -11.815  -0.683  1.00  0.00     0.304 C 
HETATM    4  O   UNL     1      43.280 -11.490  -0.846  1.00  0.00    -0.253 OA
HETATM    5  N   UNL     1      41.004 -11.064  -0.864  1.00  0.00    -0.270 N 
HETATM    6  C   UNL     1      39.885 -11.814  -0.644  1.00  0.00     0.257 C 
HETATM    7  O   UNL     1      38.730 -11.410  -0.670  1.00  0.00    -0.270 OA
HETATM    8  H   UNL     1      42.351 -13.796  -0.655  1.00  0.00     0.134 HD
ENDROOT
BRANCH   1   9
HETATM    9  C   UNL     1      39.689 -13.793   0.986  1.00  0.00     0.028 C 
HETATM   10  C   UNL     1      40.166 -13.045   2.250  1.00  0.00     0.035 C 
HETATM   11  C   UNL     1      41.553 -13.445   2.749  1.00  0.00     0.235 C 
HETATM   12  N   UNL     1      41.652 -14.942   2.907  1.00  0.00    -0.067 N 
HETATM   13  H   UNL     1      41.001 -15.203   3.657  1.00  0.00     0.280 HD
HETATM   14  C   UNL     1      41.258 -15.704   1.666  1.00  0.00     0.235 C 
HETATM   15  C   UNL     1      39.856 -15.304   1.237  1.00  0.00     0.035 C 
BRANCH  12  16
HETATM   16  C   UNL     1      43.028 -15.386   3.380  1.00  0.00     0.273 C 
BRANCH  16  17
HETATM   17  C   UNL     1      43.310 -16.852   3.164  1.00  0.00    -0.027 A 
HETATM   18  C   UNL     1      42.966 -17.842   4.108  1.00  0.00    -0.054 A 
HETATM   19  C   UNL     1      43.313 -19.181   3.853  1.00  0.00     0.014 A 
HETATM   20  C   UNL     1      42.229 -17.529   5.384  1.00  0.00     0.049 C 
HETATM   21  C   UNL     1      43.966 -19.555   2.672  1.00  0.00    -0.061 A 
HETATM   22  C   UNL     1      44.344 -20.986   2.424  1.00  0.00     0.048 C 
HETATM   23  C   UNL     1      44.299 -18.570   1.742  1.00  0.00     0.007 A 
HETATM   24  C   UNL     1      43.971 -17.237   1.981  1.00  0.00     0.010 A 
ENDBRANCH  16  17
ENDBRANCH  12  16
ENDBRANCH   1   9
BRANCH   1  25
HETATM   25  C   UNL     1      40.009 -14.184  -1.534  1.00  0.00     0.067 A 
HETATM   26  N   UNL     1      38.765 -14.039  -2.080  1.00  0.00    -0.263 NA
HETATM   27  C   UNL     1      38.441 -14.846  -3.117  1.00  0.00     0.117 A 
HETATM   28  C   UNL     1      39.311 -15.766  -3.673  1.00  0.00     0.019 A 
HETATM   29  C   UNL     1      40.588 -15.872  -3.136  1.00  0.00     0.003 A 
HETATM   30  C   UNL     1      40.948 -15.072  -2.056  1.00  0.00     0.030 A 
ENDBRANCH   1  25
BRANCH   5  31
HETATM   31  C   UNL     1      41.006  -9.689  -1.327  1.00  0.00     0.168 C 
BRANCH  31  32
HETATM   32  C   UNL     1      41.076  -9.550  -2.848  1.00  0.00     0.140 C 
HETATM   33  O   UNL     1      40.694 -10.803  -3.451  1.00  0.00    -0.384 OA
HETATM   34  C   UNL     1      41.702 -11.185  -4.396  1.00  0.00     0.168 C 
HETATM   35  C   UNL     1      42.471  -9.924  -4.716  1.00  0.00     0.029 C 
HETATM   36  C   UNL     1      42.464  -9.217  -3.384  1.00  0.00     0.036 C 
ENDBRANCH  31  32
ENDBRANCH   5  31
TORSDOF 6
ENDMDL
MODEL 5
REMARK VINA RESULT:      -8.7      2.282      8.208
REMARK  6 active torsions:
REMARK  status: ('A' for Active; 'I' for Inactive)
REMARK    1  A    between atoms: C_6  and  C_7 
REMARK    2  A    between atoms: C_7  and  N_8 
REMARK    3  A    between atoms: C_12  and  C_13 
REMARK    4  A    between atoms: C_13  and  C_14 
REMARK    5  A    between atoms: N_23  and  C_24 
REMARK    6  A    between atoms: C_24  and  C_25 
ROOT
HETATM    1  C   UNL     1      41.636 -14.977   2.847  1.00  0.00     0.149 C 
HETATM    2  N   UNL     1      42.467 -13.819   2.553  1.00  0.00    -0.220 NA
HETATM    3  C   UNL     1      41.937 -13.074   1.519  1.00  0.00     0.304 C 
HETATM    4  O   UNL     1      42.545 -12.156   0.996  1.00  0.00    -0.253 OA
HETATM    5  N   UNL     1      40.693 -13.526   1.231  1.00  0.00    -0.270 N 
HETATM    6  C   UNL     1      40.398 -14.619   1.993  1.00  0.00     0.257 C 
HETATM    7  O   UNL     1      39.332 -15.219   2.009  1.00  0.00    -0.270 OA
HETATM    8  H   UNL     1      43.466 -13.979   2.427  1.00  0.00     0.134 HD
ENDROOT
BRANCH   1   9
HETATM    9  C   UNL     1      41.275 -15.089   4.364  1.00  0.00     0.028 C 
HETATM   10  C   UNL     1      42.234 -14.328   5.304  1.00  0.00     0.035 C 
HETATM   11  C   UNL     1      43.564 -15.029   5.573  1.00  0.00     0.235 C 
HETATM   12  N   UNL     1      43.335 -16.449   6.029  1.00  0.00    -0.067 N 
HETATM   13  H   UNL     1      42.861 -16.394   6.938  1.00  0.00     0.280 HD
HETATM   14  C   UNL     1      42.457 -17.245   5.096  1.00  0.00     0.235 C 
HETATM   15  C   UNL     1      41.131 -16.528   4.897  1.00  0.00     0.035 C 
BRANCH  12  16
HETATM   16  C   UNL     1      44.637 -17.193   6.285  1.00  0.00     0.273 C 
BRANCH  16  17
HETATM   17  C   UNL     1      44.595 -18.654   5.914  1.00  0.00    -0.027 A 
HETATM   18  C   UNL     1      44.185 -19.659   6.815  1.00  0.00    -0.054 A 
HETATM   19  C   UNL     1      44.225 -21.004   6.404  1.00  0.00     0.014 A 
HETATM   20  C   UNL     1      43.693 -19.354   8.205  1.00  0.00     0.049 C 
HETATM   21  C   UNL     1      44.637 -21.363   5.115  1.00  0.00    -0.061 A 
HETATM   22  C   UNL     1      44.691 -22.804   4.701  1.00  0.00     0.048 C 
HETATM   23  C   UNL     1      45.037 -20.363   4.229  1.00  0.00     0.007 A 
HETATM   24  C   UNL     1      45.011 -19.025   4.620  1.00  0.00     0.010 A 
ENDBRANCH  16  17
ENDBRANCH  12  16
ENDBRANCH   1   9
BRANCH   1  25
HETATM   25  C   UNL     1      42.323 -16.235   2.316  1.00  0.00     0.067 A 
HETATM   26  N   UNL     1      41.487 -17.262   1.980  1.00  0.00    -0.263 NA
HETATM   27  C   UNL     1      42.053 -18.405   1.528  1.00  0.00     0.117 A 
HETATM   28  C   UNL     1      43.415 -18.569   1.350  1.00  0.00     0.019 A 
HETATM   29  C   UNL     1      44.250 -17.501   1.654  1.00  0.00     0.003 A 
HETATM   30  C   UNL     1      43.704 -16.317   2.140  1.00  0.00     0.030 A 
ENDBRANCH   1  25
BRANCH   5  31
HETATM   31  C   UNL     1      39.844 -12.986   0.186  1.00  0.00     0.168 C 
BRANCH  31  32
HETATM   32  C   UNL     1      39.748 -13.875  -1.054  1.00  0.00     0.140 C 
HETATM   33  O   UNL     1      41.080 -14.212  -1.492  1.00  0.00    -0.384 OA
HETATM   34  C   UNL     1      41.195 -13.913  -2.889  1.00  0.00     0.168 C 
HETATM   35  C   UNL     1      39.781 -13.833  -3.415  1.00  0.00     0.029 C 
HETATM   36  C   UNL     1      39.054 -13.221  -2.243  1.00  0.00     0.036 C 
ENDBRANCH  31  32
ENDBRANCH   5  31
TORSDOF 6
ENDMDL
MODEL 6
REMARK VINA RESULT:      -8.6      4.032      8.558
REMARK  6 active torsions:
REMARK  status: ('A' for Active; 'I' for Inactive)
REMARK    1  A    between atoms: C_6  and  C_7 
REMARK    2  A    between atoms: C_7  and  N_8 
REMARK    3  A    between atoms: C_12  and  C_13 
REMARK    4  A    between atoms: C_13  and  C_14 
REMARK    5  A    between atoms: N_23  and  C_24 
REMARK    6  A    between atoms: C_24  and  C_25 
ROOT
HETATM    1  C   UNL     1      40.358 -12.975   4.620  1.00  0.00     0.149 C 
HETATM    2  N   UNL     1      41.633 -12.771   5.295  1.00  0.00    -0.220 NA
HETATM    3  C   UNL     1      41.546 -11.759   6.229  1.00  0.00     0.304 C 
HETATM    4  O   UNL     1      42.526 -11.307   6.795  1.00  0.00    -0.253 OA
HETATM    5  N   UNL     1      40.248 -11.404   6.389  1.00  0.00    -0.270 N 
HETATM    6  C   UNL     1      39.457 -12.097   5.519  1.00  0.00     0.257 C 
HETATM    7  O   UNL     1      38.237 -12.045   5.457  1.00  0.00    -0.270 OA
HETATM    8  H   UNL     1      42.462 -12.672   4.710  1.00  0.00     0.134 HD
ENDROOT
BRANCH   1   9
HETATM    9  C   UNL     1      39.903 -14.470   4.634  1.00  0.00     0.028 C 
HETATM   10  C   UNL     1      40.386 -15.271   5.862  1.00  0.00     0.035 C 
HETATM   11  C   UNL     1      41.844 -15.721   5.806  1.00  0.00     0.235 C 
HETATM   12  N   UNL     1      42.129 -16.443   4.513  1.00  0.00    -0.067 N 
HETATM   13  H   UNL     1      41.573 -17.306   4.528  1.00  0.00     0.280 HD
HETATM   14  C   UNL     1      41.734 -15.659   3.286  1.00  0.00     0.235 C 
HETATM   15  C   UNL     1      40.265 -15.275   3.370  1.00  0.00     0.035 C 
BRANCH  12  16
HETATM   16  C   UNL     1      43.581 -16.888   4.405  1.00  0.00     0.273 C 
BRANCH  16  17
HETATM   17  C   UNL     1      43.763 -18.246   3.777  1.00  0.00    -0.027 A 
HETATM   18  C   UNL     1      44.324 -19.339   4.471  1.00  0.00    -0.054 A 
HETATM   19  C   UNL     1      44.508 -20.559   3.794  1.00  0.00     0.014 A 
HETATM   20  C   UNL     1      44.730 -19.261   5.919  1.00  0.00     0.049 C 
HETATM   21  C   UNL     1      44.122 -20.718   2.458  1.00  0.00    -0.061 A 
HETATM   22  C   UNL     1      44.342 -22.021   1.747  1.00  0.00     0.048 C 
HETATM   23  C   UNL     1      43.565 -19.634   1.780  1.00  0.00     0.007 A 
HETATM   24  C   UNL     1      43.382 -18.416   2.432  1.00  0.00     0.010 A 
ENDBRANCH  16  17
ENDBRANCH  12  16
ENDBRANCH   1   9
BRANCH   1  25
HETATM   25  C   UNL     1      40.444 -12.403   3.205  1.00  0.00     0.067 A 
HETATM   26  N   UNL     1      41.707 -12.291   2.694  1.00  0.00    -0.263 NA
HETATM   27  C   UNL     1      41.833 -11.767   1.453  1.00  0.00     0.117 A 
HETATM   28  C   UNL     1      40.760 -11.385   0.668  1.00  0.00     0.019 A 
HETATM   29  C   UNL     1      39.479 -11.546   1.183  1.00  0.00     0.003 A 
HETATM   30  C   UNL     1      39.313 -12.064   2.464  1.00  0.00     0.030 A 
ENDBRANCH   1  25
BRANCH   5  31
HETATM   31  C   UNL     1      39.786 -10.360   7.283  1.00  0.00     0.168 C 
BRANCH  31  32
HETATM   32  C   UNL     1      39.468 -10.852   8.695  1.00  0.00     0.140 C 
HETATM   33  O   UNL     1      38.283 -10.181   9.169  1.00  0.00    -0.384 OA
HETATM   34  C   UNL     1      38.557  -9.617  10.458  1.00  0.00     0.168 C 
HETATM   35  C   UNL     1      39.770 -10.348  10.983  1.00  0.00     0.029 C 
HETATM   36  C   UNL     1      40.562 -10.570   9.719  1.00  0.00     0.036 C 
ENDBRANCH  31  32
ENDBRANCH   5  31
TORSDOF 6
ENDMDL
MODEL 7
REMARK VINA RESULT:      -8.6      2.470      7.596
REMARK  6 active torsions:
REMARK  status: ('A' for Active; 'I' for Inactive)
REMARK    1  A    between atoms: C_6  and  C_7 
REMARK    2  A    between atoms: C_7  and  N_8 
REMARK    3  A    between atoms: C_12  and  C_13 
REMARK    4  A    between atoms: C_13  and  C_14 
REMARK    5  A    between atoms: N_23  and  C_24 
REMARK    6  A    between atoms: C_24  and  C_25 
ROOT
HETATM    1  C   UNL     1      40.588 -13.217   3.203  1.00  0.00     0.149 C 
HETATM    2  N   UNL     1      39.925 -14.512   3.271  1.00  0.00    -0.220 NA
HETATM    3  C   UNL     1      40.266 -15.305   2.194  1.00  0.00     0.304 C 
HETATM    4  O   UNL     1      39.707 -16.362   1.958  1.00  0.00    -0.253 OA
HETATM    5  N   UNL     1      41.280 -14.722   1.510  1.00  0.00    -0.270 N 
HETATM    6  C   UNL     1      41.580 -13.506   2.052  1.00  0.00     0.257 C 
HETATM    7  O   UNL     1      42.484 -12.763   1.698  1.00  0.00    -0.270 OA
HETATM    8  H   UNL     1      38.919 -14.514   3.436  1.00  0.00     0.134 HD
ENDROOT
BRANCH   1   9
HETATM    9  C   UNL     1      41.333 -12.853   4.527  1.00  0.00     0.028 C 
HETATM   10  C   UNL     1      42.774 -13.402   4.619  1.00  0.00     0.035 C 
HETATM   11  C   UNL     1      42.877 -14.884   4.974  1.00  0.00     0.235 C 
HETATM   12  N   UNL     1      42.074 -15.191   6.215  1.00  0.00    -0.067 N 
HETATM   13  H   UNL     1      42.524 -14.688   6.988  1.00  0.00     0.280 HD
HETATM   14  C   UNL     1      40.640 -14.730   6.132  1.00  0.00     0.235 C 
HETATM   15  C   UNL     1      40.593 -13.242   5.822  1.00  0.00     0.035 C 
BRANCH  12  16
HETATM   16  C   UNL     1      42.130 -16.665   6.591  1.00  0.00     0.273 C 
BRANCH  16  17
HETATM   17  C   UNL     1      42.684 -17.555   5.508  1.00  0.00    -0.027 A 
HETATM   18  C   UNL     1      43.958 -18.156   5.593  1.00  0.00    -0.054 A 
HETATM   19  C   UNL     1      44.422 -18.931   4.514  1.00  0.00     0.014 A 
HETATM   20  C   UNL     1      44.847 -18.013   6.800  1.00  0.00     0.049 C 
HETATM   21  C   UNL     1      43.638 -19.140   3.373  1.00  0.00    -0.061 A 
HETATM   22  C   UNL     1      44.157 -19.954   2.224  1.00  0.00     0.048 C 
HETATM   23  C   UNL     1      42.379 -18.545   3.299  1.00  0.00     0.007 A 
HETATM   24  C   UNL     1      41.904 -17.768   4.355  1.00  0.00     0.010 A 
ENDBRANCH  16  17
ENDBRANCH  12  16
ENDBRANCH   1   9
BRANCH   1  25
HETATM   25  C   UNL     1      39.569 -12.154   2.795  1.00  0.00     0.067 A 
HETATM   26  N   UNL     1      38.543 -12.597   2.008  1.00  0.00    -0.263 NA
HETATM   27  C   UNL     1      37.630 -11.684   1.602  1.00  0.00     0.117 A 
HETATM   28  C   UNL     1      37.658 -10.353   1.974  1.00  0.00     0.019 A 
HETATM   29  C   UNL     1      38.682  -9.925   2.810  1.00  0.00     0.003 A 
HETATM   30  C   UNL     1      39.650 -10.832   3.231  1.00  0.00     0.030 A 
ENDBRANCH   1  25
BRANCH   5  31
HETATM   31  C   UNL     1      41.884 -15.270   0.310  1.00  0.00     0.168 C 
BRANCH  31  32
HETATM   32  C   UNL     1      41.293 -14.716  -0.987  1.00  0.00     0.140 C 
HETATM   33  O   UNL     1      42.085 -13.593  -1.421  1.00  0.00    -0.384 OA
HETATM   34  C   UNL     1      41.214 -12.483  -1.672  1.00  0.00     0.168 C 
HETATM   35  C   UNL     1      39.833 -13.070  -1.846  1.00  0.00     0.029 C 
HETATM   36  C   UNL     1      39.861 -14.210  -0.858  1.00  0.00     0.036 C 
ENDBRANCH  31  32
ENDBRANCH   5  31
TORSDOF 6
ENDMDL
MODEL 8
REMARK VINA RESULT:      -8.6      2.660      7.501
REMARK  6 active torsions:
REMARK  status: ('A' for Active; 'I' for Inactive)
REMARK    1  A    between atoms: C_6  and  C_7 
REMARK    2  A    between atoms: C_7  and  N_8 
REMARK    3  A    between atoms: C_12  and  C_13 
REMARK    4  A    between atoms: C_13  and  C_14 
REMARK    5  A    between atoms: N_23  and  C_24 
REMARK    6  A    between atoms: C_24  and  C_25 
ROOT
HETATM    1  C   UNL     1      41.172 -13.013   2.993  1.00  0.00     0.149 C 
HETATM    2  N   UNL     1      40.290 -14.171   3.011  1.00  0.00    -0.220 NA
HETATM    3  C   UNL     1      39.562 -14.262   1.841  1.00  0.00     0.304 C 
HETATM    4  O   UNL     1      38.647 -15.054   1.701  1.00  0.00    -0.253 OA
HETATM    5  N   UNL     1      40.042 -13.369   0.943  1.00  0.00    -0.270 N 
HETATM    6  C   UNL     1      41.029 -12.613   1.506  1.00  0.00     0.257 C 
HETATM    7  O   UNL     1      41.699 -11.762   0.938  1.00  0.00    -0.270 OA
HETATM    8  H   UNL     1      39.699 -14.297   3.832  1.00  0.00     0.134 HD
ENDROOT
BRANCH   1   9
HETATM    9  C   UNL     1      42.649 -13.376   3.351  1.00  0.00     0.028 C 
HETATM   10  C   UNL     1      43.238 -14.539   2.523  1.00  0.00     0.035 C 
HETATM   11  C   UNL     1      42.793 -15.933   2.963  1.00  0.00     0.235 C 
HETATM   12  N   UNL     1      43.019 -16.122   4.443  1.00  0.00    -0.067 N 
HETATM   13  H   UNL     1      44.034 -16.094   4.592  1.00  0.00     0.280 HD
HETATM   14  C   UNL     1      42.397 -15.039   5.289  1.00  0.00     0.235 C 
HETATM   15  C   UNL     1      42.905 -13.678   4.841  1.00  0.00     0.035 C 
BRANCH  12  16
HETATM   16  C   UNL     1      42.566 -17.491   4.928  1.00  0.00     0.273 C 
BRANCH  16  17
HETATM   17  C   UNL     1      43.125 -18.642   4.132  1.00  0.00    -0.027 A 
HETATM   18  C   UNL     1      44.140 -19.489   4.624  1.00  0.00    -0.054 A 
HETATM   19  C   UNL     1      44.644 -20.508   3.795  1.00  0.00     0.014 A 
HETATM   20  C   UNL     1      44.706 -19.358   6.014  1.00  0.00     0.049 C 
HETATM   21  C   UNL     1      44.142 -20.715   2.505  1.00  0.00    -0.061 A 
HETATM   22  C   UNL     1      44.704 -21.796   1.627  1.00  0.00     0.048 C 
HETATM   23  C   UNL     1      43.136 -19.875   2.026  1.00  0.00     0.007 A 
HETATM   24  C   UNL     1      42.630 -18.856   2.831  1.00  0.00     0.010 A 
ENDBRANCH  16  17
ENDBRANCH  12  16
ENDBRANCH   1   9
BRANCH   1  25
HETATM   25  C   UNL     1      40.598 -11.932   3.909  1.00  0.00     0.067 A 
HETATM   26  N   UNL     1      39.651 -12.360   4.797  1.00  0.00    -0.263 NA
HETATM   27  C   UNL     1      39.097 -11.433   5.612  1.00  0.00     0.117 A 
HETATM   28  C   UNL     1      39.467 -10.100   5.622  1.00  0.00     0.019 A 
HETATM   29  C   UNL     1      40.463  -9.688   4.745  1.00  0.00     0.003 A 
HETATM   30  C   UNL     1      41.041 -10.611   3.878  1.00  0.00     0.030 A 
ENDBRANCH   1  25
BRANCH   5  31
HETATM   31  C   UNL     1      39.507 -13.177  -0.392  1.00  0.00     0.168 C 
BRANCH  31  32
HETATM   32  C   UNL     1      40.438 -13.659  -1.506  1.00  0.00     0.140 C 
HETATM   33  O   UNL     1      39.741 -13.579  -2.765  1.00  0.00    -0.384 OA
HETATM   34  C   UNL     1      39.851 -14.842  -3.434  1.00  0.00     0.168 C 
HETATM   35  C   UNL     1      41.021 -15.551  -2.793  1.00  0.00     0.029 C 
HETATM   36  C   UNL     1      40.897 -15.105  -1.357  1.00  0.00     0.036 C 
ENDBRANCH  31  32
ENDBRANCH   5  31
TORSDOF 6
ENDMDL
MODEL 9
REMARK VINA RESULT:      -8.3      3.329      8.688
REMARK  6 active torsions:
REMARK  status: ('A' for Active; 'I' for Inactive)
REMARK    1  A    between atoms: C_6  and  C_7 
REMARK    2  A    between atoms: C_7  and  N_8 
REMARK    3  A    between atoms: C_12  and  C_13 
REMARK    4  A    between atoms: C_13  and  C_14 
REMARK    5  A    between atoms: N_23  and  C_24 
REMARK    6  A    between atoms: C_24  and  C_25 
ROOT
HETATM    1  C   UNL     1      40.537 -13.275   1.191  1.00  0.00     0.149 C 
HETATM    2  N   UNL     1      41.441 -13.111   2.321  1.00  0.00    -0.220 NA
HETATM    3  C   UNL     1      40.883 -12.306   3.294  1.00  0.00     0.304 C 
HETATM    4  O   UNL     1      41.520 -11.900   4.250  1.00  0.00    -0.253 OA
HETATM    5  N   UNL     1      39.579 -12.086   3.001  1.00  0.00    -0.270 N 
HETATM    6  C   UNL     1      39.259 -12.656   1.803  1.00  0.00     0.257 C 
HETATM    7  O   UNL     1      38.148 -12.683   1.291  1.00  0.00    -0.270 OA
HETATM    8  H   UNL     1      42.402 -12.840   2.116  1.00  0.00     0.134 HD
ENDROOT
BRANCH   1   9
HETATM    9  C   UNL     1      40.323 -14.774   0.806  1.00  0.00     0.028 C 
HETATM   10  C   UNL     1      39.762 -15.651   1.947  1.00  0.00     0.035 C 
HETATM   11  C   UNL     1      40.786 -16.073   2.998  1.00  0.00     0.235 C 
HETATM   12  N   UNL     1      41.993 -16.700   2.344  1.00  0.00    -0.067 N 
HETATM   13  H   UNL     1      41.672 -17.570   1.905  1.00  0.00     0.280 HD
HETATM   14  C   UNL     1      42.610 -15.838   1.270  1.00  0.00     0.235 C 
HETATM   15  C   UNL     1      41.562 -15.484   0.227  1.00  0.00     0.035 C 
BRANCH  12  16
HETATM   16  C   UNL     1      43.052 -17.113   3.357  1.00  0.00     0.273 C 
BRANCH  16  17
HETATM   17  C   UNL     1      43.497 -18.548   3.230  1.00  0.00    -0.027 A 
HETATM   18  C   UNL     1      44.284 -19.191   4.208  1.00  0.00    -0.054 A 
HETATM   19  C   UNL     1      44.702 -20.517   3.987  1.00  0.00     0.014 A 
HETATM   20  C   UNL     1      44.692 -18.522   5.494  1.00  0.00     0.049 C 
HETATM   21  C   UNL     1      44.331 -21.217   2.832  1.00  0.00    -0.061 A 
HETATM   22  C   UNL     1      44.801 -22.624   2.605  1.00  0.00     0.048 C 
HETATM   23  C   UNL     1      43.551 -20.574   1.872  1.00  0.00     0.007 A 
HETATM   24  C   UNL     1      43.133 -19.259   2.070  1.00  0.00     0.010 A 
ENDBRANCH  16  17
ENDBRANCH  12  16
ENDBRANCH   1   9
BRANCH   1  25
HETATM   25  C   UNL     1      41.045 -12.438   0.017  1.00  0.00     0.067 A 
HETATM   26  N   UNL     1      42.298 -11.916   0.170  1.00  0.00    -0.263 NA
HETATM   27  C   UNL     1      42.780 -11.146  -0.835  1.00  0.00     0.117 A 
HETATM   28  C   UNL     1      42.094 -10.902  -2.010  1.00  0.00     0.019 A 
HETATM   29  C   UNL     1      40.838 -11.475  -2.170  1.00  0.00     0.003 A 
HETATM   30  C   UNL     1      40.303 -12.256  -1.149  1.00  0.00     0.030 A 
ENDBRANCH   1  25
BRANCH   5  31
HETATM   31  C   UNL     1      38.684 -11.270   3.799  1.00  0.00     0.168 C 
BRANCH  31  32
HETATM   32  C   UNL     1      38.520  -9.842   3.279  1.00  0.00     0.140 C 
HETATM   33  O   UNL     1      37.299  -9.757   2.518  1.00  0.00    -0.384 OA
HETATM   34  C   UNL     1      37.589  -9.169   1.244  1.00  0.00     0.168 C 
HETATM   35  C   UNL     1      38.912  -8.457   1.406  1.00  0.00     0.029 C 
HETATM   36  C   UNL     1      39.639  -9.380   2.353  1.00  0.00     0.036 C 
ENDBRANCH  31  32
ENDBRANCH   5  31
TORSDOF 6
ENDMDL
MODEL 10
REMARK VINA RESULT:      -8.3      3.572      8.761
REMARK  6 active torsions:
REMARK  status: ('A' for Active; 'I' for Inactive)
REMARK    1  A    between atoms: C_6  and  C_7 
REMARK    2  A    between atoms: C_7  and  N_8 
REMARK    3  A    between atoms: C_12  and  C_13 
REMARK    4  A    between atoms: C_13  and  C_14 
REMARK    5  A    between atoms: N_23  and  C_24 
REMARK    6  A    between atoms: C_24  and  C_25 
ROOT
HETATM    1  C   UNL     1      41.589 -15.254   3.245  1.00  0.00     0.149 C 
HETATM    2  N   UNL     1      42.370 -14.050   2.997  1.00  0.00    -0.220 NA
HETATM    3  C   UNL     1      41.906 -13.375   1.886  1.00  0.00     0.304 C 
HETATM    4  O   UNL     1      42.505 -12.434   1.396  1.00  0.00    -0.253 OA
HETATM    5  N   UNL     1      40.731 -13.919   1.487  1.00  0.00    -0.270 N 
HETATM    6  C   UNL     1      40.428 -15.007   2.254  1.00  0.00     0.257 C 
HETATM    7  O   UNL     1      39.408 -15.678   2.182  1.00  0.00    -0.270 OA
HETATM    8  H   UNL     1      43.385 -14.146   2.982  1.00  0.00     0.134 HD
ENDROOT
BRANCH   1   9
HETATM    9  C   UNL     1      41.077 -15.345   4.719  1.00  0.00     0.028 C 
HETATM   10  C   UNL     1      39.924 -14.374   5.054  1.00  0.00     0.035 C 
HETATM   11  C   UNL     1      40.349 -12.928   5.296  1.00  0.00     0.235 C 
HETATM   12  N   UNL     1      41.458 -12.862   6.318  1.00  0.00    -0.067 N 
HETATM   13  H   UNL     1      41.059 -13.187   7.206  1.00  0.00     0.280 HD
HETATM   14  C   UNL     1      42.634 -13.747   5.986  1.00  0.00     0.235 C 
HETATM   15  C   UNL     1      42.165 -15.181   5.800  1.00  0.00     0.035 C 
BRANCH  12  16
HETATM   16  C   UNL     1      41.930 -11.438   6.571  1.00  0.00     0.273 C 
BRANCH  16  17
HETATM   17  C   UNL     1      42.184 -11.123   8.024  1.00  0.00    -0.027 A 
HETATM   18  C   UNL     1      41.194 -10.586   8.873  1.00  0.00    -0.054 A 
HETATM   19  C   UNL     1      41.529 -10.272  10.203  1.00  0.00     0.014 A 
HETATM   20  C   UNL     1      39.779 -10.342   8.420  1.00  0.00     0.049 C 
HETATM   21  C   UNL     1      42.815 -10.505  10.707  1.00  0.00    -0.061 A 
HETATM   22  C   UNL     1      43.160 -10.146  12.123  1.00  0.00     0.048 C 
HETATM   23  C   UNL     1      43.787 -11.039   9.861  1.00  0.00     0.007 A 
HETATM   24  C   UNL     1      43.475 -11.350   8.539  1.00  0.00     0.010 A 
ENDBRANCH  16  17
ENDBRANCH  12  16
ENDBRANCH   1   9
BRANCH   1  25
HETATM   25  C   UNL     1      42.409 -16.477   2.836  1.00  0.00     0.067 A 
HETATM   26  N   UNL     1      43.456 -16.225   1.994  1.00  0.00    -0.263 NA
HETATM   27  C   UNL     1      44.196 -17.282   1.584  1.00  0.00     0.117 A 
HETATM   28  C   UNL     1      43.976 -18.580   2.005  1.00  0.00     0.019 A 
HETATM   29  C   UNL     1      42.936 -18.816   2.895  1.00  0.00     0.003 A 
HETATM   30  C   UNL     1      42.141 -17.756   3.322  1.00  0.00     0.030 A 
ENDBRANCH   1  25
BRANCH   5  31
HETATM   31  C   UNL     1      39.965 -13.470   0.341  1.00  0.00     0.168 C 
BRANCH  31  32
HETATM   32  C   UNL     1      39.015 -12.311   0.648  1.00  0.00     0.140 C 
HETATM   33  O   UNL     1      39.726 -11.068   0.486  1.00  0.00    -0.384 OA
HETATM   34  C   UNL     1      39.543 -10.274   1.665  1.00  0.00     0.168 C 
HETATM   35  C   UNL     1      38.326 -10.838   2.361  1.00  0.00     0.029 C 
HETATM   36  C   UNL     1      38.465 -12.312   2.070  1.00  0.00     0.036 C 
ENDBRANCH  31  32
ENDBRANCH   5  31
TORSDOF 6
ENDMDL
