MODEL 1
REMARK VINA RESULT:      -8.5      0.000      0.000
REMARK  8 active torsions:
REMARK  status: ('A' for Active; 'I' for Inactive)
REMARK    1  A    between atoms: C_2  and  C_3 
REMARK    2  A    between atoms: C_3  and  C_4 
REMARK    3  A    between atoms: C_7  and  C_8 
REMARK    4  A    between atoms: C_8  and  N_9 
REMARK    5  A    between atoms: C_8  and  C_26 
REMARK    6  A    between atoms: N_9  and  C_12 
REMARK    7  A    between atoms: C_12  and  C_13 
REMARK       I    between atoms: C_13  and  N_14 
REMARK    8  A    between atoms: N_14  and  C_15 
ROOT
HETATM    1  N   UNL     1      39.405 -15.216   0.883  1.00  0.00    -0.054 N 
HETATM    2  H   UNL     1      38.786 -15.184   0.064  1.00  0.00     0.278 HD
HETATM    3  H   UNL     1      39.240 -16.149   1.290  1.00  0.00     0.278 HD
ENDROOT
BRANCH   1   4
HETATM    4  C   UNL     1      40.813 -15.106   0.410  1.00  0.00     0.259 C 
BRANCH   4   5
HETATM    5  C   UNL     1      41.674 -16.278   0.864  1.00  0.00    -0.023 A 
HETATM    6  C   UNL     1      43.077 -16.216   0.914  1.00  0.00     0.010 A 
HETATM    7  C   UNL     1      43.825 -17.304   1.369  1.00  0.00     0.007 A 
HETATM    8  C   UNL     1      43.194 -18.473   1.805  1.00  0.00    -0.058 A 
HETATM    9  C   UNL     1      41.799 -18.541   1.766  1.00  0.00     0.007 A 
HETATM   10  C   UNL     1      41.047 -17.459   1.300  1.00  0.00     0.010 A 
BRANCH   8  11
HETATM   11  C   UNL     1      44.011 -19.626   2.339  1.00  0.00     0.038 C 
BRANCH  11  12
HETATM   12  C   UNL     1      43.518 -20.970   1.798  1.00  0.00     0.000 C 
HETATM   13  C   UNL     1      44.526 -22.078   2.054  1.00  0.00     0.005 C 
ENDBRANCH  11  12
ENDBRANCH   8  11
ENDBRANCH   4   5
BRANCH   4  14
HETATM   14  C   UNL     1      40.883 -14.892  -1.083  1.00  0.00     0.017 A 
HETATM   15  S   UNL     1      40.912 -13.302  -1.743  1.00  0.00    -0.104 SA
HETATM   16  C   UNL     1      40.983 -13.894  -3.342  1.00  0.00     0.050 A 
HETATM   17  C   UNL     1      40.990 -15.269  -3.385  1.00  0.00     0.008 A 
HETATM   18  C   UNL     1      40.933 -15.847  -2.082  1.00  0.00     0.017 A 
ENDBRANCH   4  14
ENDBRANCH   1   4
BRANCH   1  19
HETATM   19  C   UNL     1      38.915 -14.198   1.876  1.00  0.00     0.336 C 
BRANCH  19  20
HETATM   20  C   UNL     1      40.061 -13.868   2.836  1.00  0.00     0.248 C 
HETATM   21  N   UNL     1      40.440 -14.900   3.667  1.00  0.00    -0.326 N 
HETATM   22  H   UNL     1      39.927 -15.775   3.628  1.00  0.00     0.169 HD
HETATM   23  O   UNL     1      40.563 -12.748   2.753  1.00  0.00    -0.271 OA
BRANCH  21  24
HETATM   24  C   UNL     1      41.529 -14.896   4.574  1.00  0.00     0.037 A 
HETATM   25  C   UNL     1      41.820 -13.827   5.432  1.00  0.00     0.061 A 
HETATM   26  C   UNL     1      42.929 -13.953   6.240  1.00  0.00     0.065 A 
HETATM   27  C   UNL     1      43.741 -15.083   6.226  1.00  0.00     0.063 A 
HETATM   28  N   UNL     1      43.453 -13.062   7.169  1.00  0.00    -0.306 N 
HETATM   29  N   UNL     1      44.766 -14.887   7.143  1.00  0.00    -0.307 N 
HETATM   30  C   UNL     1      43.485 -16.151   5.405  1.00  0.00     0.034 A 
HETATM   31  C   UNL     1      44.601 -13.629   7.742  1.00  0.00     0.325 A 
HETATM   32  H   UNL     1      45.520 -15.514   7.371  1.00  0.00     0.170 HD
HETATM   33  O   UNL     1      45.314 -13.126   8.589  1.00  0.00    -0.247 OA
HETATM   34  C   UNL     1      42.361 -16.049   4.572  1.00  0.00     0.032 A 
HETATM   35  H   UNL     1      43.101 -12.151   7.421  1.00  0.00     0.170 HD
ENDBRANCH  21  24
ENDBRANCH  19  20
ENDBRANCH   1  19
TORSDOF 8
ENDMDL
MODEL 2
REMARK VINA RESULT:      -8.4      2.388      3.021
REMARK  8 active torsions:
REMARK  status: ('A' for Active; 'I' for Inactive)
REMARK    1  A    between atoms: C_2  and  C_3 
REMARK    2  A    between atoms: C_3  and  C_4 
REMARK    3  A    between atoms: C_7  and  C_8 
REMARK    4  A    between atoms: C_8  and  N_9 
REMARK    5  A    between atoms: C_8  and  C_26 
REMARK    6  A    between atoms: N_9  and  C_12 
REMARK    7  A    between atoms: C_12  and  C_13 
REMARK       I    between atoms: C_13  and  N_14 
REMARK    8  A    between atoms: N_14  and  C_15 
ROOT
HETATM    1  N   UNL     1      41.258 -14.076   1.476  1.00  0.00    -0.054 N 
HETATM    2  H   UNL     1      40.517 -13.519   1.033  1.00  0.00     0.278 HD
HETATM    3  H   UNL     1      40.757 -14.672   2.154  1.00  0.00     0.278 HD
ENDROOT
BRANCH   1   4
HETATM    4  C   UNL     1      41.897 -14.920   0.428  1.00  0.00     0.259 C 
BRANCH   4   5
HETATM    5  C   UNL     1      42.233 -16.318   0.930  1.00  0.00    -0.023 A 
HETATM    6  C   UNL     1      41.248 -17.280   1.215  1.00  0.00     0.010 A 
HETATM    7  C   UNL     1      41.603 -18.562   1.641  1.00  0.00     0.007 A 
HETATM    8  C   UNL     1      42.947 -18.925   1.774  1.00  0.00    -0.058 A 
HETATM    9  C   UNL     1      43.932 -17.978   1.485  1.00  0.00     0.007 A 
HETATM   10  C   UNL     1      43.582 -16.690   1.070  1.00  0.00     0.010 A 
BRANCH   8  11
HETATM   11  C   UNL     1      43.320 -20.328   2.190  1.00  0.00     0.038 C 
BRANCH  11  12
HETATM   12  C   UNL     1      44.641 -20.359   2.962  1.00  0.00     0.000 C 
HETATM   13  C   UNL     1      44.726 -21.574   3.872  1.00  0.00     0.005 C 
ENDBRANCH  11  12
ENDBRANCH   8  11
ENDBRANCH   4   5
BRANCH   4  14
HETATM   14  C   UNL     1      41.076 -14.950  -0.838  1.00  0.00     0.017 A 
HETATM   15  S   UNL     1      39.690 -13.944  -1.013  1.00  0.00    -0.104 SA
HETATM   16  C   UNL     1      39.371 -14.540  -2.580  1.00  0.00     0.050 A 
HETATM   17  C   UNL     1      40.295 -15.480  -2.974  1.00  0.00     0.008 A 
HETATM   18  C   UNL     1      41.280 -15.717  -1.971  1.00  0.00     0.017 A 
ENDBRANCH   4  14
ENDBRANCH   1   4
BRANCH   1  19
HETATM   19  C   UNL     1      42.137 -13.142   2.260  1.00  0.00     0.336 C 
BRANCH  19  20
HETATM   20  C   UNL     1      42.900 -13.959   3.306  1.00  0.00     0.248 C 
HETATM   21  N   UNL     1      42.114 -14.757   4.110  1.00  0.00    -0.326 N 
HETATM   22  H   UNL     1      41.106 -14.724   3.997  1.00  0.00     0.169 HD
HETATM   23  O   UNL     1      44.127 -13.869   3.308  1.00  0.00    -0.271 OA
BRANCH  21  24
HETATM   24  C   UNL     1      42.568 -15.681   5.083  1.00  0.00     0.037 A 
HETATM   25  C   UNL     1      42.542 -17.071   4.905  1.00  0.00     0.061 A 
HETATM   26  C   UNL     1      42.991 -17.848   5.951  1.00  0.00     0.065 A 
HETATM   27  C   UNL     1      43.459 -17.301   7.142  1.00  0.00     0.063 A 
HETATM   28  N   UNL     1      43.071 -19.231   6.054  1.00  0.00    -0.306 N 
HETATM   29  N   UNL     1      43.824 -18.348   7.980  1.00  0.00    -0.307 N 
HETATM   30  C   UNL     1      43.507 -15.947   7.350  1.00  0.00     0.034 A 
HETATM   31  C   UNL     1      43.588 -19.560   7.316  1.00  0.00     0.325 A 
HETATM   32  H   UNL     1      44.198 -18.290   8.913  1.00  0.00     0.170 HD
HETATM   33  O   UNL     1      43.789 -20.680   7.748  1.00  0.00    -0.247 OA
HETATM   34  C   UNL     1      43.055 -15.133   6.301  1.00  0.00     0.032 A 
HETATM   35  H   UNL     1      42.813 -19.920   5.365  1.00  0.00     0.170 HD
ENDBRANCH  21  24
ENDBRANCH  19  20
ENDBRANCH   1  19
TORSDOF 8
ENDMDL
MODEL 3
REMARK VINA RESULT:      -8.3      3.511      6.199
REMARK  8 active torsions:
REMARK  status: ('A' for Active; 'I' for Inactive)
REMARK    1  A    between atoms: C_2  and  C_3 
REMARK    2  A    between atoms: C_3  and  C_4 
REMARK    3  A    between atoms: C_7  and  C_8 
REMARK    4  A    between atoms: C_8  and  N_9 
REMARK    5  A    between atoms: C_8  and  C_26 
REMARK    6  A    between atoms: N_9  and  C_12 
REMARK    7  A    between atoms: C_12  and  C_13 
REMARK       I    between atoms: C_13  and  N_14 
REMARK    8  A    between atoms: N_14  and  C_15 
ROOT
HETATM    1  N   UNL     1      40.844 -13.833   2.032  1.00  0.00    -0.054 N 
HETATM    2  H   UNL     1      40.736 -12.925   1.565  1.00  0.00     0.278 HD
HETATM    3  H   UNL     1      41.865 -13.970   2.090  1.00  0.00     0.278 HD
ENDROOT
BRANCH   1   4
HETATM    4  C   UNL     1      40.263 -13.728   3.399  1.00  0.00     0.259 C 
BRANCH   4   5
HETATM    5  C   UNL     1      41.178 -14.311   4.468  1.00  0.00    -0.023 A 
HETATM    6  C   UNL     1      40.805 -15.397   5.279  1.00  0.00     0.010 A 
HETATM    7  C   UNL     1      41.690 -15.921   6.224  1.00  0.00     0.007 A 
HETATM    8  C   UNL     1      42.975 -15.392   6.371  1.00  0.00    -0.058 A 
HETATM    9  C   UNL     1      43.358 -14.317   5.564  1.00  0.00     0.007 A 
HETATM   10  C   UNL     1      42.472 -13.782   4.625  1.00  0.00     0.010 A 
BRANCH   8  11
HETATM   11  C   UNL     1      43.940 -15.997   7.364  1.00  0.00     0.038 C 
BRANCH  11  12
HETATM   12  C   UNL     1      43.302 -17.146   8.147  1.00  0.00     0.000 C 
HETATM   13  C   UNL     1      43.832 -18.495   7.688  1.00  0.00     0.005 C 
ENDBRANCH  11  12
ENDBRANCH   8  11
ENDBRANCH   4   5
BRANCH   4  14
HETATM   14  C   UNL     1      39.843 -12.314   3.718  1.00  0.00     0.017 A 
HETATM   15  S   UNL     1      40.348 -11.001   2.724  1.00  0.00    -0.104 SA
HETATM   16  C   UNL     1      39.522  -9.863   3.692  1.00  0.00     0.050 A 
HETATM   17  C   UNL     1      38.869 -10.458   4.746  1.00  0.00     0.008 A 
HETATM   18  C   UNL     1      39.052 -11.872   4.763  1.00  0.00     0.017 A 
ENDBRANCH   4  14
ENDBRANCH   1   4
BRANCH   1  19
HETATM   19  C   UNL     1      40.299 -14.894   1.116  1.00  0.00     0.336 C 
BRANCH  19  20
HETATM   20  C   UNL     1      40.743 -16.262   1.641  1.00  0.00     0.248 C 
HETATM   21  N   UNL     1      42.106 -16.461   1.672  1.00  0.00    -0.326 N 
HETATM   22  H   UNL     1      42.716 -15.732   1.315  1.00  0.00     0.169 HD
HETATM   23  O   UNL     1      39.863 -17.033   2.025  1.00  0.00    -0.271 OA
BRANCH  21  24
HETATM   24  C   UNL     1      42.783 -17.588   2.201  1.00  0.00     0.037 A 
HETATM   25  C   UNL     1      42.808 -18.842   1.576  1.00  0.00     0.061 A 
HETATM   26  C   UNL     1      43.483 -19.854   2.223  1.00  0.00     0.065 A 
HETATM   27  C   UNL     1      44.124 -19.665   3.443  1.00  0.00     0.063 A 
HETATM   28  N   UNL     1      43.662 -21.179   1.846  1.00  0.00    -0.306 N 
HETATM   29  N   UNL     1      44.695 -20.874   3.820  1.00  0.00    -0.307 N 
HETATM   30  C   UNL     1      44.128 -18.452   4.082  1.00  0.00     0.034 A 
HETATM   31  C   UNL     1      44.417 -21.831   2.834  1.00  0.00     0.325 A 
HETATM   32  H   UNL     1      45.227 -21.074   4.652  1.00  0.00     0.170 HD
HETATM   33  O   UNL     1      44.758 -22.999   2.833  1.00  0.00    -0.247 OA
HETATM   34  C   UNL     1      43.447 -17.404   3.444  1.00  0.00     0.032 A 
HETATM   35  H   UNL     1      43.326 -21.639   1.014  1.00  0.00     0.170 HD
ENDBRANCH  21  24
ENDBRANCH  19  20
ENDBRANCH   1  19
TORSDOF 8
ENDMDL
MODEL 4
REMARK VINA RESULT:      -8.2      4.006      6.590
REMARK  8 active torsions:
REMARK  status: ('A' for Active; 'I' for Inactive)
REMARK    1  A    between atoms: C_2  and  C_3 
REMARK    2  A    between atoms: C_3  and  C_4 
REMARK    3  A    between atoms: C_7  and  C_8 
REMARK    4  A    between atoms: C_8  and  N_9 
REMARK    5  A    between atoms: C_8  and  C_26 
REMARK    6  A    between atoms: N_9  and  C_12 
REMARK    7  A    between atoms: C_12  and  C_13 
REMARK       I    between atoms: C_13  and  N_14 
REMARK    8  A    between atoms: N_14  and  C_15 
ROOT
HETATM    1  N   UNL     1      43.785 -14.316   7.107  1.00  0.00    -0.054 N 
HETATM    2  H   UNL     1      43.039 -13.790   7.578  1.00  0.00     0.278 HD
HETATM    3  H   UNL     1      43.808 -15.222   7.602  1.00  0.00     0.278 HD
ENDROOT
BRANCH   1   4
HETATM    4  C   UNL     1      43.390 -14.519   5.686  1.00  0.00     0.259 C 
BRANCH   4   5
HETATM    5  C   UNL     1      43.653 -15.939   5.204  1.00  0.00    -0.023 A 
HETATM    6  C   UNL     1      44.071 -16.969   6.065  1.00  0.00     0.010 A 
HETATM    7  C   UNL     1      44.269 -18.266   5.586  1.00  0.00     0.007 A 
HETATM    8  C   UNL     1      44.036 -18.575   4.242  1.00  0.00    -0.058 A 
HETATM    9  C   UNL     1      43.613 -17.560   3.381  1.00  0.00     0.007 A 
HETATM   10  C   UNL     1      43.425 -16.258   3.853  1.00  0.00     0.010 A 
BRANCH   8  11
HETATM   11  C   UNL     1      44.208 -19.991   3.745  1.00  0.00     0.038 C 
BRANCH  11  12
HETATM   12  C   UNL     1      43.732 -20.146   2.299  1.00  0.00     0.000 C 
HETATM   13  C   UNL     1      43.925 -21.568   1.798  1.00  0.00     0.005 C 
ENDBRANCH  11  12
ENDBRANCH   8  11
ENDBRANCH   4   5
BRANCH   4  14
HETATM   14  C   UNL     1      41.964 -14.088   5.439  1.00  0.00     0.017 A 
HETATM   15  S   UNL     1      41.619 -12.604   4.638  1.00  0.00    -0.104 SA
HETATM   16  C   UNL     1      39.935 -12.852   4.758  1.00  0.00     0.050 A 
HETATM   17  C   UNL     1      39.630 -14.037   5.387  1.00  0.00     0.008 A 
HETATM   18  C   UNL     1      40.799 -14.752   5.780  1.00  0.00     0.017 A 
ENDBRANCH   4  14
ENDBRANCH   1   4
BRANCH   1  19
HETATM   19  C   UNL     1      45.090 -13.621   7.382  1.00  0.00     0.336 C 
BRANCH  19  20
HETATM   20  C   UNL     1      44.906 -12.710   8.599  1.00  0.00     0.248 C 
HETATM   21  N   UNL     1      43.652 -12.151   8.725  1.00  0.00    -0.326 N 
HETATM   22  H   UNL     1      42.961 -12.332   8.005  1.00  0.00     0.169 HD
HETATM   23  O   UNL     1      45.860 -12.596   9.369  1.00  0.00    -0.271 OA
BRANCH  21  24
HETATM   24  C   UNL     1      43.187 -11.358   9.803  1.00  0.00     0.037 A 
HETATM   25  C   UNL     1      43.380 -11.690  11.151  1.00  0.00     0.061 A 
HETATM   26  C   UNL     1      42.846 -10.836  12.092  1.00  0.00     0.065 A 
HETATM   27  C   UNL     1      42.145  -9.685  11.746  1.00  0.00     0.063 A 
HETATM   28  N   UNL     1      42.876 -10.919  13.478  1.00  0.00    -0.306 N 
HETATM   29  N   UNL     1      41.740  -9.061  12.919  1.00  0.00    -0.307 N 
HETATM   30  C   UNL     1      41.943  -9.323  10.439  1.00  0.00     0.034 A 
HETATM   31  C   UNL     1      42.188  -9.818  14.011  1.00  0.00     0.325 A 
HETATM   32  H   UNL     1      41.213  -8.208  13.014  1.00  0.00     0.170 HD
HETATM   33  O   UNL     1      42.015  -9.572  15.190  1.00  0.00    -0.247 OA
HETATM   34  C   UNL     1      42.476 -10.175   9.461  1.00  0.00     0.032 A 
HETATM   35  H   UNL     1      43.306 -11.631  14.048  1.00  0.00     0.170 HD
ENDBRANCH  21  24
ENDBRANCH  19  20
ENDBRANCH   1  19
TORSDOF 8
ENDMDL
MODEL 5
REMARK VINA RESULT:      -8.1      1.403      1.714
REMARK  8 active torsions:
REMARK  status: ('A' for Active; 'I' for Inactive)
REMARK    1  A    between atoms: C_2  and  C_3 
REMARK    2  A    between atoms: C_3  and  C_4 
REMARK    3  A    between atoms: C_7  and  C_8 
REMARK    4  A    between atoms: C_8  and  N_9 
REMARK    5  A    between atoms: C_8  and  C_26 
REMARK    6  A    between atoms: N_9  and  C_12 
REMARK    7  A    between atoms: C_12  and  C_13 
REMARK       I    between atoms: C_13  and  N_14 
REMARK    8  A    between atoms: N_14  and  C_15 
ROOT
HETATM    1  N   UNL     1      39.495 -15.152   0.768  1.00  0.00    -0.054 N 
HETATM    2  H   UNL     1      38.969 -15.094  -0.113  1.00  0.00     0.278 HD
HETATM    3  H   UNL     1      39.333 -16.116   1.097  1.00  0.00     0.278 HD
ENDROOT
BRANCH   1   4
HETATM    4  C   UNL     1      40.938 -14.950   0.463  1.00  0.00     0.259 C 
BRANCH   4   5
HETATM    5  C   UNL     1      41.802 -16.111   0.938  1.00  0.00    -0.023 A 
HETATM    6  C   UNL     1      43.129 -15.945   1.372  1.00  0.00     0.010 A 
HETATM    7  C   UNL     1      43.873 -17.034   1.830  1.00  0.00     0.007 A 
HETATM    8  C   UNL     1      43.309 -18.312   1.889  1.00  0.00    -0.058 A 
HETATM    9  C   UNL     1      41.989 -18.486   1.467  1.00  0.00     0.007 A 
HETATM   10  C   UNL     1      41.243 -17.401   0.996  1.00  0.00     0.010 A 
BRANCH   8  11
HETATM   11  C   UNL     1      44.108 -19.474   2.431  1.00  0.00     0.038 C 
BRANCH  11  12
HETATM   12  C   UNL     1      43.424 -20.813   2.150  1.00  0.00     0.000 C 
HETATM   13  C   UNL     1      44.420 -21.860   1.679  1.00  0.00     0.005 C 
ENDBRANCH  11  12
ENDBRANCH   8  11
ENDBRANCH   4   5
BRANCH   4  14
HETATM   14  C   UNL     1      41.160 -14.634  -0.996  1.00  0.00     0.017 A 
HETATM   15  S   UNL     1      41.756 -13.093  -1.482  1.00  0.00    -0.104 SA
HETATM   16  C   UNL     1      41.715 -13.522  -3.133  1.00  0.00     0.050 A 
HETATM   17  C   UNL     1      41.266 -14.809  -3.322  1.00  0.00     0.008 A 
HETATM   18  C   UNL     1      40.945 -15.452  -2.090  1.00  0.00     0.017 A 
ENDBRANCH   4  14
ENDBRANCH   1   4
BRANCH   1  19
HETATM   19  C   UNL     1      38.848 -14.223   1.758  1.00  0.00     0.336 C 
BRANCH  19  20
HETATM   20  C   UNL     1      39.773 -14.087   2.970  1.00  0.00     0.248 C 
HETATM   21  N   UNL     1      40.178 -15.279   3.531  1.00  0.00    -0.326 N 
HETATM   22  H   UNL     1      39.817 -16.148   3.150  1.00  0.00     0.169 HD
HETATM   23  O   UNL     1      40.104 -12.949   3.303  1.00  0.00    -0.271 OA
BRANCH  21  24
HETATM   24  C   UNL     1      41.106 -15.440   4.589  1.00  0.00     0.037 A 
HETATM   25  C   UNL     1      41.139 -16.562   5.428  1.00  0.00     0.061 A 
HETATM   26  C   UNL     1      42.080 -16.568   6.435  1.00  0.00     0.065 A 
HETATM   27  C   UNL     1      42.974 -15.520   6.629  1.00  0.00     0.063 A 
HETATM   28  N   UNL     1      42.332 -17.531   7.405  1.00  0.00    -0.306 N 
HETATM   29  N   UNL     1      43.774 -15.835   7.721  1.00  0.00    -0.307 N 
HETATM   30  C   UNL     1      42.977 -14.410   5.825  1.00  0.00     0.034 A 
HETATM   31  C   UNL     1      43.387 -17.088   8.217  1.00  0.00     0.325 A 
HETATM   32  H   UNL     1      44.517 -15.286   8.121  1.00  0.00     0.170 HD
HETATM   33  O   UNL     1      43.867 -17.677   9.167  1.00  0.00    -0.247 OA
HETATM   34  C   UNL     1      42.028 -14.378   4.793  1.00  0.00     0.032 A 
HETATM   35  H   UNL     1      41.862 -18.413   7.540  1.00  0.00     0.170 HD
ENDBRANCH  21  24
ENDBRANCH  19  20
ENDBRANCH   1  19
TORSDOF 8
ENDMDL
MODEL 6
REMARK VINA RESULT:      -7.9      3.373      6.590
REMARK  8 active torsions:
REMARK  status: ('A' for Active; 'I' for Inactive)
REMARK    1  A    between atoms: C_2  and  C_3 
REMARK    2  A    between atoms: C_3  and  C_4 
REMARK    3  A    between atoms: C_7  and  C_8 
REMARK    4  A    between atoms: C_8  and  N_9 
REMARK    5  A    between atoms: C_8  and  C_26 
REMARK    6  A    between atoms: N_9  and  C_12 
REMARK    7  A    between atoms: C_12  and  C_13 
REMARK       I    between atoms: C_13  and  N_14 
REMARK    8  A    between atoms: N_14  and  C_15 
ROOT
HETATM    1  N   UNL     1      40.229 -16.479   2.205  1.00  0.00    -0.054 N 
HETATM    2  H   UNL     1      40.861 -16.301   1.415  1.00  0.00     0.278 HD
HETATM    3  H   UNL     1      39.769 -17.371   1.966  1.00  0.00     0.278 HD
ENDROOT
BRANCH   1   4
HETATM    4  C   UNL     1      41.054 -16.642   3.435  1.00  0.00     0.259 C 
BRANCH   4   5
HETATM    5  C   UNL     1      42.133 -17.705   3.276  1.00  0.00    -0.023 A 
HETATM    6  C   UNL     1      42.934 -18.141   4.346  1.00  0.00     0.010 A 
HETATM    7  C   UNL     1      43.890 -19.143   4.162  1.00  0.00     0.007 A 
HETATM    8  C   UNL     1      44.058 -19.750   2.914  1.00  0.00    -0.058 A 
HETATM    9  C   UNL     1      43.261 -19.329   1.846  1.00  0.00     0.007 A 
HETATM   10  C   UNL     1      42.311 -18.318   2.023  1.00  0.00     0.010 A 
BRANCH   8  11
HETATM   11  C   UNL     1      45.061 -20.865   2.737  1.00  0.00     0.038 C 
BRANCH  11  12
HETATM   12  C   UNL     1      44.434 -22.238   2.987  1.00  0.00     0.000 C 
HETATM   13  C   UNL     1      44.657 -22.700   4.418  1.00  0.00     0.005 C 
ENDBRANCH  11  12
ENDBRANCH   8  11
ENDBRANCH   4   5
BRANCH   4  14
HETATM   14  C   UNL     1      41.617 -15.323   3.906  1.00  0.00     0.017 A 
HETATM   15  S   UNL     1      41.083 -14.615   5.382  1.00  0.00    -0.104 SA
HETATM   16  C   UNL     1      42.113 -13.269   5.187  1.00  0.00     0.050 A 
HETATM   17  C   UNL     1      42.856 -13.348   4.031  1.00  0.00     0.008 A 
HETATM   18  C   UNL     1      42.571 -14.533   3.291  1.00  0.00     0.017 A 
ENDBRANCH   4  14
ENDBRANCH   1   4
BRANCH   1  19
HETATM   19  C   UNL     1      39.171 -15.411   2.204  1.00  0.00     0.336 C 
BRANCH  19  20
HETATM   20  C   UNL     1      39.376 -14.526   0.971  1.00  0.00     0.248 C 
HETATM   21  N   UNL     1      40.625 -14.611   0.395  1.00  0.00    -0.326 N 
HETATM   22  H   UNL     1      41.328 -15.200   0.831  1.00  0.00     0.169 HD
HETATM   23  O   UNL     1      38.414 -13.865   0.584  1.00  0.00    -0.271 OA
BRANCH  21  24
HETATM   24  C   UNL     1      41.045 -13.982  -0.803  1.00  0.00     0.037 A 
HETATM   25  C   UNL     1      41.390 -12.626  -0.888  1.00  0.00     0.061 A 
HETATM   26  C   UNL     1      41.754 -12.146  -2.127  1.00  0.00     0.065 A 
HETATM   27  C   UNL     1      41.788 -12.951  -3.261  1.00  0.00     0.063 A 
HETATM   28  N   UNL     1      42.131 -10.862  -2.502  1.00  0.00    -0.306 N 
HETATM   29  N   UNL     1      42.184 -12.163  -4.335  1.00  0.00    -0.307 N 
HETATM   30  C   UNL     1      41.465 -14.282  -3.217  1.00  0.00     0.034 A 
HETATM   31  C   UNL     1      42.403 -10.855  -3.879  1.00  0.00     0.325 A 
HETATM   32  H   UNL     1      42.306 -12.443  -5.295  1.00  0.00     0.170 HD
HETATM   33  O   UNL     1      42.756  -9.900  -4.544  1.00  0.00    -0.247 OA
HETATM   34  C   UNL     1      41.091 -14.797  -1.967  1.00  0.00     0.032 A 
HETATM   35  H   UNL     1      42.211 -10.044  -1.919  1.00  0.00     0.170 HD
ENDBRANCH  21  24
ENDBRANCH  19  20
ENDBRANCH   1  19
TORSDOF 8
ENDMDL
MODEL 7
REMARK VINA RESULT:      -7.6      2.981      7.487
REMARK  8 active torsions:
REMARK  status: ('A' for Active; 'I' for Inactive)
REMARK    1  A    between atoms: C_2  and  C_3 
REMARK    2  A    between atoms: C_3  and  C_4 
REMARK    3  A    between atoms: C_7  and  C_8 
REMARK    4  A    between atoms: C_8  and  N_9 
REMARK    5  A    between atoms: C_8  and  C_26 
REMARK    6  A    between atoms: N_9  and  C_12 
REMARK    7  A    between atoms: C_12  and  C_13 
REMARK       I    between atoms: C_13  and  N_14 
REMARK    8  A    between atoms: N_14  and  C_15 
ROOT
HETATM    1  N   UNL     1      42.888 -13.706   2.794  1.00  0.00    -0.054 N 
HETATM    2  H   UNL     1      43.772 -13.246   3.043  1.00  0.00     0.278 HD
HETATM    3  H   UNL     1      43.093 -14.185   1.903  1.00  0.00     0.278 HD
ENDROOT
BRANCH   1   4
HETATM    4  C   UNL     1      42.568 -14.706   3.850  1.00  0.00     0.259 C 
BRANCH   4   5
HETATM    5  C   UNL     1      42.845 -16.136   3.403  1.00  0.00    -0.023 A 
HETATM    6  C   UNL     1      42.281 -17.255   4.040  1.00  0.00     0.010 A 
HETATM    7  C   UNL     1      42.535 -18.546   3.574  1.00  0.00     0.007 A 
HETATM    8  C   UNL     1      43.341 -18.756   2.451  1.00  0.00    -0.058 A 
HETATM    9  C   UNL     1      43.900 -17.650   1.806  1.00  0.00     0.007 A 
HETATM   10  C   UNL     1      43.657 -16.355   2.275  1.00  0.00     0.010 A 
BRANCH   8  11
HETATM   11  C   UNL     1      43.571 -20.154   1.928  1.00  0.00     0.038 C 
BRANCH  11  12
HETATM   12  C   UNL     1      44.760 -20.829   2.616  1.00  0.00     0.000 C 
HETATM   13  C   UNL     1      44.417 -22.242   3.062  1.00  0.00     0.005 C 
ENDBRANCH  11  12
ENDBRANCH   8  11
ENDBRANCH   4   5
BRANCH   4  14
HETATM   14  C   UNL     1      43.251 -14.375   5.155  1.00  0.00     0.017 A 
HETATM   15  S   UNL     1      42.715 -13.053   6.118  1.00  0.00    -0.104 SA
HETATM   16  C   UNL     1      43.910 -13.341   7.301  1.00  0.00     0.050 A 
HETATM   17  C   UNL     1      44.703 -14.421   6.983  1.00  0.00     0.008 A 
HETATM   18  C   UNL     1      44.324 -15.018   5.746  1.00  0.00     0.017 A 
ENDBRANCH   4  14
ENDBRANCH   1   4
BRANCH   1  19
HETATM   19  C   UNL     1      41.872 -12.636   2.507  1.00  0.00     0.336 C 
BRANCH  19  20
HETATM   20  C   UNL     1      41.442 -12.756   1.043  1.00  0.00     0.248 C 
HETATM   21  N   UNL     1      40.958 -13.993   0.676  1.00  0.00    -0.326 N 
HETATM   22  H   UNL     1      40.956 -14.741   1.362  1.00  0.00     0.169 HD
HETATM   23  O   UNL     1      41.522 -11.745   0.346  1.00  0.00    -0.271 OA
BRANCH  21  24
HETATM   24  C   UNL     1      40.405 -14.344  -0.580  1.00  0.00     0.037 A 
HETATM   25  C   UNL     1      39.135 -13.937  -1.009  1.00  0.00     0.061 A 
HETATM   26  C   UNL     1      38.716 -14.379  -2.246  1.00  0.00     0.065 A 
HETATM   27  C   UNL     1      39.503 -15.193  -3.055  1.00  0.00     0.063 A 
HETATM   28  N   UNL     1      37.520 -14.142  -2.911  1.00  0.00    -0.306 N 
HETATM   29  N   UNL     1      38.791 -15.460  -4.217  1.00  0.00    -0.307 N 
HETATM   30  C   UNL     1      40.753 -15.606  -2.672  1.00  0.00     0.034 A 
HETATM   31  C   UNL     1      37.550 -14.811  -4.145  1.00  0.00     0.325 A 
HETATM   32  H   UNL     1      39.079 -16.019  -5.003  1.00  0.00     0.170 HD
HETATM   33  O   UNL     1      36.669 -14.825  -4.983  1.00  0.00    -0.247 OA
HETATM   34  C   UNL     1      41.203 -15.170  -1.417  1.00  0.00     0.032 A 
HETATM   35  H   UNL     1      36.736 -13.590  -2.600  1.00  0.00     0.170 HD
ENDBRANCH  21  24
ENDBRANCH  19  20
ENDBRANCH   1  19
TORSDOF 8
ENDMDL
MODEL 8
REMARK VINA RESULT:      -7.5      2.012      2.715
REMARK  8 active torsions:
REMARK  status: ('A' for Active; 'I' for Inactive)
REMARK    1  A    between atoms: C_2  and  C_3 
REMARK    2  A    between atoms: C_3  and  C_4 
REMARK    3  A    between atoms: C_7  and  C_8 
REMARK    4  A    between atoms: C_8  and  N_9 
REMARK    5  A    between atoms: C_8  and  C_26 
REMARK    6  A    between atoms: N_9  and  C_12 
REMARK    7  A    between atoms: C_12  and  C_13 
REMARK       I    between atoms: C_13  and  N_14 
REMARK    8  A    between atoms: N_14  and  C_15 
ROOT
HETATM    1  N   UNL     1      39.615 -15.292   0.952  1.00  0.00    -0.054 N 
HETATM    2  H   UNL     1      39.209 -16.065   0.411  1.00  0.00     0.278 HD
HETATM    3  H   UNL     1      39.536 -15.601   1.934  1.00  0.00     0.278 HD
ENDROOT
BRANCH   1   4
HETATM    4  C   UNL     1      41.048 -15.158   0.571  1.00  0.00     0.259 C 
BRANCH   4   5
HETATM    5  C   UNL     1      41.890 -16.334   1.047  1.00  0.00    -0.023 A 
HETATM    6  C   UNL     1      43.284 -16.254   1.213  1.00  0.00     0.010 A 
HETATM    7  C   UNL     1      44.012 -17.349   1.684  1.00  0.00     0.007 A 
HETATM    8  C   UNL     1      43.370 -18.544   2.022  1.00  0.00    -0.058 A 
HETATM    9  C   UNL     1      41.984 -18.630   1.868  1.00  0.00     0.007 A 
HETATM   10  C   UNL     1      41.252 -17.541   1.386  1.00  0.00     0.010 A 
BRANCH   8  11
HETATM   11  C   UNL     1      44.161 -19.705   2.575  1.00  0.00     0.038 C 
BRANCH  11  12
HETATM   12  C   UNL     1      43.779 -21.025   1.900  1.00  0.00     0.000 C 
HETATM   13  C   UNL     1      44.439 -22.211   2.584  1.00  0.00     0.005 C 
ENDBRANCH  11  12
ENDBRANCH   8  11
ENDBRANCH   4   5
BRANCH   4  14
HETATM   14  C   UNL     1      41.209 -14.903  -0.908  1.00  0.00     0.017 A 
HETATM   15  S   UNL     1      41.851 -13.410  -1.479  1.00  0.00    -0.104 SA
HETATM   16  C   UNL     1      41.705 -13.894  -3.109  1.00  0.00     0.050 A 
HETATM   17  C   UNL     1      41.186 -15.162  -3.228  1.00  0.00     0.008 A 
HETATM   18  C   UNL     1      40.900 -15.746  -1.959  1.00  0.00     0.017 A 
ENDBRANCH   4  14
ENDBRANCH   1   4
BRANCH   1  19
HETATM   19  C   UNL     1      38.727 -14.090   0.785  1.00  0.00     0.336 C 
BRANCH  19  20
HETATM   20  C   UNL     1      39.238 -12.978   1.704  1.00  0.00     0.248 C 
HETATM   21  N   UNL     1      39.125 -13.239   3.053  1.00  0.00    -0.326 N 
HETATM   22  H   UNL     1      38.684 -14.103   3.350  1.00  0.00     0.169 HD
HETATM   23  O   UNL     1      39.737 -11.988   1.170  1.00  0.00    -0.271 OA
BRANCH  21  24
HETATM   24  C   UNL     1      39.609 -12.430   4.111  1.00  0.00     0.037 A 
HETATM   25  C   UNL     1      40.733 -12.753   4.883  1.00  0.00     0.061 A 
HETATM   26  C   UNL     1      41.070 -11.884   5.898  1.00  0.00     0.065 A 
HETATM   27  C   UNL     1      40.343 -10.728   6.165  1.00  0.00     0.063 A 
HETATM   28  N   UNL     1      42.114 -11.955   6.812  1.00  0.00    -0.306 N 
HETATM   29  N   UNL     1      40.938 -10.088   7.246  1.00  0.00    -0.307 N 
HETATM   30  C   UNL     1      39.243 -10.375   5.428  1.00  0.00     0.034 A 
HETATM   31  C   UNL     1      42.045 -10.840   7.662  1.00  0.00     0.325 A 
HETATM   32  H   UNL     1      40.654  -9.228   7.687  1.00  0.00     0.170 HD
HETATM   33  O   UNL     1      42.799 -10.581   8.582  1.00  0.00    -0.247 OA
HETATM   34  C   UNL     1      38.878 -11.243   4.388  1.00  0.00     0.032 A 
HETATM   35  H   UNL     1      42.824 -12.666   6.890  1.00  0.00     0.170 HD
ENDBRANCH  21  24
ENDBRANCH  19  20
ENDBRANCH   1  19
TORSDOF 8
ENDMDL
MODEL 9
REMARK VINA RESULT:      -7.4      3.318      4.392
REMARK  8 active torsions:
REMARK  status: ('A' for Active; 'I' for Inactive)
REMARK    1  A    between atoms: C_2  and  C_3 
REMARK    2  A    between atoms: C_3  and  C_4 
REMARK    3  A    between atoms: C_7  and  C_8 
REMARK    4  A    between atoms: C_8  and  N_9 
REMARK    5  A    between atoms: C_8  and  C_26 
REMARK    6  A    between atoms: N_9  and  C_12 
REMARK    7  A    between atoms: C_12  and  C_13 
REMARK       I    between atoms: C_13  and  N_14 
REMARK    8  A    between atoms: N_14  and  C_15 
ROOT
HETATM    1  N   UNL     1      43.121 -13.744   3.485  1.00  0.00    -0.054 N 
HETATM    2  H   UNL     1      43.224 -14.320   4.329  1.00  0.00     0.278 HD
HETATM    3  H   UNL     1      44.053 -13.324   3.348  1.00  0.00     0.278 HD
ENDROOT
BRANCH   1   4
HETATM    4  C   UNL     1      42.792 -14.643   2.344  1.00  0.00     0.259 C 
BRANCH   4   5
HETATM    5  C   UNL     1      43.169 -16.093   2.617  1.00  0.00    -0.023 A 
HETATM    6  C   UNL     1      43.472 -17.006   1.591  1.00  0.00     0.010 A 
HETATM    7  C   UNL     1      43.846 -18.318   1.889  1.00  0.00     0.007 A 
HETATM    8  C   UNL     1      43.949 -18.749   3.216  1.00  0.00    -0.058 A 
HETATM    9  C   UNL     1      43.658 -17.846   4.242  1.00  0.00     0.007 A 
HETATM   10  C   UNL     1      43.271 -16.535   3.948  1.00  0.00     0.010 A 
BRANCH   8  11
HETATM   11  C   UNL     1      44.400 -20.156   3.528  1.00  0.00     0.038 C 
BRANCH  11  12
HETATM   12  C   UNL     1      44.828 -20.908   2.265  1.00  0.00     0.000 C 
HETATM   13  C   UNL     1      43.761 -21.893   1.815  1.00  0.00     0.005 C 
ENDBRANCH  11  12
ENDBRANCH   8  11
ENDBRANCH   4   5
BRANCH   4  14
HETATM   14  C   UNL     1      41.350 -14.499   1.920  1.00  0.00     0.017 A 
HETATM   15  S   UNL     1      40.924 -13.523   0.567  1.00  0.00    -0.104 SA
HETATM   16  C   UNL     1      39.263 -13.867   0.757  1.00  0.00     0.050 A 
HETATM   17  C   UNL     1      39.027 -14.709   1.820  1.00  0.00     0.008 A 
HETATM   18  C   UNL     1      40.230 -15.075   2.492  1.00  0.00     0.017 A 
ENDBRANCH   4  14
ENDBRANCH   1   4
BRANCH   1  19
HETATM   19  C   UNL     1      42.164 -12.627   3.799  1.00  0.00     0.336 C 
BRANCH  19  20
HETATM   20  C   UNL     1      41.882 -12.639   5.303  1.00  0.00     0.248 C 
HETATM   21  N   UNL     1      41.425 -11.446   5.821  1.00  0.00    -0.326 N 
HETATM   22  H   UNL     1      41.348 -10.643   5.205  1.00  0.00     0.169 HD
HETATM   23  O   UNL     1      42.040 -13.704   5.899  1.00  0.00    -0.271 OA
BRANCH  21  24
HETATM   24  C   UNL     1      40.997 -11.213   7.151  1.00  0.00     0.037 A 
HETATM   25  C   UNL     1      41.822 -10.681   8.150  1.00  0.00     0.061 A 
HETATM   26  C   UNL     1      41.275 -10.536   9.407  1.00  0.00     0.065 A 
HETATM   27  C   UNL     1      39.962 -10.891   9.697  1.00  0.00     0.063 A 
HETATM   28  N   UNL     1      41.855 -10.051  10.573  1.00  0.00    -0.306 N 
HETATM   29  N   UNL     1      39.733 -10.628  11.042  1.00  0.00    -0.307 N 
HETATM   30  C   UNL     1      39.122 -11.407   8.745  1.00  0.00     0.034 A 
HETATM   31  C   UNL     1      40.905 -10.102  11.604  1.00  0.00     0.325 A 
HETATM   32  H   UNL     1      38.885 -10.775  11.565  1.00  0.00     0.170 HD
HETATM   33  O   UNL     1      41.070  -9.759  12.760  1.00  0.00    -0.247 OA
HETATM   34  C   UNL     1      39.654 -11.566   7.456  1.00  0.00     0.032 A 
HETATM   35  H   UNL     1      42.794  -9.709  10.703  1.00  0.00     0.170 HD
ENDBRANCH  21  24
ENDBRANCH  19  20
ENDBRANCH   1  19
TORSDOF 8
ENDMDL
MODEL 10
REMARK VINA RESULT:      -7.4      3.842      8.127
REMARK  8 active torsions:
REMARK  status: ('A' for Active; 'I' for Inactive)
REMARK    1  A    between atoms: C_2  and  C_3 
REMARK    2  A    between atoms: C_3  and  C_4 
REMARK    3  A    between atoms: C_7  and  C_8 
REMARK    4  A    between atoms: C_8  and  N_9 
REMARK    5  A    between atoms: C_8  and  C_26 
REMARK    6  A    between atoms: N_9  and  C_12 
REMARK    7  A    between atoms: C_12  and  C_13 
REMARK       I    between atoms: C_13  and  N_14 
REMARK    8  A    between atoms: N_14  and  C_15 
ROOT
HETATM    1  N   UNL     1      40.679 -15.947   0.688  1.00  0.00    -0.054 N 
HETATM    2  H   UNL     1      40.756 -16.874   0.252  1.00  0.00     0.278 HD
HETATM    3  H   UNL     1      39.703 -15.663   0.510  1.00  0.00     0.278 HD
ENDROOT
BRANCH   1   4
HETATM    4  C   UNL     1      40.909 -16.099   2.152  1.00  0.00     0.259 C 
BRANCH   4   5
HETATM    5  C   UNL     1      41.920 -17.192   2.472  1.00  0.00    -0.023 A 
HETATM    6  C   UNL     1      42.090 -17.715   3.766  1.00  0.00     0.010 A 
HETATM    7  C   UNL     1      43.007 -18.740   4.008  1.00  0.00     0.007 A 
HETATM    8  C   UNL     1      43.762 -19.286   2.965  1.00  0.00    -0.058 A 
HETATM    9  C   UNL     1      43.594 -18.778   1.675  1.00  0.00     0.007 A 
HETATM   10  C   UNL     1      42.686 -17.743   1.429  1.00  0.00     0.010 A 
BRANCH   8  11
HETATM   11  C   UNL     1      44.715 -20.427   3.230  1.00  0.00     0.038 C 
BRANCH  11  12
HETATM   12  C   UNL     1      44.856 -20.713   4.727  1.00  0.00     0.000 C 
HETATM   13  C   UNL     1      44.856 -22.206   5.011  1.00  0.00     0.005 C 
ENDBRANCH  11  12
ENDBRANCH   8  11
ENDBRANCH   4   5
BRANCH   4  14
HETATM   14  C   UNL     1      41.267 -14.783   2.798  1.00  0.00     0.017 A 
HETATM   15  S   UNL     1      40.050 -13.620   3.161  1.00  0.00    -0.104 SA
HETATM   16  C   UNL     1      41.191 -12.528   3.807  1.00  0.00     0.050 A 
HETATM   17  C   UNL     1      42.472 -13.028   3.758  1.00  0.00     0.008 A 
HETATM   18  C   UNL     1      42.518 -14.329   3.177  1.00  0.00     0.017 A 
ENDBRANCH   4  14
ENDBRANCH   1   4
BRANCH   1  19
HETATM   19  C   UNL     1      41.570 -15.001  -0.069  1.00  0.00     0.336 C 
BRANCH  19  20
HETATM   20  C   UNL     1      40.781 -14.439  -1.255  1.00  0.00     0.248 C 
HETATM   21  N   UNL     1      39.411 -14.529  -1.140  1.00  0.00    -0.326 N 
HETATM   22  H   UNL     1      39.017 -14.987  -0.324  1.00  0.00     0.169 HD
HETATM   23  O   UNL     1      41.426 -13.925  -2.170  1.00  0.00    -0.271 OA
BRANCH  21  24
HETATM   24  C   UNL     1      38.452 -14.000  -2.039  1.00  0.00     0.037 A 
HETATM   25  C   UNL     1      37.930 -14.715  -3.125  1.00  0.00     0.061 A 
HETATM   26  C   UNL     1      37.024 -14.061  -3.932  1.00  0.00     0.065 A 
HETATM   27  C   UNL     1      36.626 -12.748  -3.699  1.00  0.00     0.063 A 
HETATM   28  N   UNL     1      36.361 -14.514  -5.066  1.00  0.00    -0.306 N 
HETATM   29  N   UNL     1      35.721 -12.392  -4.691  1.00  0.00    -0.307 N 
HETATM   30  C   UNL     1      37.109 -12.019  -2.643  1.00  0.00     0.034 A 
HETATM   31  C   UNL     1      35.543 -13.484  -5.553  1.00  0.00     0.325 A 
HETATM   32  H   UNL     1      35.248 -11.510  -4.808  1.00  0.00     0.170 HD
HETATM   33  O   UNL     1      34.824 -13.530  -6.533  1.00  0.00    -0.247 OA
HETATM   34  C   UNL     1      38.033 -12.662  -1.806  1.00  0.00     0.032 A 
HETATM   35  H   UNL     1      36.426 -15.421  -5.501  1.00  0.00     0.170 HD
ENDBRANCH  21  24
ENDBRANCH  19  20
ENDBRANCH   1  19
TORSDOF 8
ENDMDL
