MODEL 1
REMARK VINA RESULT:      -8.4      0.000      0.000
REMARK  9 active torsions:
REMARK  status: ('A' for Active; 'I' for Inactive)
REMARK    1  A    between atoms: C_4  and  C_5 
REMARK    2  A    between atoms: C_7  and  O_8 
REMARK    3  A    between atoms: C_10  and  O_11 
REMARK    4  A    between atoms: C_16  and  C_17 
REMARK    5  A    between atoms: C_20  and  C_21 
REMARK    6  A    between atoms: C_21  and  N_22 
REMARK    7  A    between atoms: N_22  and  C_23 
REMARK    8  A    between atoms: C_23  and  N_24 
REMARK    9  A    between atoms: N_24  and  C_25 
ROOT
HETATM    1  C   UNL     1      41.501 -12.525   3.344  1.00  0.00     0.034 A 
HETATM    2  C   UNL     1      42.596 -13.276   2.905  1.00  0.00     0.031 A 
HETATM    3  C   UNL     1      43.411 -13.948   3.823  1.00  0.00     0.025 A 
HETATM    4  C   UNL     1      43.133 -13.883   5.191  1.00  0.00     0.044 A 
HETATM    5  C   UNL     1      43.975 -14.568   6.128  1.00  0.00     0.099 C 
HETATM    6  N   UNL     1      44.675 -15.121   6.869  1.00  0.00    -0.191 NA
HETATM    7  C   UNL     1      42.025 -13.157   5.633  1.00  0.00     0.025 A 
HETATM    8  C   UNL     1      41.208 -12.493   4.711  1.00  0.00     0.031 A 
ENDROOT
BRANCH   1   9
HETATM    9  N   UNL     1      40.618 -11.852   2.475  1.00  0.00    -0.333 N 
HETATM   10  H   UNL     1      39.863 -12.419   2.095  1.00  0.00     0.168 HD
BRANCH   9  11
HETATM   11  C   UNL     1      40.668 -10.597   1.938  1.00  0.00     0.172 C 
HETATM   12  S   UNL     1      40.577  -9.289   2.971  1.00  0.00    -0.041 SA
BRANCH  11  13
HETATM   13  N   UNL     1      40.848 -10.521   0.581  1.00  0.00    -0.365 N 
HETATM   14  H   UNL     1      41.444  -9.736   0.332  1.00  0.00     0.161 HD
BRANCH  13  15
HETATM   15  C   UNL     1      39.883 -10.978  -0.416  1.00  0.00     0.155 C 
BRANCH  15  16
HETATM   16  C   UNL     1      40.530 -11.818  -1.539  1.00  0.00     0.206 C 
HETATM   17  C   UNL     1      41.854 -12.486  -1.128  1.00  0.00     0.040 C 
HETATM   18  C   UNL     1      41.913 -13.964  -1.571  1.00  0.00     0.001 C 
HETATM   19  C   UNL     1      40.797 -14.820  -0.935  1.00  0.00     0.067 C 
HETATM   20  C   UNL     1      41.615 -13.945  -3.097  1.00  0.00     0.033 C 
HETATM   21  C   UNL     1      39.458 -14.058  -1.022  1.00  0.00     0.246 C 
HETATM   22  N   UNL     1      39.611 -12.926  -2.043  1.00  0.00    -0.065 N 
HETATM   23  C   UNL     1      40.170 -13.482  -3.351  1.00  0.00     0.236 C 
HETATM   24  H   UNL     1      38.676 -12.536  -2.232  1.00  0.00     0.280 HD
BRANCH  19  25
HETATM   25  C   UNL     1      40.987 -15.497   0.394  1.00  0.00     0.038 C 
HETATM   26  N   UNL     1      40.162 -15.600   1.490  1.00  0.00    -0.277 N 
HETATM   27  C   UNL     1      38.911 -14.955   1.804  1.00  0.00     0.179 C 
HETATM   28  N   UNL     1      40.606 -16.474   2.404  1.00  0.00    -0.172 NA
HETATM   29  C   UNL     1      41.827 -16.837   2.003  1.00  0.00     0.089 C 
HETATM   30  C   UNL     1      42.108 -16.237   0.755  1.00  0.00     0.061 C 
BRANCH  29  31
HETATM   31  C   UNL     1      42.651 -17.766   2.775  1.00  0.00    -0.003 A 
HETATM   32  C   UNL     1      43.280 -18.846   2.135  1.00  0.00     0.053 A 
HETATM   33  C   UNL     1      44.099 -19.727   2.850  1.00  0.00     0.102 A 
HETATM   34  C   UNL     1      44.283 -19.540   4.234  1.00  0.00     0.101 A 
HETATM   35  C   UNL     1      43.650 -18.471   4.874  1.00  0.00     0.040 A 
HETATM   36  C   UNL     1      42.841 -17.589   4.150  1.00  0.00     0.017 A 
BRANCH  33  37
HETATM   37  O   UNL     1      44.762 -20.792   2.291  1.00  0.00    -0.353 OA
HETATM   38  C   UNL     1      43.982 -21.853   1.759  1.00  0.00     0.210 C 
ENDBRANCH  33  37
BRANCH  34  39
HETATM   39  O   UNL     1      45.106 -20.441   4.860  1.00  0.00    -0.353 OA
HETATM   40  C   UNL     1      44.501 -21.419   5.693  1.00  0.00     0.210 C 
ENDBRANCH  34  39
ENDBRANCH  29  31
ENDBRANCH  19  25
ENDBRANCH  15  16
ENDBRANCH  13  15
ENDBRANCH  11  13
ENDBRANCH   9  11
ENDBRANCH   1   9
TORSDOF 9
ENDMDL
MODEL 2
REMARK VINA RESULT:      -8.4      4.253      5.691
REMARK  9 active torsions:
REMARK  status: ('A' for Active; 'I' for Inactive)
REMARK    1  A    between atoms: C_4  and  C_5 
REMARK    2  A    between atoms: C_7  and  O_8 
REMARK    3  A    between atoms: C_10  and  O_11 
REMARK    4  A    between atoms: C_16  and  C_17 
REMARK    5  A    between atoms: C_20  and  C_21 
REMARK    6  A    between atoms: C_21  and  N_22 
REMARK    7  A    between atoms: N_22  and  C_23 
REMARK    8  A    between atoms: C_23  and  N_24 
REMARK    9  A    between atoms: N_24  and  C_25 
ROOT
HETATM    1  C   UNL     1      42.350 -10.705  10.756  1.00  0.00     0.034 A 
HETATM    2  C   UNL     1      43.419 -10.170  11.482  1.00  0.00     0.031 A 
HETATM    3  C   UNL     1      43.286  -9.901  12.849  1.00  0.00     0.025 A 
HETATM    4  C   UNL     1      42.084 -10.174  13.507  1.00  0.00     0.044 A 
HETATM    5  C   UNL     1      41.952  -9.891  14.906  1.00  0.00     0.099 C 
HETATM    6  N   UNL     1      41.863  -9.644  16.036  1.00  0.00    -0.191 NA
HETATM    7  C   UNL     1      41.023 -10.734  12.794  1.00  0.00     0.025 A 
HETATM    8  C   UNL     1      41.161 -11.008  11.428  1.00  0.00     0.031 A 
ENDROOT
BRANCH   1   9
HETATM    9  N   UNL     1      42.422 -11.033   9.387  1.00  0.00    -0.333 N 
HETATM   10  H   UNL     1      43.271 -11.517   9.098  1.00  0.00     0.168 HD
BRANCH   9  11
HETATM   11  C   UNL     1      41.613 -10.698   8.338  1.00  0.00     0.172 C 
HETATM   12  S   UNL     1      41.312  -9.082   8.054  1.00  0.00    -0.041 SA
BRANCH  11  13
HETATM   13  N   UNL     1      41.158 -11.735   7.565  1.00  0.00    -0.365 N 
HETATM   14  H   UNL     1      40.741 -12.465   8.136  1.00  0.00     0.161 HD
BRANCH  13  15
HETATM   15  C   UNL     1      41.725 -12.128   6.277  1.00  0.00     0.155 C 
BRANCH  15  16
HETATM   16  C   UNL     1      40.876 -11.656   5.077  1.00  0.00     0.206 C 
HETATM   17  C   UNL     1      41.570 -11.841   3.716  1.00  0.00     0.040 C 
HETATM   18  C   UNL     1      40.620 -12.457   2.665  1.00  0.00     0.001 C 
HETATM   19  C   UNL     1      40.113 -13.857   3.072  1.00  0.00     0.067 C 
HETATM   20  C   UNL     1      39.367 -11.537   2.661  1.00  0.00     0.033 C 
HETATM   21  C   UNL     1      39.688 -13.836   4.554  1.00  0.00     0.246 C 
HETATM   22  N   UNL     1      39.534 -12.375   4.993  1.00  0.00    -0.065 N 
HETATM   23  C   UNL     1      38.631 -11.633   4.009  1.00  0.00     0.236 C 
HETATM   24  H   UNL     1      39.081 -12.365   5.918  1.00  0.00     0.280 HD
BRANCH  19  25
HETATM   25  C   UNL     1      40.873 -15.103   2.710  1.00  0.00     0.038 C 
HETATM   26  N   UNL     1      41.263 -15.611   1.493  1.00  0.00    -0.277 N 
HETATM   27  C   UNL     1      40.933 -15.215   0.146  1.00  0.00     0.179 C 
HETATM   28  N   UNL     1      42.116 -16.640   1.600  1.00  0.00    -0.172 NA
HETATM   29  C   UNL     1      42.168 -16.941   2.900  1.00  0.00     0.089 C 
HETATM   30  C   UNL     1      41.393 -16.010   3.628  1.00  0.00     0.061 C 
BRANCH  29  31
HETATM   31  C   UNL     1      42.978 -18.047   3.406  1.00  0.00    -0.003 A 
HETATM   32  C   UNL     1      43.483 -19.012   2.519  1.00  0.00     0.053 A 
HETATM   33  C   UNL     1      44.288 -20.061   2.979  1.00  0.00     0.102 A 
HETATM   34  C   UNL     1      44.585 -20.160   4.353  1.00  0.00     0.101 A 
HETATM   35  C   UNL     1      44.075 -19.205   5.238  1.00  0.00     0.040 A 
HETATM   36  C   UNL     1      43.280 -18.156   4.768  1.00  0.00     0.017 A 
BRANCH  33  37
HETATM   37  O   UNL     1      44.833 -21.029   2.172  1.00  0.00    -0.353 OA
HETATM   38  C   UNL     1      43.944 -21.910   1.502  1.00  0.00     0.210 C 
ENDBRANCH  33  37
BRANCH  34  39
HETATM   39  O   UNL     1      45.385 -21.211   4.722  1.00  0.00    -0.353 OA
HETATM   40  C   UNL     1      44.790 -22.265   5.464  1.00  0.00     0.210 C 
ENDBRANCH  34  39
ENDBRANCH  29  31
ENDBRANCH  19  25
ENDBRANCH  15  16
ENDBRANCH  13  15
ENDBRANCH  11  13
ENDBRANCH   9  11
ENDBRANCH   1   9
TORSDOF 9
ENDMDL
MODEL 3
REMARK VINA RESULT:      -8.3      4.541      6.586
REMARK  9 active torsions:
REMARK  status: ('A' for Active; 'I' for Inactive)
REMARK    1  A    between atoms: C_4  and  C_5 
REMARK    2  A    between atoms: C_7  and  O_8 
REMARK    3  A    between atoms: C_10  and  O_11 
REMARK    4  A    between atoms: C_16  and  C_17 
REMARK    5  A    between atoms: C_20  and  C_21 
REMARK    6  A    between atoms: C_21  and  N_22 
REMARK    7  A    between atoms: N_22  and  C_23 
REMARK    8  A    between atoms: C_23  and  N_24 
REMARK    9  A    between atoms: N_24  and  C_25 
ROOT
HETATM    1  C   UNL     1      43.078 -11.383  11.445  1.00  0.00     0.034 A 
HETATM    2  C   UNL     1      41.774 -11.398  11.949  1.00  0.00     0.031 A 
HETATM    3  C   UNL     1      41.393 -10.510  12.961  1.00  0.00     0.025 A 
HETATM    4  C   UNL     1      42.310  -9.590  13.474  1.00  0.00     0.044 A 
HETATM    5  C   UNL     1      41.915  -8.686  14.514  1.00  0.00     0.099 C 
HETATM    6  N   UNL     1      41.578  -7.972  15.364  1.00  0.00    -0.191 NA
HETATM    7  C   UNL     1      43.606  -9.551  12.956  1.00  0.00     0.025 A 
HETATM    8  C   UNL     1      43.982 -10.436  11.938  1.00  0.00     0.031 A 
ENDROOT
BRANCH   1   9
HETATM    9  N   UNL     1      43.523 -12.223  10.404  1.00  0.00    -0.333 N 
HETATM   10  H   UNL     1      43.640 -13.203  10.654  1.00  0.00     0.168 HD
BRANCH   9  11
HETATM   11  C   UNL     1      43.958 -11.936   9.141  1.00  0.00     0.172 C 
HETATM   12  S   UNL     1      45.573 -12.164   8.788  1.00  0.00    -0.041 SA
BRANCH  11  13
HETATM   13  N   UNL     1      43.002 -11.533   8.244  1.00  0.00    -0.365 N 
HETATM   14  H   UNL     1      42.259 -11.016   8.706  1.00  0.00     0.161 HD
BRANCH  13  15
HETATM   15  C   UNL     1      42.667 -12.236   7.008  1.00  0.00     0.155 C 
BRANCH  15  16
HETATM   16  C   UNL     1      41.561 -11.528   6.195  1.00  0.00     0.206 C 
HETATM   17  C   UNL     1      41.731 -11.661   4.672  1.00  0.00     0.040 C 
HETATM   18  C   UNL     1      40.402 -12.027   3.975  1.00  0.00     0.001 C 
HETATM   19  C   UNL     1      39.834 -13.380   4.453  1.00  0.00     0.067 C 
HETATM   20  C   UNL     1      39.384 -10.951   4.446  1.00  0.00     0.033 C 
HETATM   21  C   UNL     1      39.927 -13.458   5.991  1.00  0.00     0.246 C 
HETATM   22  N   UNL     1      40.166 -12.045   6.534  1.00  0.00    -0.065 N 
HETATM   23  C   UNL     1      39.126 -11.088   5.957  1.00  0.00     0.236 C 
HETATM   24  H   UNL     1      40.049 -12.071   7.557  1.00  0.00     0.280 HD
BRANCH  19  25
HETATM   25  C   UNL     1      40.218 -14.673   3.789  1.00  0.00     0.038 C 
HETATM   26  N   UNL     1      39.800 -15.253   2.614  1.00  0.00    -0.277 N 
HETATM   27  C   UNL     1      38.733 -14.906   1.708  1.00  0.00     0.179 C 
HETATM   28  N   UNL     1      40.541 -16.311   2.255  1.00  0.00    -0.172 NA
HETATM   29  C   UNL     1      41.358 -16.554   3.282  1.00  0.00     0.089 C 
HETATM   30  C   UNL     1      41.178 -15.558   4.270  1.00  0.00     0.061 C 
BRANCH  29  31
HETATM   31  C   UNL     1      42.303 -17.669   3.273  1.00  0.00    -0.003 A 
HETATM   32  C   UNL     1      42.979 -18.027   4.451  1.00  0.00     0.053 A 
HETATM   33  C   UNL     1      43.863 -19.112   4.471  1.00  0.00     0.102 A 
HETATM   34  C   UNL     1      44.092 -19.846   3.291  1.00  0.00     0.101 A 
HETATM   35  C   UNL     1      43.428 -19.484   2.115  1.00  0.00     0.040 A 
HETATM   36  C   UNL     1      42.539 -18.405   2.106  1.00  0.00     0.017 A 
BRANCH  33  37
HETATM   37  O   UNL     1      44.544 -19.534   5.587  1.00  0.00    -0.353 OA
HETATM   38  C   UNL     1      43.836 -20.314   6.539  1.00  0.00     0.210 C 
ENDBRANCH  33  37
BRANCH  34  39
HETATM   39  O   UNL     1      44.966 -20.898   3.395  1.00  0.00    -0.353 OA
HETATM   40  C   UNL     1      44.503 -22.182   3.005  1.00  0.00     0.210 C 
ENDBRANCH  34  39
ENDBRANCH  29  31
ENDBRANCH  19  25
ENDBRANCH  15  16
ENDBRANCH  13  15
ENDBRANCH  11  13
ENDBRANCH   9  11
ENDBRANCH   1   9
TORSDOF 9
ENDMDL
MODEL 4
REMARK VINA RESULT:      -8.1      0.886      1.663
REMARK  9 active torsions:
REMARK  status: ('A' for Active; 'I' for Inactive)
REMARK    1  A    between atoms: C_4  and  C_5 
REMARK    2  A    between atoms: C_7  and  O_8 
REMARK    3  A    between atoms: C_10  and  O_11 
REMARK    4  A    between atoms: C_16  and  C_17 
REMARK    5  A    between atoms: C_20  and  C_21 
REMARK    6  A    between atoms: C_21  and  N_22 
REMARK    7  A    between atoms: N_22  and  C_23 
REMARK    8  A    between atoms: C_23  and  N_24 
REMARK    9  A    between atoms: N_24  and  C_25 
ROOT
HETATM    1  C   UNL     1      41.792 -12.765   3.382  1.00  0.00     0.034 A 
HETATM    2  C   UNL     1      42.903 -13.588   3.177  1.00  0.00     0.031 A 
HETATM    3  C   UNL     1      43.644 -14.065   4.264  1.00  0.00     0.025 A 
HETATM    4  C   UNL     1      43.275 -13.733   5.569  1.00  0.00     0.044 A 
HETATM    5  C   UNL     1      44.040 -14.221   6.678  1.00  0.00     0.099 C 
HETATM    6  N   UNL     1      44.681 -14.617   7.560  1.00  0.00    -0.191 NA
HETATM    7  C   UNL     1      42.149 -12.935   5.782  1.00  0.00     0.025 A 
HETATM    8  C   UNL     1      41.406 -12.465   4.692  1.00  0.00     0.031 A 
ENDROOT
BRANCH   1   9
HETATM    9  N   UNL     1      40.979 -12.276   2.339  1.00  0.00    -0.333 N 
HETATM   10  H   UNL     1      40.258 -12.915   2.010  1.00  0.00     0.168 HD
BRANCH   9  11
HETATM   11  C   UNL     1      41.069 -11.139   1.587  1.00  0.00     0.172 C 
HETATM   12  S   UNL     1      40.471  -9.718   2.226  1.00  0.00    -0.041 SA
BRANCH  11  13
HETATM   13  N   UNL     1      41.704 -11.256   0.377  1.00  0.00    -0.365 N 
HETATM   14  H   UNL     1      42.713 -11.289   0.493  1.00  0.00     0.161 HD
BRANCH  13  15
HETATM   15  C   UNL     1      41.187 -10.745  -0.890  1.00  0.00     0.155 C 
BRANCH  15  16
HETATM   16  C   UNL     1      41.212 -11.800  -2.018  1.00  0.00     0.206 C 
HETATM   17  C   UNL     1      42.270 -12.898  -1.817  1.00  0.00     0.040 C 
HETATM   18  C   UNL     1      41.697 -14.306  -2.089  1.00  0.00     0.001 C 
HETATM   19  C   UNL     1      40.533 -14.666  -1.141  1.00  0.00     0.067 C 
HETATM   20  C   UNL     1      41.075 -14.225  -3.511  1.00  0.00     0.033 C 
HETATM   21  C   UNL     1      39.570 -13.465  -1.036  1.00  0.00     0.246 C 
HETATM   22  N   UNL     1      39.869 -12.503  -2.190  1.00  0.00    -0.065 N 
HETATM   23  C   UNL     1      39.871 -13.267  -3.512  1.00  0.00     0.236 C 
HETATM   24  H   UNL     1      39.116 -11.800  -2.224  1.00  0.00     0.280 HD
BRANCH  19  25
HETATM   25  C   UNL     1      40.777 -15.325   0.188  1.00  0.00     0.038 C 
HETATM   26  N   UNL     1      39.981 -15.448   1.304  1.00  0.00    -0.277 N 
HETATM   27  C   UNL     1      38.714 -14.846   1.640  1.00  0.00     0.179 C 
HETATM   28  N   UNL     1      40.478 -16.297   2.215  1.00  0.00    -0.172 NA
HETATM   29  C   UNL     1      41.702 -16.618   1.789  1.00  0.00     0.089 C 
HETATM   30  C   UNL     1      41.933 -16.019   0.530  1.00  0.00     0.061 C 
BRANCH  29  31
HETATM   31  C   UNL     1      42.577 -17.508   2.550  1.00  0.00    -0.003 A 
HETATM   32  C   UNL     1      42.433 -17.614   3.943  1.00  0.00     0.053 A 
HETATM   33  C   UNL     1      43.238 -18.485   4.686  1.00  0.00     0.102 A 
HETATM   34  C   UNL     1      44.218 -19.256   4.031  1.00  0.00     0.101 A 
HETATM   35  C   UNL     1      44.369 -19.145   2.645  1.00  0.00     0.040 A 
HETATM   36  C   UNL     1      43.554 -18.279   1.910  1.00  0.00     0.017 A 
BRANCH  33  37
HETATM   37  O   UNL     1      43.143 -18.657   6.045  1.00  0.00    -0.353 OA
HETATM   38  C   UNL     1      42.550 -17.614   6.805  1.00  0.00     0.210 C 
ENDBRANCH  33  37
BRANCH  34  39
HETATM   39  O   UNL     1      44.961 -20.090   4.827  1.00  0.00    -0.353 OA
HETATM   40  C   UNL     1      44.732 -21.488   4.714  1.00  0.00     0.210 C 
ENDBRANCH  34  39
ENDBRANCH  29  31
ENDBRANCH  19  25
ENDBRANCH  15  16
ENDBRANCH  13  15
ENDBRANCH  11  13
ENDBRANCH   9  11
ENDBRANCH   1   9
TORSDOF 9
ENDMDL
MODEL 5
REMARK VINA RESULT:      -8.0      2.551      5.188
REMARK  9 active torsions:
REMARK  status: ('A' for Active; 'I' for Inactive)
REMARK    1  A    between atoms: C_4  and  C_5 
REMARK    2  A    between atoms: C_7  and  O_8 
REMARK    3  A    between atoms: C_10  and  O_11 
REMARK    4  A    between atoms: C_16  and  C_17 
REMARK    5  A    between atoms: C_20  and  C_21 
REMARK    6  A    between atoms: C_21  and  N_22 
REMARK    7  A    between atoms: N_22  and  C_23 
REMARK    8  A    between atoms: C_23  and  N_24 
REMARK    9  A    between atoms: N_24  and  C_25 
ROOT
HETATM    1  C   UNL     1      42.186 -11.836  -3.101  1.00  0.00     0.034 A 
HETATM    2  C   UNL     1      42.228 -10.603  -3.759  1.00  0.00     0.031 A 
HETATM    3  C   UNL     1      42.862  -9.503  -3.170  1.00  0.00     0.025 A 
HETATM    4  C   UNL     1      43.472  -9.629  -1.919  1.00  0.00     0.044 A 
HETATM    5  C   UNL     1      44.115  -8.498  -1.318  1.00  0.00     0.099 C 
HETATM    6  N   UNL     1      44.621  -7.567  -0.845  1.00  0.00    -0.191 NA
HETATM    7  C   UNL     1      43.458 -10.865  -1.270  1.00  0.00     0.025 A 
HETATM    8  C   UNL     1      42.829 -11.964  -1.866  1.00  0.00     0.031 A 
ENDROOT
BRANCH   1   9
HETATM    9  N   UNL     1      41.596 -12.993  -3.649  1.00  0.00    -0.333 N 
HETATM   10  H   UNL     1      41.754 -13.135  -4.645  1.00  0.00     0.168 HD
BRANCH   9  11
HETATM   11  C   UNL     1      40.729 -13.901  -3.109  1.00  0.00     0.172 C 
HETATM   12  S   UNL     1      41.192 -15.503  -3.053  1.00  0.00    -0.041 SA
BRANCH  11  13
HETATM   13  N   UNL     1      39.558 -13.398  -2.602  1.00  0.00    -0.365 N 
HETATM   14  H   UNL     1      39.503 -12.392  -2.732  1.00  0.00     0.161 HD
BRANCH  13  15
HETATM   15  C   UNL     1      38.816 -13.975  -1.484  1.00  0.00     0.155 C 
BRANCH  15  16
HETATM   16  C   UNL     1      38.384 -12.921  -0.441  1.00  0.00     0.206 C 
HETATM   17  C   UNL     1      37.832 -13.527   0.860  1.00  0.00     0.040 C 
HETATM   18  C   UNL     1      38.420 -12.837   2.111  1.00  0.00     0.001 C 
HETATM   19  C   UNL     1      39.954 -12.978   2.200  1.00  0.00     0.067 C 
HETATM   20  C   UNL     1      38.145 -11.320   1.906  1.00  0.00     0.033 C 
HETATM   21  C   UNL     1      40.575 -12.692   0.817  1.00  0.00     0.246 C 
HETATM   22  N   UNL     1      39.524 -11.987  -0.048  1.00  0.00    -0.065 N 
HETATM   23  C   UNL     1      38.951 -10.791   0.708  1.00  0.00     0.236 C 
HETATM   24  H   UNL     1      39.991 -11.639  -0.898  1.00  0.00     0.280 HD
BRANCH  19  25
HETATM   25  C   UNL     1      40.597 -14.151   2.886  1.00  0.00     0.038 C 
HETATM   26  N   UNL     1      40.467 -14.643   4.164  1.00  0.00    -0.277 N 
HETATM   27  C   UNL     1      39.804 -14.107   5.328  1.00  0.00     0.179 C 
HETATM   28  N   UNL     1      41.045 -15.841   4.330  1.00  0.00    -0.172 NA
HETATM   29  C   UNL     1      41.719 -16.083   3.204  1.00  0.00     0.089 C 
HETATM   30  C   UNL     1      41.476 -15.042   2.278  1.00  0.00     0.061 C 
BRANCH  29  31
HETATM   31  C   UNL     1      42.515 -17.296   3.024  1.00  0.00    -0.003 A 
HETATM   32  C   UNL     1      43.127 -17.906   4.130  1.00  0.00     0.053 A 
HETATM   33  C   UNL     1      43.865 -19.086   3.985  1.00  0.00     0.102 A 
HETATM   34  C   UNL     1      44.011 -19.663   2.707  1.00  0.00     0.101 A 
HETATM   35  C   UNL     1      43.411 -19.051   1.603  1.00  0.00     0.040 A 
HETATM   36  C   UNL     1      42.667 -17.877   1.759  1.00  0.00     0.017 A 
BRANCH  33  37
HETATM   37  O   UNL     1      44.474 -19.751   5.021  1.00  0.00    -0.353 OA
HETATM   38  C   UNL     1      43.899 -19.632   6.313  1.00  0.00     0.210 C 
ENDBRANCH  33  37
BRANCH  34  39
HETATM   39  O   UNL     1      44.743 -20.821   2.649  1.00  0.00    -0.353 OA
HETATM   40  C   UNL     1      44.240 -21.880   1.848  1.00  0.00     0.210 C 
ENDBRANCH  34  39
ENDBRANCH  29  31
ENDBRANCH  19  25
ENDBRANCH  15  16
ENDBRANCH  13  15
ENDBRANCH  11  13
ENDBRANCH   9  11
ENDBRANCH   1   9
TORSDOF 9
ENDMDL
MODEL 6
REMARK VINA RESULT:      -7.9      4.294      7.779
REMARK  9 active torsions:
REMARK  status: ('A' for Active; 'I' for Inactive)
REMARK    1  A    between atoms: C_4  and  C_5 
REMARK    2  A    between atoms: C_7  and  O_8 
REMARK    3  A    between atoms: C_10  and  O_11 
REMARK    4  A    between atoms: C_16  and  C_17 
REMARK    5  A    between atoms: C_20  and  C_21 
REMARK    6  A    between atoms: C_21  and  N_22 
REMARK    7  A    between atoms: N_22  and  C_23 
REMARK    8  A    between atoms: C_23  and  N_24 
REMARK    9  A    between atoms: N_24  and  C_25 
ROOT
HETATM    1  C   UNL     1      43.169 -17.913   4.467  1.00  0.00     0.034 A 
HETATM    2  C   UNL     1      42.613 -18.194   3.215  1.00  0.00     0.031 A 
HETATM    3  C   UNL     1      43.013 -19.327   2.498  1.00  0.00     0.025 A 
HETATM    4  C   UNL     1      43.966 -20.199   3.030  1.00  0.00     0.044 A 
HETATM    5  C   UNL     1      44.376 -21.355   2.289  1.00  0.00     0.099 C 
HETATM    6  N   UNL     1      44.701 -22.278   1.667  1.00  0.00    -0.191 NA
HETATM    7  C   UNL     1      44.504 -19.939   4.292  1.00  0.00     0.025 A 
HETATM    8  C   UNL     1      44.097 -18.808   5.010  1.00  0.00     0.031 A 
ENDROOT
BRANCH   1   9
HETATM    9  N   UNL     1      42.790 -16.811   5.260  1.00  0.00    -0.333 N 
HETATM   10  H   UNL     1      41.899 -16.907   5.744  1.00  0.00     0.168 HD
BRANCH   9  11
HETATM   11  C   UNL     1      43.341 -15.568   5.394  1.00  0.00     0.172 C 
HETATM   12  S   UNL     1      44.415 -15.308   6.645  1.00  0.00    -0.041 SA
BRANCH  11  13
HETATM   13  N   UNL     1      43.001 -14.645   4.439  1.00  0.00    -0.365 N 
HETATM   14  H   UNL     1      42.172 -14.123   4.710  1.00  0.00     0.161 HD
BRANCH  13  15
HETATM   15  C   UNL     1      43.275 -14.781   3.011  1.00  0.00     0.155 C 
BRANCH  15  16
HETATM   16  C   UNL     1      41.996 -14.726   2.146  1.00  0.00     0.206 C 
HETATM   17  C   UNL     1      40.695 -14.850   2.955  1.00  0.00     0.040 C 
HETATM   18  C   UNL     1      39.644 -13.806   2.519  1.00  0.00     0.001 C 
HETATM   19  C   UNL     1      40.129 -12.355   2.725  1.00  0.00     0.067 C 
HETATM   20  C   UNL     1      39.500 -13.989   0.982  1.00  0.00     0.033 C 
HETATM   21  C   UNL     1      41.580 -12.224   2.218  1.00  0.00     0.246 C 
HETATM   22  N   UNL     1      41.895 -13.437   1.335  1.00  0.00    -0.065 N 
HETATM   23  C   UNL     1      40.809 -13.599   0.275  1.00  0.00     0.236 C 
HETATM   24  H   UNL     1      42.790 -13.261   0.857  1.00  0.00     0.280 HD
BRANCH  19  25
HETATM   25  C   UNL     1      39.907 -11.629   4.023  1.00  0.00     0.038 C 
HETATM   26  N   UNL     1      38.911 -10.771   4.429  1.00  0.00    -0.277 N 
HETATM   27  C   UNL     1      37.838 -10.144   3.697  1.00  0.00     0.179 C 
HETATM   28  N   UNL     1      38.950 -10.500   5.741  1.00  0.00    -0.172 NA
HETATM   29  C   UNL     1      40.083 -11.042   6.195  1.00  0.00     0.089 C 
HETATM   30  C   UNL     1      40.718 -11.747   5.147  1.00  0.00     0.061 C 
BRANCH  29  31
HETATM   31  C   UNL     1      40.492 -10.922   7.593  1.00  0.00    -0.003 A 
HETATM   32  C   UNL     1      41.842 -10.706   7.914  1.00  0.00     0.053 A 
HETATM   33  C   UNL     1      42.250 -10.556   9.245  1.00  0.00     0.102 A 
HETATM   34  C   UNL     1      41.296 -10.638  10.279  1.00  0.00     0.101 A 
HETATM   35  C   UNL     1      39.954 -10.862   9.961  1.00  0.00     0.040 A 
HETATM   36  C   UNL     1      39.553 -11.001   8.628  1.00  0.00     0.017 A 
BRANCH  33  37
HETATM   37  O   UNL     1      43.546 -10.323   9.635  1.00  0.00    -0.353 OA
HETATM   38  C   UNL     1      44.482 -11.380   9.488  1.00  0.00     0.210 C 
ENDBRANCH  33  37
BRANCH  34  39
HETATM   39  O   UNL     1      41.774 -10.473  11.554  1.00  0.00    -0.353 OA
HETATM   40  C   UNL     1      41.325 -11.380  12.550  1.00  0.00     0.210 C 
ENDBRANCH  34  39
ENDBRANCH  29  31
ENDBRANCH  19  25
ENDBRANCH  15  16
ENDBRANCH  13  15
ENDBRANCH  11  13
ENDBRANCH   9  11
ENDBRANCH   1   9
TORSDOF 9
ENDMDL
MODEL 7
REMARK VINA RESULT:      -7.9      3.846      8.364
REMARK  9 active torsions:
REMARK  status: ('A' for Active; 'I' for Inactive)
REMARK    1  A    between atoms: C_4  and  C_5 
REMARK    2  A    between atoms: C_7  and  O_8 
REMARK    3  A    between atoms: C_10  and  O_11 
REMARK    4  A    between atoms: C_16  and  C_17 
REMARK    5  A    between atoms: C_20  and  C_21 
REMARK    6  A    between atoms: C_21  and  N_22 
REMARK    7  A    between atoms: N_22  and  C_23 
REMARK    8  A    between atoms: C_23  and  N_24 
REMARK    9  A    between atoms: N_24  and  C_25 
ROOT
HETATM    1  C   UNL     1      41.264 -15.725  -0.112  1.00  0.00     0.034 A 
HETATM    2  C   UNL     1      40.942 -15.940  -1.456  1.00  0.00     0.031 A 
HETATM    3  C   UNL     1      41.114 -14.922  -2.400  1.00  0.00     0.025 A 
HETATM    4  C   UNL     1      41.620 -13.679  -2.012  1.00  0.00     0.044 A 
HETATM    5  C   UNL     1      41.788 -12.638  -2.983  1.00  0.00     0.099 C 
HETATM    6  N   UNL     1      41.906 -11.806  -3.782  1.00  0.00    -0.191 NA
HETATM    7  C   UNL     1      41.969 -13.467  -0.677  1.00  0.00     0.025 A 
HETATM    8  C   UNL     1      41.803 -14.490   0.264  1.00  0.00     0.031 A 
ENDROOT
BRANCH   1   9
HETATM    9  N   UNL     1      41.150 -16.713   0.886  1.00  0.00    -0.333 N 
HETATM   10  H   UNL     1      40.197 -16.956   1.153  1.00  0.00     0.168 HD
BRANCH   9  11
HETATM   11  C   UNL     1      42.095 -17.317   1.666  1.00  0.00     0.172 C 
HETATM   12  S   UNL     1      43.604 -17.595   1.010  1.00  0.00    -0.041 SA
BRANCH  11  13
HETATM   13  N   UNL     1      41.732 -17.594   2.959  1.00  0.00    -0.365 N 
HETATM   14  H   UNL     1      41.147 -16.857   3.343  1.00  0.00     0.161 HD
BRANCH  13  15
HETATM   15  C   UNL     1      42.525 -18.384   3.898  1.00  0.00     0.155 C 
BRANCH  15  16
HETATM   16  C   UNL     1      43.115 -17.538   5.048  1.00  0.00     0.206 C 
HETATM   17  C   UNL     1      43.452 -16.093   4.643  1.00  0.00     0.040 C 
HETATM   18  C   UNL     1      42.958 -15.073   5.693  1.00  0.00     0.001 C 
HETATM   19  C   UNL     1      41.426 -15.109   5.880  1.00  0.00     0.067 C 
HETATM   20  C   UNL     1      43.561 -15.551   7.043  1.00  0.00     0.033 C 
HETATM   21  C   UNL     1      40.958 -16.576   5.974  1.00  0.00     0.246 C 
HETATM   22  N   UNL     1      42.181 -17.457   6.251  1.00  0.00    -0.065 N 
HETATM   23  C   UNL     1      42.954 -16.906   7.447  1.00  0.00     0.236 C 
HETATM   24  H   UNL     1      41.847 -18.402   6.490  1.00  0.00     0.280 HD
BRANCH  19  25
HETATM   25  C   UNL     1      40.511 -14.267   5.035  1.00  0.00     0.038 C 
HETATM   26  N   UNL     1      39.819 -13.112   5.315  1.00  0.00    -0.277 N 
HETATM   27  C   UNL     1      39.600 -12.410   6.556  1.00  0.00     0.179 C 
HETATM   28  N   UNL     1      39.279 -12.543   4.227  1.00  0.00    -0.172 NA
HETATM   29  C   UNL     1      39.461 -13.412   3.230  1.00  0.00     0.089 C 
HETATM   30  C   UNL     1      40.217 -14.511   3.697  1.00  0.00     0.061 C 
BRANCH  29  31
HETATM   31  C   UNL     1      38.970 -13.152   1.878  1.00  0.00    -0.003 A 
HETATM   32  C   UNL     1      39.242 -11.923   1.255  1.00  0.00     0.053 A 
HETATM   33  C   UNL     1      38.808 -11.667  -0.051  1.00  0.00     0.102 A 
HETATM   34  C   UNL     1      38.074 -12.648  -0.746  1.00  0.00     0.101 A 
HETATM   35  C   UNL     1      37.794 -13.868  -0.124  1.00  0.00     0.040 A 
HETATM   36  C   UNL     1      38.240 -14.120   1.178  1.00  0.00     0.017 A 
BRANCH  33  37
HETATM   37  O   UNL     1      39.052 -10.500  -0.732  1.00  0.00    -0.353 OA
HETATM   38  C   UNL     1      40.373  -9.981  -0.704  1.00  0.00     0.210 C 
ENDBRANCH  33  37
BRANCH  34  39
HETATM   39  O   UNL     1      37.692 -12.324  -2.023  1.00  0.00    -0.353 OA
HETATM   40  C   UNL     1      37.869 -13.305  -3.034  1.00  0.00     0.210 C 
ENDBRANCH  34  39
ENDBRANCH  29  31
ENDBRANCH  19  25
ENDBRANCH  15  16
ENDBRANCH  13  15
ENDBRANCH  11  13
ENDBRANCH   9  11
ENDBRANCH   1   9
TORSDOF 9
ENDMDL
MODEL 8
REMARK VINA RESULT:      -7.7      3.545      7.927
REMARK  9 active torsions:
REMARK  status: ('A' for Active; 'I' for Inactive)
REMARK    1  A    between atoms: C_4  and  C_5 
REMARK    2  A    between atoms: C_7  and  O_8 
REMARK    3  A    between atoms: C_10  and  O_11 
REMARK    4  A    between atoms: C_16  and  C_17 
REMARK    5  A    between atoms: C_20  and  C_21 
REMARK    6  A    between atoms: C_21  and  N_22 
REMARK    7  A    between atoms: N_22  and  C_23 
REMARK    8  A    between atoms: C_23  and  N_24 
REMARK    9  A    between atoms: N_24  and  C_25 
ROOT
HETATM    1  C   UNL     1      43.816 -17.917   4.651  1.00  0.00     0.034 A 
HETATM    2  C   UNL     1      44.632 -19.001   4.989  1.00  0.00     0.031 A 
HETATM    3  C   UNL     1      44.727 -20.111   4.143  1.00  0.00     0.025 A 
HETATM    4  C   UNL     1      44.015 -20.144   2.941  1.00  0.00     0.044 A 
HETATM    5  C   UNL     1      44.112 -21.286   2.080  1.00  0.00     0.099 C 
HETATM    6  N   UNL     1      44.197 -22.224   1.404  1.00  0.00    -0.191 NA
HETATM    7  C   UNL     1      43.221 -19.053   2.584  1.00  0.00     0.025 A 
HETATM    8  C   UNL     1      43.133 -17.941   3.431  1.00  0.00     0.031 A 
ENDROOT
BRANCH   1   9
HETATM    9  N   UNL     1      43.698 -16.753   5.437  1.00  0.00    -0.333 N 
HETATM   10  H   UNL     1      44.404 -16.039   5.269  1.00  0.00     0.168 HD
BRANCH   9  11
HETATM   11  C   UNL     1      42.880 -16.459   6.491  1.00  0.00     0.172 C 
HETATM   12  S   UNL     1      43.207 -17.162   7.969  1.00  0.00    -0.041 SA
BRANCH  11  13
HETATM   13  N   UNL     1      41.878 -15.553   6.251  1.00  0.00    -0.365 N 
HETATM   14  H   UNL     1      40.969 -16.008   6.227  1.00  0.00     0.161 HD
BRANCH  13  15
HETATM   15  C   UNL     1      42.035 -14.318   5.487  1.00  0.00     0.155 C 
BRANCH  15  16
HETATM   16  C   UNL     1      41.428 -13.090   6.199  1.00  0.00     0.206 C 
HETATM   17  C   UNL     1      41.515 -11.792   5.378  1.00  0.00     0.040 C 
HETATM   18  C   UNL     1      40.181 -11.012   5.393  1.00  0.00     0.001 C 
HETATM   19  C   UNL     1      39.016 -11.818   4.781  1.00  0.00     0.067 C 
HETATM   20  C   UNL     1      39.830 -10.834   6.897  1.00  0.00     0.033 C 
HETATM   21  C   UNL     1      39.053 -13.262   5.324  1.00  0.00     0.246 C 
HETATM   22  N   UNL     1      39.959 -13.291   6.560  1.00  0.00    -0.065 N 
HETATM   23  C   UNL     1      39.532 -12.200   7.539  1.00  0.00     0.236 C 
HETATM   24  H   UNL     1      39.841 -14.204   7.022  1.00  0.00     0.280 HD
BRANCH  19  25
HETATM   25  C   UNL     1      38.711 -11.766   3.310  1.00  0.00     0.038 C 
HETATM   26  N   UNL     1      38.161 -10.778   2.528  1.00  0.00    -0.277 N 
HETATM   27  C   UNL     1      37.535  -9.526   2.876  1.00  0.00     0.179 C 
HETATM   28  N   UNL     1      38.253 -11.032   1.215  1.00  0.00    -0.172 NA
HETATM   29  C   UNL     1      38.713 -12.280   1.113  1.00  0.00     0.089 C 
HETATM   30  C   UNL     1      39.000 -12.781   2.403  1.00  0.00     0.061 C 
BRANCH  29  31
HETATM   31  C   UNL     1      38.913 -12.928  -0.182  1.00  0.00    -0.003 A 
HETATM   32  C   UNL     1      40.213 -13.158  -0.660  1.00  0.00     0.053 A 
HETATM   33  C   UNL     1      40.427 -13.806  -1.882  1.00  0.00     0.102 A 
HETATM   34  C   UNL     1      39.323 -14.220  -2.653  1.00  0.00     0.101 A 
HETATM   35  C   UNL     1      38.027 -13.983  -2.183  1.00  0.00     0.040 A 
HETATM   36  C   UNL     1      37.823 -13.343  -0.957  1.00  0.00     0.017 A 
BRANCH  33  37
HETATM   37  O   UNL     1      41.666 -14.083  -2.404  1.00  0.00    -0.353 OA
HETATM   38  C   UNL     1      42.607 -13.023  -2.477  1.00  0.00     0.210 C 
ENDBRANCH  33  37
BRANCH  34  39
HETATM   39  O   UNL     1      39.615 -14.854  -3.834  1.00  0.00    -0.353 OA
HETATM   40  C   UNL     1      39.346 -16.246  -3.920  1.00  0.00     0.210 C 
ENDBRANCH  34  39
ENDBRANCH  29  31
ENDBRANCH  19  25
ENDBRANCH  15  16
ENDBRANCH  13  15
ENDBRANCH  11  13
ENDBRANCH   9  11
ENDBRANCH   1   9
TORSDOF 9
ENDMDL
MODEL 9
REMARK VINA RESULT:      -7.7      2.011      6.160
REMARK  9 active torsions:
REMARK  status: ('A' for Active; 'I' for Inactive)
REMARK    1  A    between atoms: C_4  and  C_5 
REMARK    2  A    between atoms: C_7  and  O_8 
REMARK    3  A    between atoms: C_10  and  O_11 
REMARK    4  A    between atoms: C_16  and  C_17 
REMARK    5  A    between atoms: C_20  and  C_21 
REMARK    6  A    between atoms: C_21  and  N_22 
REMARK    7  A    between atoms: N_22  and  C_23 
REMARK    8  A    between atoms: C_23  and  N_24 
REMARK    9  A    between atoms: N_24  and  C_25 
ROOT
HETATM    1  C   UNL     1      40.362 -13.966  -0.974  1.00  0.00     0.034 A 
HETATM    2  C   UNL     1      39.747 -12.777  -1.379  1.00  0.00     0.031 A 
HETATM    3  C   UNL     1      40.296 -12.009  -2.412  1.00  0.00     0.025 A 
HETATM    4  C   UNL     1      41.461 -12.428  -3.059  1.00  0.00     0.044 A 
HETATM    5  C   UNL     1      42.022 -11.635  -4.113  1.00  0.00     0.099 C 
HETATM    6  N   UNL     1      42.465 -10.972  -4.955  1.00  0.00    -0.191 NA
HETATM    7  C   UNL     1      42.064 -13.629  -2.678  1.00  0.00     0.025 A 
HETATM    8  C   UNL     1      41.508 -14.398  -1.649  1.00  0.00     0.031 A 
ENDROOT
BRANCH   1   9
HETATM    9  N   UNL     1      39.847 -14.807   0.034  1.00  0.00    -0.333 N 
HETATM   10  H   UNL     1      38.964 -15.263  -0.186  1.00  0.00     0.168 HD
BRANCH   9  11
HETATM   11  C   UNL     1      40.254 -15.021   1.320  1.00  0.00     0.172 C 
HETATM   12  S   UNL     1      40.219 -16.581   1.913  1.00  0.00    -0.041 SA
BRANCH  11  13
HETATM   13  N   UNL     1      40.717 -13.926   2.004  1.00  0.00    -0.365 N 
HETATM   14  H   UNL     1      41.356 -14.198   2.746  1.00  0.00     0.161 HD
BRANCH  13  15
HETATM   15  C   UNL     1      39.982 -12.675   2.172  1.00  0.00     0.155 C 
BRANCH  15  16
HETATM   16  C   UNL     1      39.594 -12.398   3.641  1.00  0.00     0.206 C 
HETATM   17  C   UNL     1      39.444 -13.670   4.492  1.00  0.00     0.040 C 
HETATM   18  C   UNL     1      40.145 -13.531   5.862  1.00  0.00     0.001 C 
HETATM   19  C   UNL     1      41.664 -13.292   5.729  1.00  0.00     0.067 C 
HETATM   20  C   UNL     1      39.565 -12.231   6.487  1.00  0.00     0.033 C 
HETATM   21  C   UNL     1      41.921 -12.232   4.637  1.00  0.00     0.246 C 
HETATM   22  N   UNL     1      40.603 -11.502   4.352  1.00  0.00    -0.065 N 
HETATM   23  C   UNL     1      39.995 -11.006   5.662  1.00  0.00     0.236 C 
HETATM   24  H   UNL     1      40.812 -10.684   3.762  1.00  0.00     0.280 HD
BRANCH  19  25
HETATM   25  C   UNL     1      42.636 -14.437   5.657  1.00  0.00     0.038 C 
HETATM   26  N   UNL     1      43.756 -14.729   6.401  1.00  0.00    -0.277 N 
HETATM   27  C   UNL     1      44.473 -13.957   7.386  1.00  0.00     0.179 C 
HETATM   28  N   UNL     1      44.235 -15.960   6.171  1.00  0.00    -0.172 NA
HETATM   29  C   UNL     1      43.538 -16.439   5.139  1.00  0.00     0.089 C 
HETATM   30  C   UNL     1      42.535 -15.511   4.778  1.00  0.00     0.061 C 
BRANCH  29  31
HETATM   31  C   UNL     1      43.804 -17.760   4.573  1.00  0.00    -0.003 A 
HETATM   32  C   UNL     1      43.993 -18.863   5.421  1.00  0.00     0.053 A 
HETATM   33  C   UNL     1      44.216 -20.143   4.898  1.00  0.00     0.102 A 
HETATM   34  C   UNL     1      44.268 -20.325   3.502  1.00  0.00     0.101 A 
HETATM   35  C   UNL     1      44.089 -19.226   2.657  1.00  0.00     0.040 A 
HETATM   36  C   UNL     1      43.857 -17.954   3.187  1.00  0.00     0.017 A 
BRANCH  33  37
HETATM   37  O   UNL     1      44.390 -21.270   5.662  1.00  0.00    -0.353 OA
HETATM   38  C   UNL     1      43.904 -21.249   6.995  1.00  0.00     0.210 C 
ENDBRANCH  33  37
BRANCH  34  39
HETATM   39  O   UNL     1      44.483 -21.609   3.070  1.00  0.00    -0.353 OA
HETATM   40  C   UNL     1      44.322 -21.874   1.684  1.00  0.00     0.210 C 
ENDBRANCH  34  39
ENDBRANCH  29  31
ENDBRANCH  19  25
ENDBRANCH  15  16
ENDBRANCH  13  15
ENDBRANCH  11  13
ENDBRANCH   9  11
ENDBRANCH   1   9
TORSDOF 9
ENDMDL
MODEL 10
REMARK VINA RESULT:      -7.6      3.379      7.462
REMARK  9 active torsions:
REMARK  status: ('A' for Active; 'I' for Inactive)
REMARK    1  A    between atoms: C_4  and  C_5 
REMARK    2  A    between atoms: C_7  and  O_8 
REMARK    3  A    between atoms: C_10  and  O_11 
REMARK    4  A    between atoms: C_16  and  C_17 
REMARK    5  A    between atoms: C_20  and  C_21 
REMARK    6  A    between atoms: C_21  and  N_22 
REMARK    7  A    between atoms: N_22  and  C_23 
REMARK    8  A    between atoms: C_23  and  N_24 
REMARK    9  A    between atoms: N_24  and  C_25 
ROOT
HETATM    1  C   UNL     1      41.157 -10.831   1.004  1.00  0.00     0.034 A 
HETATM    2  C   UNL     1      40.246 -10.354   0.057  1.00  0.00     0.031 A 
HETATM    3  C   UNL     1      40.434 -10.615  -1.305  1.00  0.00     0.025 A 
HETATM    4  C   UNL     1      41.530 -11.367  -1.733  1.00  0.00     0.044 A 
HETATM    5  C   UNL     1      41.721 -11.627  -3.130  1.00  0.00     0.099 C 
HETATM    6  N   UNL     1      41.862 -11.816  -4.266  1.00  0.00    -0.191 NA
HETATM    7  C   UNL     1      42.428 -11.870  -0.790  1.00  0.00     0.025 A 
HETATM    8  C   UNL     1      42.233 -11.613   0.572  1.00  0.00     0.031 A 
ENDROOT
BRANCH   1   9
HETATM    9  N   UNL     1      41.013 -10.637   2.393  1.00  0.00    -0.333 N 
HETATM   10  H   UNL     1      41.694 -10.011   2.819  1.00  0.00     0.168 HD
BRANCH   9  11
HETATM   11  C   UNL     1      40.200 -11.245   3.307  1.00  0.00     0.172 C 
HETATM   12  S   UNL     1      38.596 -10.788   3.370  1.00  0.00    -0.041 SA
BRANCH  11  13
HETATM   13  N   UNL     1      40.770 -12.235   4.066  1.00  0.00    -0.365 N 
HETATM   14  H   UNL     1      40.176 -13.059   4.103  1.00  0.00     0.161 HD
BRANCH  13  15
HETATM   15  C   UNL     1      41.679 -12.009   5.187  1.00  0.00     0.155 C 
BRANCH  15  16
HETATM   16  C   UNL     1      42.190 -13.321   5.821  1.00  0.00     0.206 C 
HETATM   17  C   UNL     1      41.388 -14.565   5.402  1.00  0.00     0.040 C 
HETATM   18  C   UNL     1      42.312 -15.744   5.022  1.00  0.00     0.001 C 
HETATM   19  C   UNL     1      43.232 -15.416   3.827  1.00  0.00     0.067 C 
HETATM   20  C   UNL     1      43.255 -15.932   6.243  1.00  0.00     0.033 C 
HETATM   21  C   UNL     1      43.840 -14.011   4.021  1.00  0.00     0.246 C 
HETATM   22  N   UNL     1      43.652 -13.601   5.486  1.00  0.00    -0.065 N 
HETATM   23  C   UNL     1      44.171 -14.706   6.402  1.00  0.00     0.236 C 
HETATM   24  H   UNL     1      44.211 -12.752   5.654  1.00  0.00     0.280 HD
BRANCH  19  25
HETATM   25  C   UNL     1      42.796 -15.661   2.409  1.00  0.00     0.038 C 
HETATM   26  N   UNL     1      43.062 -16.694   1.540  1.00  0.00    -0.277 N 
HETATM   27  C   UNL     1      43.981 -17.801   1.631  1.00  0.00     0.179 C 
HETATM   28  N   UNL     1      42.309 -16.657   0.431  1.00  0.00    -0.172 NA
HETATM   29  C   UNL     1      41.652 -15.496   0.471  1.00  0.00     0.089 C 
HETATM   30  C   UNL     1      41.939 -14.836   1.688  1.00  0.00     0.061 C 
BRANCH  29  31
HETATM   31  C   UNL     1      40.747 -15.082  -0.600  1.00  0.00    -0.003 A 
HETATM   32  C   UNL     1      39.669 -14.228  -0.318  1.00  0.00     0.053 A 
HETATM   33  C   UNL     1      38.811 -13.793  -1.335  1.00  0.00     0.102 A 
HETATM   34  C   UNL     1      39.020 -14.230  -2.657  1.00  0.00     0.101 A 
HETATM   35  C   UNL     1      40.088 -15.088  -2.938  1.00  0.00     0.040 A 
HETATM   36  C   UNL     1      40.946 -15.510  -1.918  1.00  0.00     0.017 A 
BRANCH  33  37
HETATM   37  O   UNL     1      37.749 -12.944  -1.140  1.00  0.00    -0.353 OA
HETATM   38  C   UNL     1      37.259 -12.788   0.183  1.00  0.00     0.210 C 
ENDBRANCH  33  37
BRANCH  34  39
HETATM   39  O   UNL     1      38.142 -13.753  -3.597  1.00  0.00    -0.353 OA
HETATM   40  C   UNL     1      37.186 -14.660  -4.126  1.00  0.00     0.210 C 
ENDBRANCH  34  39
ENDBRANCH  29  31
ENDBRANCH  19  25
ENDBRANCH  15  16
ENDBRANCH  13  15
ENDBRANCH  11  13
ENDBRANCH   9  11
ENDBRANCH   1   9
TORSDOF 9
ENDMDL
