MODEL 1
REMARK VINA RESULT:     -10.0      0.000      0.000
REMARK  7 active torsions:
REMARK  status: ('A' for Active; 'I' for Inactive)
REMARK    1  A    between atoms: C_4  and  C_5 
REMARK    2  A    between atoms: C_5  and  C_6 
REMARK    3  A    between atoms: C_6  and  N_7 
REMARK       I    between atoms: N_7  and  C_8 
REMARK    4  A    between atoms: C_8  and  C_9 
REMARK    5  A    between atoms: C_10  and  N_11 
REMARK    6  A    between atoms: N_12  and  N_13 
REMARK    7  A    between atoms: C_14  and  C_15 
ROOT
HETATM    1  C   UNL     1      41.160 -15.458   1.275  1.00  0.00     0.110 A 
HETATM    2  C   UNL     1      40.437 -15.342   2.456  1.00  0.00     0.143 A 
HETATM    3  N   UNL     1      40.092 -13.999   2.631  1.00  0.00    -0.197 N 
HETATM    4  C   UNL     1      40.724 -13.263   1.647  1.00  0.00     0.183 A 
HETATM    5  C   UNL     1      41.369 -14.147   0.789  1.00  0.00     0.125 A 
HETATM    6  N   UNL     1      42.101 -13.699  -0.265  1.00  0.00    -0.242 NA
HETATM    7  C   UNL     1      42.159 -12.360  -0.380  1.00  0.00     0.086 A 
HETATM    8  C   UNL     1      41.476 -11.481   0.503  1.00  0.00     0.088 A 
HETATM    9  N   UNL     1      40.728 -11.915   1.526  1.00  0.00    -0.225 NA
HETATM   10  C   UNL     1      42.934 -11.813  -1.396  1.00  0.00     0.034 A 
HETATM   11  C   UNL     1      43.054 -10.432  -1.567  1.00  0.00     0.002 A 
HETATM   12  C   UNL     1      42.376  -9.577  -0.709  1.00  0.00     0.002 A 
HETATM   13  C   UNL     1      41.593 -10.110   0.314  1.00  0.00     0.034 A 
ENDROOT
BRANCH   1  14
HETATM   14  C   UNL     1      41.633 -16.716   0.732  1.00  0.00     0.257 C 
HETATM   15  N   UNL     1      43.009 -16.743   0.566  1.00  0.00    -0.356 N 
HETATM   16  H   UNL     1      43.451 -15.861   0.804  1.00  0.00     0.162 HD
HETATM   17  O   UNL     1      40.896 -17.681   0.576  1.00  0.00    -0.267 OA
BRANCH  15  18
HETATM   18  C   UNL     1      43.786 -17.897   0.975  1.00  0.00     0.127 C 
BRANCH  18  19
HETATM   19  C   UNL     1      44.009 -18.118   2.471  1.00  0.00     0.058 C 
BRANCH  19  20
HETATM   20  C   UNL     1      44.090 -19.607   2.733  1.00  0.00    -0.057 A 
HETATM   21  C   UNL     1      44.652 -20.074   3.932  1.00  0.00     0.007 A 
HETATM   22  C   UNL     1      44.835 -21.440   4.145  1.00  0.00     0.001 A 
HETATM   23  C   UNL     1      44.452 -22.353   3.164  1.00  0.00     0.000 A 
HETATM   24  C   UNL     1      43.881 -21.900   1.976  1.00  0.00     0.001 A 
HETATM   25  C   UNL     1      43.703 -20.533   1.758  1.00  0.00     0.007 A 
ENDBRANCH  19  20
ENDBRANCH  18  19
ENDBRANCH  15  18
ENDBRANCH   1  14
BRANCH   2  26
HETATM   26  N   UNL     1      40.092 -16.311   3.352  1.00  0.00    -0.383 N 
HETATM   27  H   UNL     1      40.219 -16.124   4.346  1.00  0.00     0.157 HD
HETATM   28  H   UNL     1      40.303 -17.283   3.139  1.00  0.00     0.157 HD
ENDBRANCH   2  26
BRANCH   3  29
HETATM   29  N   UNL     1      39.443 -13.457   3.707  1.00  0.00    -0.176 NA
HETATM   30  C   UNL     1      40.118 -13.242   4.795  1.00  0.00     0.153 C 
BRANCH  30  31
HETATM   31  C   UNL     1      41.477 -13.645   5.091  1.00  0.00     0.011 A 
HETATM   32  C   UNL     1      41.887 -14.855   5.739  1.00  0.00     0.004 A 
HETATM   33  C   UNL     1      43.281 -14.848   5.790  1.00  0.00     0.043 A 
HETATM   34  C   UNL     1      41.198 -15.943   6.316  1.00  0.00     0.014 A 
HETATM   35  C   UNL     1      44.024 -15.880   6.375  1.00  0.00     0.030 A 
HETATM   36  N   UNL     1      43.703 -13.687   5.180  1.00  0.00    -0.364 N 
HETATM   37  C   UNL     1      43.317 -16.943   6.945  1.00  0.00     0.002 A 
HETATM   38  C   UNL     1      41.925 -16.976   6.920  1.00  0.00     0.001 A 
HETATM   39  H   UNL     1      44.672 -13.420   5.063  1.00  0.00     0.165 HD
HETATM   40  C   UNL     1      42.625 -12.953   4.761  1.00  0.00     0.102 A 
ENDBRANCH  30  31
ENDBRANCH   3  29
TORSDOF 7
ENDMDL
MODEL 2
REMARK VINA RESULT:      -9.4      3.522      8.847
REMARK  7 active torsions:
REMARK  status: ('A' for Active; 'I' for Inactive)
REMARK    1  A    between atoms: C_4  and  C_5 
REMARK    2  A    between atoms: C_5  and  C_6 
REMARK    3  A    between atoms: C_6  and  N_7 
REMARK       I    between atoms: N_7  and  C_8 
REMARK    4  A    between atoms: C_8  and  C_9 
REMARK    5  A    between atoms: C_10  and  N_11 
REMARK    6  A    between atoms: N_12  and  N_13 
REMARK    7  A    between atoms: C_14  and  C_15 
ROOT
HETATM    1  C   UNL     1      43.110 -14.899   5.163  1.00  0.00     0.110 A 
HETATM    2  C   UNL     1      43.255 -14.764   3.787  1.00  0.00     0.143 A 
HETATM    3  N   UNL     1      43.342 -16.041   3.226  1.00  0.00    -0.197 N 
HETATM    4  C   UNL     1      43.403 -16.959   4.258  1.00  0.00     0.183 A 
HETATM    5  C   UNL     1      43.239 -16.276   5.457  1.00  0.00     0.125 A 
HETATM    6  N   UNL     1      43.283 -16.927   6.650  1.00  0.00    -0.242 NA
HETATM    7  C   UNL     1      43.516 -18.248   6.561  1.00  0.00     0.086 A 
HETATM    8  C   UNL     1      43.663 -18.922   5.319  1.00  0.00     0.088 A 
HETATM    9  N   UNL     1      43.591 -18.294   4.138  1.00  0.00    -0.225 NA
HETATM   10  C   UNL     1      43.634 -18.982   7.735  1.00  0.00     0.034 A 
HETATM   11  C   UNL     1      43.892 -20.355   7.720  1.00  0.00     0.002 A 
HETATM   12  C   UNL     1      44.023 -21.013   6.505  1.00  0.00     0.002 A 
HETATM   13  C   UNL     1      43.905 -20.290   5.318  1.00  0.00     0.034 A 
ENDROOT
BRANCH   1  14
HETATM   14  C   UNL     1      42.925 -13.787   6.073  1.00  0.00     0.257 C 
HETATM   15  N   UNL     1      43.751 -13.862   7.184  1.00  0.00    -0.356 N 
HETATM   16  H   UNL     1      44.311 -14.709   7.201  1.00  0.00     0.162 HD
HETATM   17  O   UNL     1      42.212 -12.830   5.802  1.00  0.00    -0.267 OA
BRANCH  15  18
HETATM   18  C   UNL     1      44.468 -12.696   7.658  1.00  0.00     0.127 C 
BRANCH  18  19
HETATM   19  C   UNL     1      44.914 -12.673   9.120  1.00  0.00     0.058 C 
BRANCH  19  20
HETATM   20  C   UNL     1      44.200 -11.539   9.826  1.00  0.00    -0.057 A 
HETATM   21  C   UNL     1      44.598 -11.162  11.119  1.00  0.00     0.007 A 
HETATM   22  C   UNL     1      43.884 -10.195  11.827  1.00  0.00     0.001 A 
HETATM   23  C   UNL     1      42.770  -9.591  11.247  1.00  0.00     0.000 A 
HETATM   24  C   UNL     1      42.375  -9.949   9.959  1.00  0.00     0.001 A 
HETATM   25  C   UNL     1      43.084 -10.921   9.251  1.00  0.00     0.007 A 
ENDBRANCH  19  20
ENDBRANCH  18  19
ENDBRANCH  15  18
ENDBRANCH   1  14
BRANCH   2  26
HETATM   26  N   UNL     1      43.325 -13.627   3.037  1.00  0.00    -0.383 N 
HETATM   27  H   UNL     1      44.194 -13.417   2.548  1.00  0.00     0.157 HD
HETATM   28  H   UNL     1      42.893 -12.774   3.386  1.00  0.00     0.157 HD
ENDBRANCH   2  26
BRANCH   3  29
HETATM   29  N   UNL     1      43.565 -16.341   1.909  1.00  0.00    -0.176 NA
HETATM   30  C   UNL     1      42.577 -16.236   1.074  1.00  0.00     0.153 C 
BRANCH  30  31
HETATM   31  C   UNL     1      41.184 -15.977   1.373  1.00  0.00     0.011 A 
HETATM   32  C   UNL     1      40.416 -14.843   0.951  1.00  0.00     0.004 A 
HETATM   33  C   UNL     1      39.119 -15.015   1.436  1.00  0.00     0.043 A 
HETATM   34  C   UNL     1      40.713 -13.670   0.227  1.00  0.00     0.014 A 
HETATM   35  C   UNL     1      38.099 -14.081   1.221  1.00  0.00     0.030 A 
HETATM   36  N   UNL     1      39.095 -16.216   2.111  1.00  0.00    -0.364 N 
HETATM   37  C   UNL     1      38.421 -12.924   0.506  1.00  0.00     0.002 A 
HETATM   38  C   UNL     1      39.709 -12.717   0.017  1.00  0.00     0.001 A 
HETATM   39  H   UNL     1      38.276 -16.604   2.562  1.00  0.00     0.165 HD
HETATM   40  C   UNL     1      40.334 -16.800   2.085  1.00  0.00     0.102 A 
ENDBRANCH  30  31
ENDBRANCH   3  29
TORSDOF 7
ENDMDL
MODEL 3
REMARK VINA RESULT:      -9.3      1.866      5.424
REMARK  7 active torsions:
REMARK  status: ('A' for Active; 'I' for Inactive)
REMARK    1  A    between atoms: C_4  and  C_5 
REMARK    2  A    between atoms: C_5  and  C_6 
REMARK    3  A    between atoms: C_6  and  N_7 
REMARK       I    between atoms: N_7  and  C_8 
REMARK    4  A    between atoms: C_8  and  C_9 
REMARK    5  A    between atoms: C_10  and  N_11 
REMARK    6  A    between atoms: N_12  and  N_13 
REMARK    7  A    between atoms: C_14  and  C_15 
ROOT
HETATM    1  C   UNL     1      41.624 -15.539   1.639  1.00  0.00     0.110 A 
HETATM    2  C   UNL     1      40.913 -15.509   0.444  1.00  0.00     0.143 A 
HETATM    3  N   UNL     1      40.079 -14.388   0.457  1.00  0.00    -0.197 N 
HETATM    4  C   UNL     1      40.159 -13.809   1.709  1.00  0.00     0.183 A 
HETATM    5  C   UNL     1      41.121 -14.492   2.444  1.00  0.00     0.125 A 
HETATM    6  N   UNL     1      41.395 -14.155   3.732  1.00  0.00    -0.242 NA
HETATM    7  C   UNL     1      40.651 -13.145   4.219  1.00  0.00     0.086 A 
HETATM    8  C   UNL     1      39.685 -12.455   3.439  1.00  0.00     0.088 A 
HETATM    9  N   UNL     1      39.430 -12.760   2.160  1.00  0.00    -0.225 NA
HETATM   10  C   UNL     1      40.825 -12.773   5.547  1.00  0.00     0.034 A 
HETATM   11  C   UNL     1      40.076 -11.745   6.125  1.00  0.00     0.002 A 
HETATM   12  C   UNL     1      39.142 -11.065   5.357  1.00  0.00     0.002 A 
HETATM   13  C   UNL     1      38.958 -11.426   4.023  1.00  0.00     0.034 A 
ENDROOT
BRANCH   1  14
HETATM   14  C   UNL     1      42.635 -16.527   1.957  1.00  0.00     0.257 C 
HETATM   15  N   UNL     1      42.761 -16.743   3.321  1.00  0.00    -0.356 N 
HETATM   16  H   UNL     1      42.161 -16.138   3.872  1.00  0.00     0.162 HD
HETATM   17  O   UNL     1      43.205 -17.184   1.095  1.00  0.00    -0.267 OA
BRANCH  15  18
HETATM   18  C   UNL     1      42.859 -18.087   3.855  1.00  0.00     0.127 C 
BRANCH  18  19
HETATM   19  C   UNL     1      44.200 -18.529   4.442  1.00  0.00     0.058 C 
BRANCH  19  20
HETATM   20  C   UNL     1      44.435 -19.979   4.073  1.00  0.00    -0.057 A 
HETATM   21  C   UNL     1      44.268 -20.396   2.743  1.00  0.00     0.007 A 
HETATM   22  C   UNL     1      44.373 -21.744   2.404  1.00  0.00     0.001 A 
HETATM   23  C   UNL     1      44.654 -22.689   3.390  1.00  0.00     0.000 A 
HETATM   24  C   UNL     1      44.835 -22.283   4.711  1.00  0.00     0.001 A 
HETATM   25  C   UNL     1      44.724 -20.934   5.054  1.00  0.00     0.007 A 
ENDBRANCH  19  20
ENDBRANCH  18  19
ENDBRANCH  15  18
ENDBRANCH   1  14
BRANCH   2  26
HETATM   26  N   UNL     1      40.949 -16.385  -0.600  1.00  0.00    -0.383 N 
HETATM   27  H   UNL     1      40.261 -16.286  -1.345  1.00  0.00     0.157 HD
HETATM   28  H   UNL     1      41.144 -17.367  -0.419  1.00  0.00     0.157 HD
ENDBRANCH   2  26
BRANCH   3  29
HETATM   29  N   UNL     1      39.164 -14.040  -0.500  1.00  0.00    -0.176 NA
HETATM   30  C   UNL     1      39.577 -13.394  -1.547  1.00  0.00     0.153 C 
BRANCH  30  31
HETATM   31  C   UNL     1      40.894 -12.839  -1.786  1.00  0.00     0.011 A 
HETATM   32  C   UNL     1      41.443 -11.657  -1.192  1.00  0.00     0.004 A 
HETATM   33  C   UNL     1      42.743 -11.512  -1.679  1.00  0.00     0.043 A 
HETATM   34  C   UNL     1      40.942 -10.677  -0.309  1.00  0.00     0.014 A 
HETATM   35  C   UNL     1      43.574 -10.446  -1.316  1.00  0.00     0.030 A 
HETATM   36  N   UNL     1      42.981 -12.576  -2.521  1.00  0.00    -0.364 N 
HETATM   37  C   UNL     1      43.052  -9.486  -0.444  1.00  0.00     0.002 A 
HETATM   38  C   UNL     1      41.754  -9.595   0.052  1.00  0.00     0.001 A 
HETATM   39  H   UNL     1      43.851 -12.735  -3.012  1.00  0.00     0.165 HD
HETATM   40  C   UNL     1      41.873 -13.377  -2.597  1.00  0.00     0.102 A 
ENDBRANCH  30  31
ENDBRANCH   3  29
TORSDOF 7
ENDMDL
MODEL 4
REMARK VINA RESULT:      -9.1      2.188      5.427
REMARK  7 active torsions:
REMARK  status: ('A' for Active; 'I' for Inactive)
REMARK    1  A    between atoms: C_4  and  C_5 
REMARK    2  A    between atoms: C_5  and  C_6 
REMARK    3  A    between atoms: C_6  and  N_7 
REMARK       I    between atoms: N_7  and  C_8 
REMARK    4  A    between atoms: C_8  and  C_9 
REMARK    5  A    between atoms: C_10  and  N_11 
REMARK    6  A    between atoms: N_12  and  N_13 
REMARK    7  A    between atoms: C_14  and  C_15 
ROOT
HETATM    1  C   UNL     1      41.235 -15.191   2.933  1.00  0.00     0.110 A 
HETATM    2  C   UNL     1      40.178 -15.454   2.070  1.00  0.00     0.143 A 
HETATM    3  N   UNL     1      39.303 -14.364   2.100  1.00  0.00    -0.197 N 
HETATM    4  C   UNL     1      39.734 -13.497   3.086  1.00  0.00     0.183 A 
HETATM    5  C   UNL     1      40.934 -13.978   3.595  1.00  0.00     0.125 A 
HETATM    6  N   UNL     1      41.580 -13.337   4.605  1.00  0.00    -0.242 NA
HETATM    7  C   UNL     1      40.952 -12.240   5.066  1.00  0.00     0.086 A 
HETATM    8  C   UNL     1      39.733 -11.762   4.514  1.00  0.00     0.088 A 
HETATM    9  N   UNL     1      39.106 -12.371   3.499  1.00  0.00    -0.225 NA
HETATM   10  C   UNL     1      41.512 -11.554   6.137  1.00  0.00     0.034 A 
HETATM   11  C   UNL     1      40.908 -10.417   6.678  1.00  0.00     0.002 A 
HETATM   12  C   UNL     1      39.724  -9.946   6.129  1.00  0.00     0.002 A 
HETATM   13  C   UNL     1      39.150 -10.622   5.053  1.00  0.00     0.034 A 
ENDROOT
BRANCH   1  14
HETATM   14  C   UNL     1      42.373 -16.070   3.116  1.00  0.00     0.257 C 
HETATM   15  N   UNL     1      42.456 -16.576   4.404  1.00  0.00    -0.356 N 
HETATM   16  H   UNL     1      41.737 -16.208   5.018  1.00  0.00     0.162 HD
HETATM   17  O   UNL     1      43.087 -16.420   2.185  1.00  0.00    -0.267 OA
BRANCH  15  18
HETATM   18  C   UNL     1      42.738 -17.978   4.635  1.00  0.00     0.127 C 
BRANCH  18  19
HETATM   19  C   UNL     1      44.199 -18.428   4.619  1.00  0.00     0.058 C 
BRANCH  19  20
HETATM   20  C   UNL     1      44.297 -19.728   3.847  1.00  0.00    -0.057 A 
HETATM   21  C   UNL     1      43.800 -19.800   2.536  1.00  0.00     0.007 A 
HETATM   22  C   UNL     1      43.782 -21.014   1.850  1.00  0.00     0.001 A 
HETATM   23  C   UNL     1      44.267 -22.166   2.465  1.00  0.00     0.000 A 
HETATM   24  C   UNL     1      44.776 -22.103   3.762  1.00  0.00     0.001 A 
HETATM   25  C   UNL     1      44.789 -20.889   4.453  1.00  0.00     0.007 A 
ENDBRANCH  19  20
ENDBRANCH  18  19
ENDBRANCH  15  18
ENDBRANCH   1  14
BRANCH   2  26
HETATM   26  N   UNL     1      39.947 -16.559   1.304  1.00  0.00    -0.383 N 
HETATM   27  H   UNL     1      39.481 -17.359   1.729  1.00  0.00     0.157 HD
HETATM   28  H   UNL     1      40.660 -16.865   0.646  1.00  0.00     0.157 HD
ENDBRANCH   2  26
BRANCH   3  29
HETATM   29  N   UNL     1      38.104 -14.262   1.449  1.00  0.00    -0.176 NA
HETATM   30  C   UNL     1      38.077 -13.685   0.287  1.00  0.00     0.153 C 
BRANCH  30  31
HETATM   31  C   UNL     1      39.151 -12.977  -0.379  1.00  0.00     0.011 A 
HETATM   32  C   UNL     1      40.015 -13.498  -1.397  1.00  0.00     0.004 A 
HETATM   33  C   UNL     1      40.879 -12.471  -1.775  1.00  0.00     0.043 A 
HETATM   34  C   UNL     1      40.162 -14.761  -2.009  1.00  0.00     0.014 A 
HETATM   35  C   UNL     1      41.874 -12.636  -2.746  1.00  0.00     0.030 A 
HETATM   36  N   UNL     1      40.542 -11.362  -1.030  1.00  0.00    -0.364 N 
HETATM   37  C   UNL     1      42.003 -13.898  -3.333  1.00  0.00     0.002 A 
HETATM   38  C   UNL     1      41.163 -14.948  -2.970  1.00  0.00     0.001 A 
HETATM   39  H   UNL     1      40.999 -10.462  -1.101  1.00  0.00     0.165 HD
HETATM   40  C   UNL     1      39.507 -11.658  -0.182  1.00  0.00     0.102 A 
ENDBRANCH  30  31
ENDBRANCH   3  29
TORSDOF 7
ENDMDL
MODEL 5
REMARK VINA RESULT:      -9.0      3.081      7.809
REMARK  7 active torsions:
REMARK  status: ('A' for Active; 'I' for Inactive)
REMARK    1  A    between atoms: C_4  and  C_5 
REMARK    2  A    between atoms: C_5  and  C_6 
REMARK    3  A    between atoms: C_6  and  N_7 
REMARK       I    between atoms: N_7  and  C_8 
REMARK    4  A    between atoms: C_8  and  C_9 
REMARK    5  A    between atoms: C_10  and  N_11 
REMARK    6  A    between atoms: N_12  and  N_13 
REMARK    7  A    between atoms: C_14  and  C_15 
ROOT
HETATM    1  C   UNL     1      40.067 -13.475   1.207  1.00  0.00     0.110 A 
HETATM    2  C   UNL     1      40.556 -12.875   0.053  1.00  0.00     0.143 A 
HETATM    3  N   UNL     1      41.457 -13.756  -0.553  1.00  0.00    -0.197 N 
HETATM    4  C   UNL     1      41.641 -14.831   0.296  1.00  0.00     0.183 A 
HETATM    5  C   UNL     1      40.777 -14.687   1.375  1.00  0.00     0.125 A 
HETATM    6  N   UNL     1      40.759 -15.591   2.390  1.00  0.00    -0.242 NA
HETATM    7  C   UNL     1      41.647 -16.593   2.265  1.00  0.00     0.086 A 
HETATM    8  C   UNL     1      42.507 -16.724   1.142  1.00  0.00     0.088 A 
HETATM    9  N   UNL     1      42.510 -15.855   0.123  1.00  0.00    -0.225 NA
HETATM   10  C   UNL     1      41.738 -17.531   3.286  1.00  0.00     0.034 A 
HETATM   11  C   UNL     1      42.647 -18.590   3.233  1.00  0.00     0.002 A 
HETATM   12  C   UNL     1      43.478 -18.722   2.128  1.00  0.00     0.002 A 
HETATM   13  C   UNL     1      43.397 -17.789   1.095  1.00  0.00     0.034 A 
ENDROOT
BRANCH   1  14
HETATM   14  C   UNL     1      39.059 -12.884   2.066  1.00  0.00     0.257 C 
HETATM   15  N   UNL     1      39.216 -13.240   3.396  1.00  0.00    -0.356 N 
HETATM   16  H   UNL     1      39.977 -13.895   3.542  1.00  0.00     0.162 HD
HETATM   17  O   UNL     1      38.255 -12.057   1.658  1.00  0.00    -0.267 OA
BRANCH  15  18
HETATM   18  C   UNL     1      39.109 -12.249   4.449  1.00  0.00     0.127 C 
BRANCH  18  19
HETATM   19  C   UNL     1      40.393 -11.807   5.151  1.00  0.00     0.058 C 
BRANCH  19  20
HETATM   20  C   UNL     1      41.428 -12.902   5.002  1.00  0.00    -0.057 A 
HETATM   21  C   UNL     1      41.405 -14.006   5.869  1.00  0.00     0.007 A 
HETATM   22  C   UNL     1      42.413 -14.969   5.818  1.00  0.00     0.001 A 
HETATM   23  C   UNL     1      43.449 -14.842   4.895  1.00  0.00     0.000 A 
HETATM   24  C   UNL     1      43.474 -13.757   4.020  1.00  0.00     0.001 A 
HETATM   25  C   UNL     1      42.469 -12.788   4.074  1.00  0.00     0.007 A 
ENDBRANCH  19  20
ENDBRANCH  18  19
ENDBRANCH  15  18
ENDBRANCH   1  14
BRANCH   2  26
HETATM   26  N   UNL     1      40.274 -11.645  -0.463  1.00  0.00    -0.383 N 
HETATM   27  H   UNL     1      39.495 -11.118  -0.071  1.00  0.00     0.157 HD
HETATM   28  H   UNL     1      40.337 -11.501  -1.468  1.00  0.00     0.157 HD
ENDBRANCH   2  26
BRANCH   3  29
HETATM   29  N   UNL     1      42.211 -13.513  -1.669  1.00  0.00    -0.176 NA
HETATM   30  C   UNL     1      41.724 -13.833  -2.828  1.00  0.00     0.153 C 
BRANCH  30  31
HETATM   31  C   UNL     1      40.510 -14.573  -3.108  1.00  0.00     0.011 A 
HETATM   32  C   UNL     1      39.225 -14.020  -3.417  1.00  0.00     0.004 A 
HETATM   33  C   UNL     1      38.356 -15.087  -3.645  1.00  0.00     0.043 A 
HETATM   34  C   UNL     1      38.712 -12.708  -3.491  1.00  0.00     0.014 A 
HETATM   35  C   UNL     1      37.004 -14.911  -3.960  1.00  0.00     0.030 A 
HETATM   36  N   UNL     1      39.090 -16.245  -3.500  1.00  0.00    -0.364 N 
HETATM   37  C   UNL     1      36.520 -13.601  -4.022  1.00  0.00     0.002 A 
HETATM   38  C   UNL     1      37.358 -12.513  -3.789  1.00  0.00     0.001 A 
HETATM   39  H   UNL     1      38.718 -17.178  -3.618  1.00  0.00     0.165 HD
HETATM   40  C   UNL     1      40.385 -15.946  -3.171  1.00  0.00     0.102 A 
ENDBRANCH  30  31
ENDBRANCH   3  29
TORSDOF 7
ENDMDL
MODEL 6
REMARK VINA RESULT:      -8.9      1.715      5.723
REMARK  7 active torsions:
REMARK  status: ('A' for Active; 'I' for Inactive)
REMARK    1  A    between atoms: C_4  and  C_5 
REMARK    2  A    between atoms: C_5  and  C_6 
REMARK    3  A    between atoms: C_6  and  N_7 
REMARK       I    between atoms: N_7  and  C_8 
REMARK    4  A    between atoms: C_8  and  C_9 
REMARK    5  A    between atoms: C_10  and  N_11 
REMARK    6  A    between atoms: N_12  and  N_13 
REMARK    7  A    between atoms: C_14  and  C_15 
ROOT
HETATM    1  C   UNL     1      42.430 -15.967   1.418  1.00  0.00     0.110 A 
HETATM    2  C   UNL     1      41.425 -15.784   0.475  1.00  0.00     0.143 A 
HETATM    3  N   UNL     1      40.709 -14.633   0.813  1.00  0.00    -0.197 N 
HETATM    4  C   UNL     1      41.166 -14.188   2.039  1.00  0.00     0.183 A 
HETATM    5  C   UNL     1      42.241 -14.985   2.417  1.00  0.00     0.125 A 
HETATM    6  N   UNL     1      42.878 -14.793   3.602  1.00  0.00    -0.242 NA
HETATM    7  C   UNL     1      42.368 -13.805   4.361  1.00  0.00     0.086 A 
HETATM    8  C   UNL     1      41.278 -12.997   3.940  1.00  0.00     0.088 A 
HETATM    9  N   UNL     1      40.664 -13.159   2.760  1.00  0.00    -0.225 NA
HETATM   10  C   UNL     1      42.921 -13.578   5.615  1.00  0.00     0.034 A 
HETATM   11  C   UNL     1      42.434 -12.580   6.463  1.00  0.00     0.002 A 
HETATM   12  C   UNL     1      41.376 -11.785   6.045  1.00  0.00     0.002 A 
HETATM   13  C   UNL     1      40.812 -12.000   4.787  1.00  0.00     0.034 A 
ENDROOT
BRANCH   1  14
HETATM   14  C   UNL     1      43.417 -17.027   1.359  1.00  0.00     0.257 C 
HETATM   15  N   UNL     1      44.000 -17.284   2.590  1.00  0.00    -0.356 N 
HETATM   16  H   UNL     1      43.676 -16.654   3.317  1.00  0.00     0.162 HD
HETATM   17  O   UNL     1      43.598 -17.698   0.351  1.00  0.00    -0.267 OA
BRANCH  15  18
HETATM   18  C   UNL     1      44.185 -18.644   3.056  1.00  0.00     0.127 C 
BRANCH  18  19
HETATM   19  C   UNL     1      43.161 -19.212   4.039  1.00  0.00     0.058 C 
BRANCH  19  20
HETATM   20  C   UNL     1      43.149 -18.344   5.280  1.00  0.00    -0.057 A 
HETATM   21  C   UNL     1      44.269 -18.320   6.125  1.00  0.00     0.007 A 
HETATM   22  C   UNL     1      44.236 -17.614   7.327  1.00  0.00     0.001 A 
HETATM   23  C   UNL     1      43.085 -16.918   7.693  1.00  0.00     0.000 A 
HETATM   24  C   UNL     1      41.972 -16.924   6.853  1.00  0.00     0.001 A 
HETATM   25  C   UNL     1      42.001 -17.636   5.653  1.00  0.00     0.007 A 
ENDBRANCH  19  20
ENDBRANCH  18  19
ENDBRANCH  15  18
ENDBRANCH   1  14
BRANCH   2  26
HETATM   26  N   UNL     1      41.114 -16.551  -0.610  1.00  0.00    -0.383 N 
HETATM   27  H   UNL     1      41.573 -16.350  -1.497  1.00  0.00     0.157 HD
HETATM   28  H   UNL     1      40.148 -16.832  -0.759  1.00  0.00     0.157 HD
ENDBRANCH   2  26
BRANCH   3  29
HETATM   29  N   UNL     1      39.596 -14.150   0.180  1.00  0.00    -0.176 NA
HETATM   30  C   UNL     1      39.755 -13.354  -0.833  1.00  0.00     0.153 C 
BRANCH  30  31
HETATM   31  C   UNL     1      40.988 -12.768  -1.317  1.00  0.00     0.011 A 
HETATM   32  C   UNL     1      41.593 -11.553  -0.858  1.00  0.00     0.004 A 
HETATM   33  C   UNL     1      42.780 -11.383  -1.572  1.00  0.00     0.043 A 
HETATM   34  C   UNL     1      41.224 -10.564   0.078  1.00  0.00     0.014 A 
HETATM   35  C   UNL     1      43.625 -10.283  -1.388  1.00  0.00     0.030 A 
HETATM   36  N   UNL     1      42.900 -12.463  -2.419  1.00  0.00    -0.364 N 
HETATM   37  C   UNL     1      43.234  -9.314  -0.459  1.00  0.00     0.002 A 
HETATM   38  C   UNL     1      42.050  -9.448   0.263  1.00  0.00     0.001 A 
HETATM   39  H   UNL     1      43.674 -12.610  -3.054  1.00  0.00     0.165 HD
HETATM   40  C   UNL     1      41.825 -13.299  -2.278  1.00  0.00     0.102 A 
ENDBRANCH  30  31
ENDBRANCH   3  29
TORSDOF 7
ENDMDL
MODEL 7
REMARK VINA RESULT:      -8.8      1.697      5.512
REMARK  7 active torsions:
REMARK  status: ('A' for Active; 'I' for Inactive)
REMARK    1  A    between atoms: C_4  and  C_5 
REMARK    2  A    between atoms: C_5  and  C_6 
REMARK    3  A    between atoms: C_6  and  N_7 
REMARK       I    between atoms: N_7  and  C_8 
REMARK    4  A    between atoms: C_8  and  C_9 
REMARK    5  A    between atoms: C_10  and  N_11 
REMARK    6  A    between atoms: N_12  and  N_13 
REMARK    7  A    between atoms: C_14  and  C_15 
ROOT
HETATM    1  C   UNL     1      41.970 -15.564   2.136  1.00  0.00     0.110 A 
HETATM    2  C   UNL     1      40.756 -15.053   1.692  1.00  0.00     0.143 A 
HETATM    3  N   UNL     1      40.434 -13.941   2.475  1.00  0.00    -0.197 N 
HETATM    4  C   UNL     1      41.364 -13.851   3.494  1.00  0.00     0.183 A 
HETATM    5  C   UNL     1      42.330 -14.829   3.289  1.00  0.00     0.125 A 
HETATM    6  N   UNL     1      43.362 -14.993   4.159  1.00  0.00    -0.242 NA
HETATM    7  C   UNL     1      43.344 -14.161   5.216  1.00  0.00     0.086 A 
HETATM    8  C   UNL     1      42.351 -13.160   5.390  1.00  0.00     0.088 A 
HETATM    9  N   UNL     1      41.348 -12.970   4.522  1.00  0.00    -0.225 NA
HETATM   10  C   UNL     1      44.330 -14.298   6.185  1.00  0.00     0.034 A 
HETATM   11  C   UNL     1      44.365 -13.480   7.317  1.00  0.00     0.002 A 
HETATM   12  C   UNL     1      43.401 -12.495   7.479  1.00  0.00     0.002 A 
HETATM   13  C   UNL     1      42.406 -12.344   6.513  1.00  0.00     0.034 A 
ENDROOT
BRANCH   1  14
HETATM   14  C   UNL     1      42.654 -16.684   1.520  1.00  0.00     0.257 C 
HETATM   15  N   UNL     1      43.861 -16.978   2.137  1.00  0.00    -0.356 N 
HETATM   16  H   UNL     1      44.089 -16.329   2.884  1.00  0.00     0.162 HD
HETATM   17  O   UNL     1      42.139 -17.364   0.643  1.00  0.00    -0.267 OA
BRANCH  15  18
HETATM   18  C   UNL     1      44.227 -18.347   2.441  1.00  0.00     0.127 C 
BRANCH  18  19
HETATM   19  C   UNL     1      43.350 -19.123   3.424  1.00  0.00     0.058 C 
BRANCH  19  20
HETATM   20  C   UNL     1      43.531 -18.531   4.806  1.00  0.00    -0.057 A 
HETATM   21  C   UNL     1      44.797 -18.555   5.413  1.00  0.00     0.007 A 
HETATM   22  C   UNL     1      44.961 -18.115   6.727  1.00  0.00     0.001 A 
HETATM   23  C   UNL     1      43.864 -17.639   7.443  1.00  0.00     0.000 A 
HETATM   24  C   UNL     1      42.606 -17.599   6.843  1.00  0.00     0.001 A 
HETATM   25  C   UNL     1      42.438 -18.045   5.531  1.00  0.00     0.007 A 
ENDBRANCH  19  20
ENDBRANCH  18  19
ENDBRANCH  15  18
ENDBRANCH   1  14
BRANCH   2  26
HETATM   26  N   UNL     1      39.949 -15.504   0.690  1.00  0.00    -0.383 N 
HETATM   27  H   UNL     1      39.005 -15.809   0.923  1.00  0.00     0.157 HD
HETATM   28  H   UNL     1      40.345 -16.086  -0.044  1.00  0.00     0.157 HD
ENDBRANCH   2  26
BRANCH   3  29
HETATM   29  N   UNL     1      39.285 -13.201   2.407  1.00  0.00    -0.176 NA
HETATM   30  C   UNL     1      39.307 -12.079   1.755  1.00  0.00     0.153 C 
BRANCH  30  31
HETATM   31  C   UNL     1      40.457 -11.403   1.190  1.00  0.00     0.011 A 
HETATM   32  C   UNL     1      41.081 -11.687  -0.068  1.00  0.00     0.004 A 
HETATM   33  C   UNL     1      42.128 -10.779  -0.227  1.00  0.00     0.043 A 
HETATM   34  C   UNL     1      40.872 -12.655  -1.072  1.00  0.00     0.014 A 
HETATM   35  C   UNL     1      42.968 -10.778  -1.347  1.00  0.00     0.030 A 
HETATM   36  N   UNL     1      42.128  -9.962   0.883  1.00  0.00    -0.364 N 
HETATM   37  C   UNL     1      42.743 -11.752  -2.325  1.00  0.00     0.002 A 
HETATM   38  C   UNL     1      41.713 -12.680  -2.191  1.00  0.00     0.001 A 
HETATM   39  H   UNL     1      42.777  -9.201   1.034  1.00  0.00     0.165 HD
HETATM   40  C   UNL     1      41.130 -10.333   1.744  1.00  0.00     0.102 A 
ENDBRANCH  30  31
ENDBRANCH   3  29
TORSDOF 7
ENDMDL
MODEL 8
REMARK VINA RESULT:      -8.8      3.592      8.412
REMARK  7 active torsions:
REMARK  status: ('A' for Active; 'I' for Inactive)
REMARK    1  A    between atoms: C_4  and  C_5 
REMARK    2  A    between atoms: C_5  and  C_6 
REMARK    3  A    between atoms: C_6  and  N_7 
REMARK       I    between atoms: N_7  and  C_8 
REMARK    4  A    between atoms: C_8  and  C_9 
REMARK    5  A    between atoms: C_10  and  N_11 
REMARK    6  A    between atoms: N_12  and  N_13 
REMARK    7  A    between atoms: C_14  and  C_15 
ROOT
HETATM    1  C   UNL     1      40.956 -12.661   5.271  1.00  0.00     0.110 A 
HETATM    2  C   UNL     1      41.392 -12.041   4.106  1.00  0.00     0.143 A 
HETATM    3  N   UNL     1      42.079 -12.983   3.336  1.00  0.00    -0.197 N 
HETATM    4  C   UNL     1      42.201 -14.140   4.083  1.00  0.00     0.183 A 
HETATM    5  C   UNL     1      41.497 -13.968   5.269  1.00  0.00     0.125 A 
HETATM    6  N   UNL     1      41.464 -14.942   6.217  1.00  0.00    -0.242 NA
HETATM    7  C   UNL     1      42.177 -16.042   5.916  1.00  0.00     0.086 A 
HETATM    8  C   UNL     1      42.874 -16.196   4.688  1.00  0.00     0.088 A 
HETATM    9  N   UNL     1      42.886 -15.254   3.735  1.00  0.00    -0.225 NA
HETATM   10  C   UNL     1      42.247 -17.065   6.854  1.00  0.00     0.034 A 
HETATM   11  C   UNL     1      42.981 -18.230   6.618  1.00  0.00     0.002 A 
HETATM   12  C   UNL     1      43.651 -18.382   5.412  1.00  0.00     0.002 A 
HETATM   13  C   UNL     1      43.589 -17.365   4.460  1.00  0.00     0.034 A 
ENDROOT
BRANCH   1  14
HETATM   14  C   UNL     1      40.151 -12.011   6.286  1.00  0.00     0.257 C 
HETATM   15  N   UNL     1      40.802 -11.918   7.506  1.00  0.00    -0.356 N 
HETATM   16  H   UNL     1      41.713 -12.366   7.501  1.00  0.00     0.162 HD
HETATM   17  O   UNL     1      39.074 -11.488   6.032  1.00  0.00    -0.267 OA
BRANCH  15  18
HETATM   18  C   UNL     1      40.776 -10.687   8.271  1.00  0.00     0.127 C 
BRANCH  18  19
HETATM   19  C   UNL     1      42.102  -9.962   8.506  1.00  0.00     0.058 C 
BRANCH  19  20
HETATM   20  C   UNL     1      42.880 -10.709   9.569  1.00  0.00    -0.057 A 
HETATM   21  C   UNL     1      44.031 -11.430   9.212  1.00  0.00     0.007 A 
HETATM   22  C   UNL     1      44.698 -12.212  10.154  1.00  0.00     0.001 A 
HETATM   23  C   UNL     1      44.227 -12.275  11.464  1.00  0.00     0.000 A 
HETATM   24  C   UNL     1      43.093 -11.551  11.832  1.00  0.00     0.001 A 
HETATM   25  C   UNL     1      42.420 -10.773  10.889  1.00  0.00     0.007 A 
ENDBRANCH  19  20
ENDBRANCH  18  19
ENDBRANCH  15  18
ENDBRANCH   1  14
BRANCH   2  26
HETATM   26  N   UNL     1      41.234 -10.745   3.712  1.00  0.00    -0.383 N 
HETATM   27  H   UNL     1      40.952 -10.054   4.406  1.00  0.00     0.157 HD
HETATM   28  H   UNL     1      40.803 -10.548   2.812  1.00  0.00     0.157 HD
ENDBRANCH   2  26
BRANCH   3  29
HETATM   29  N   UNL     1      42.727 -12.753   2.152  1.00  0.00    -0.176 NA
HETATM   30  C   UNL     1      42.080 -12.943   1.044  1.00  0.00     0.153 C 
BRANCH  30  31
HETATM   31  C   UNL     1      40.764 -13.526   0.872  1.00  0.00     0.011 A 
HETATM   32  C   UNL     1      39.519 -12.820   0.818  1.00  0.00     0.004 A 
HETATM   33  C   UNL     1      38.514 -13.765   0.611  1.00  0.00     0.043 A 
HETATM   34  C   UNL     1      39.150 -11.466   0.958  1.00  0.00     0.014 A 
HETATM   35  C   UNL     1      37.159 -13.425   0.521  1.00  0.00     0.030 A 
HETATM   36  N   UNL     1      39.127 -14.996   0.524  1.00  0.00    -0.364 N 
HETATM   37  C   UNL     1      36.820 -12.077   0.669  1.00  0.00     0.002 A 
HETATM   38  C   UNL     1      37.798 -11.109   0.887  1.00  0.00     0.001 A 
HETATM   39  H   UNL     1      38.641 -15.869   0.365  1.00  0.00     0.165 HD
HETATM   40  C   UNL     1      40.480 -14.864   0.686  1.00  0.00     0.102 A 
ENDBRANCH  30  31
ENDBRANCH   3  29
TORSDOF 7
ENDMDL
MODEL 9
REMARK VINA RESULT:      -8.8      2.624      6.057
REMARK  7 active torsions:
REMARK  status: ('A' for Active; 'I' for Inactive)
REMARK    1  A    between atoms: C_4  and  C_5 
REMARK    2  A    between atoms: C_5  and  C_6 
REMARK    3  A    between atoms: C_6  and  N_7 
REMARK       I    between atoms: N_7  and  C_8 
REMARK    4  A    between atoms: C_8  and  C_9 
REMARK    5  A    between atoms: C_10  and  N_11 
REMARK    6  A    between atoms: N_12  and  N_13 
REMARK    7  A    between atoms: C_14  and  C_15 
ROOT
HETATM    1  C   UNL     1      41.358 -13.543   1.036  1.00  0.00     0.110 A 
HETATM    2  C   UNL     1      40.375 -13.162   1.941  1.00  0.00     0.143 A 
HETATM    3  N   UNL     1      40.325 -14.112   2.964  1.00  0.00    -0.197 N 
HETATM    4  C   UNL     1      41.165 -15.155   2.621  1.00  0.00     0.183 A 
HETATM    5  C   UNL     1      41.826 -14.812   1.447  1.00  0.00     0.125 A 
HETATM    6  N   UNL     1      42.703 -15.667   0.856  1.00  0.00    -0.242 NA
HETATM    7  C   UNL     1      42.845 -16.849   1.484  1.00  0.00     0.086 A 
HETATM    8  C   UNL     1      42.167 -17.165   2.692  1.00  0.00     0.088 A 
HETATM    9  N   UNL     1      41.326 -16.317   3.297  1.00  0.00    -0.225 NA
HETATM   10  C   UNL     1      43.678 -17.806   0.917  1.00  0.00     0.034 A 
HETATM   11  C   UNL     1      43.861 -19.060   1.504  1.00  0.00     0.002 A 
HETATM   12  C   UNL     1      43.207 -19.362   2.690  1.00  0.00     0.002 A 
HETATM   13  C   UNL     1      42.369 -18.410   3.272  1.00  0.00     0.034 A 
ENDROOT
BRANCH   1  14
HETATM   14  C   UNL     1      41.739 -12.764  -0.126  1.00  0.00     0.257 C 
HETATM   15  N   UNL     1      42.348 -13.532  -1.107  1.00  0.00    -0.356 N 
HETATM   16  H   UNL     1      42.472 -14.500  -0.829  1.00  0.00     0.162 HD
HETATM   17  O   UNL     1      41.424 -11.590  -0.259  1.00  0.00    -0.267 OA
BRANCH  15  18
HETATM   18  C   UNL     1      41.983 -13.382  -2.501  1.00  0.00     0.127 C 
BRANCH  18  19
HETATM   19  C   UNL     1      41.554 -14.634  -3.268  1.00  0.00     0.058 C 
BRANCH  19  20
HETATM   20  C   UNL     1      40.061 -14.564  -3.511  1.00  0.00    -0.057 A 
HETATM   21  C   UNL     1      39.377 -13.355  -3.311  1.00  0.00     0.007 A 
HETATM   22  C   UNL     1      37.988 -13.298  -3.424  1.00  0.00     0.001 A 
HETATM   23  C   UNL     1      37.270 -14.448  -3.746  1.00  0.00     0.000 A 
HETATM   24  C   UNL     1      37.941 -15.651  -3.960  1.00  0.00     0.001 A 
HETATM   25  C   UNL     1      39.330 -15.712  -3.841  1.00  0.00     0.007 A 
ENDBRANCH  19  20
ENDBRANCH  18  19
ENDBRANCH  15  18
ENDBRANCH   1  14
BRANCH   2  26
HETATM   26  N   UNL     1      39.548 -12.077   1.907  1.00  0.00    -0.383 N 
HETATM   27  H   UNL     1      39.893 -11.214   1.489  1.00  0.00     0.157 HD
HETATM   28  H   UNL     1      38.956 -11.878   2.709  1.00  0.00     0.157 HD
ENDBRANCH   2  26
BRANCH   3  29
HETATM   29  N   UNL     1      39.441 -14.142   4.009  1.00  0.00    -0.176 NA
HETATM   30  C   UNL     1      39.907 -14.060   5.217  1.00  0.00     0.153 C 
BRANCH  30  31
HETATM   31  C   UNL     1      41.293 -14.090   5.639  1.00  0.00     0.011 A 
HETATM   32  C   UNL     1      41.991 -15.208   6.200  1.00  0.00     0.004 A 
HETATM   33  C   UNL     1      43.307 -14.804   6.429  1.00  0.00     0.043 A 
HETATM   34  C   UNL     1      41.616 -16.518   6.564  1.00  0.00     0.014 A 
HETATM   35  C   UNL     1      44.272 -15.648   6.990  1.00  0.00     0.030 A 
HETATM   36  N   UNL     1      43.409 -13.497   6.006  1.00  0.00    -0.364 N 
HETATM   37  C   UNL     1      43.874 -16.940   7.347  1.00  0.00     0.002 A 
HETATM   38  C   UNL     1      42.565 -17.371   7.142  1.00  0.00     0.001 A 
HETATM   39  H   UNL     1      44.257 -12.947   6.044  1.00  0.00     0.165 HD
HETATM   40  C   UNL     1      42.201 -13.055   5.535  1.00  0.00     0.102 A 
ENDBRANCH  30  31
ENDBRANCH   3  29
TORSDOF 7
ENDMDL
MODEL 10
REMARK VINA RESULT:      -8.8      2.948      5.508
REMARK  7 active torsions:
REMARK  status: ('A' for Active; 'I' for Inactive)
REMARK    1  A    between atoms: C_4  and  C_5 
REMARK    2  A    between atoms: C_5  and  C_6 
REMARK    3  A    between atoms: C_6  and  N_7 
REMARK       I    between atoms: N_7  and  C_8 
REMARK    4  A    between atoms: C_8  and  C_9 
REMARK    5  A    between atoms: C_10  and  N_11 
REMARK    6  A    between atoms: N_12  and  N_13 
REMARK    7  A    between atoms: C_14  and  C_15 
ROOT
HETATM    1  C   UNL     1      41.267 -13.582   2.636  1.00  0.00     0.110 A 
HETATM    2  C   UNL     1      41.412 -12.224   2.891  1.00  0.00     0.143 A 
HETATM    3  N   UNL     1      41.199 -11.527   1.698  1.00  0.00    -0.197 N 
HETATM    4  C   UNL     1      41.073 -12.453   0.679  1.00  0.00     0.183 A 
HETATM    5  C   UNL     1      41.090 -13.724   1.241  1.00  0.00     0.125 A 
HETATM    6  N   UNL     1      41.010 -14.838   0.466  1.00  0.00    -0.242 NA
HETATM    7  C   UNL     1      40.939 -14.599  -0.856  1.00  0.00     0.086 A 
HETATM    8  C   UNL     1      40.906 -13.288  -1.400  1.00  0.00     0.088 A 
HETATM    9  N   UNL     1      40.954 -12.184  -0.643  1.00  0.00    -0.225 NA
HETATM   10  C   UNL     1      40.912 -15.683  -1.726  1.00  0.00     0.034 A 
HETATM   11  C   UNL     1      40.854 -15.511  -3.111  1.00  0.00     0.002 A 
HETATM   12  C   UNL     1      40.811 -14.229  -3.639  1.00  0.00     0.002 A 
HETATM   13  C   UNL     1      40.836 -13.131  -2.779  1.00  0.00     0.034 A 
ENDROOT
BRANCH   1  14
HETATM   14  C   UNL     1      41.354 -14.613   3.652  1.00  0.00     0.257 C 
HETATM   15  N   UNL     1      40.623 -15.745   3.328  1.00  0.00    -0.356 N 
HETATM   16  H   UNL     1      40.107 -15.646   2.460  1.00  0.00     0.162 HD
HETATM   17  O   UNL     1      42.106 -14.524   4.613  1.00  0.00    -0.267 OA
BRANCH  15  18
HETATM   18  C   UNL     1      41.183 -17.070   3.509  1.00  0.00     0.127 C 
BRANCH  18  19
HETATM   19  C   UNL     1      41.872 -17.726   2.312  1.00  0.00     0.058 C 
BRANCH  19  20
HETATM   20  C   UNL     1      42.959 -18.647   2.825  1.00  0.00    -0.057 A 
HETATM   21  C   UNL     1      43.349 -19.758   2.060  1.00  0.00     0.007 A 
HETATM   22  C   UNL     1      44.269 -20.677   2.564  1.00  0.00     0.001 A 
HETATM   23  C   UNL     1      44.814 -20.491   3.833  1.00  0.00     0.000 A 
HETATM   24  C   UNL     1      44.443 -19.383   4.594  1.00  0.00     0.001 A 
HETATM   25  C   UNL     1      43.517 -18.466   4.095  1.00  0.00     0.007 A 
ENDBRANCH  19  20
ENDBRANCH  18  19
ENDBRANCH  15  18
ENDBRANCH   1  14
BRANCH   2  26
HETATM   26  N   UNL     1      41.721 -11.596   4.062  1.00  0.00    -0.383 N 
HETATM   27  H   UNL     1      42.701 -11.512   4.326  1.00  0.00     0.157 HD
HETATM   28  H   UNL     1      41.139 -11.757   4.880  1.00  0.00     0.157 HD
ENDBRANCH   2  26
BRANCH   3  29
HETATM   29  N   UNL     1      41.324 -10.178   1.507  1.00  0.00    -0.176 NA
HETATM   30  C   UNL     1      40.273  -9.431   1.659  1.00  0.00     0.153 C 
BRANCH  30  31
HETATM   31  C   UNL     1      38.904  -9.855   1.867  1.00  0.00     0.011 A 
HETATM   32  C   UNL     1      37.964 -10.234   0.854  1.00  0.00     0.004 A 
HETATM   33  C   UNL     1      36.782 -10.599   1.498  1.00  0.00     0.043 A 
HETATM   34  C   UNL     1      38.000 -10.268  -0.556  1.00  0.00     0.014 A 
HETATM   35  C   UNL     1      35.638 -11.013   0.807  1.00  0.00     0.030 A 
HETATM   36  N   UNL     1      37.001 -10.467   2.852  1.00  0.00    -0.364 N 
HETATM   37  C   UNL     1      35.697 -11.032  -0.590  1.00  0.00     0.002 A 
HETATM   38  C   UNL     1      36.858 -10.663  -1.265  1.00  0.00     0.001 A 
HETATM   39  H   UNL     1      36.316 -10.674   3.567  1.00  0.00     0.165 HD
HETATM   40  C   UNL     1      38.273 -10.014   3.084  1.00  0.00     0.102 A 
ENDBRANCH  30  31
ENDBRANCH   3  29
TORSDOF 7
ENDMDL
