MODEL 1
REMARK VINA RESULT:      -7.8      0.000      0.000
REMARK  6 active torsions:
REMARK  status: ('A' for Active; 'I' for Inactive)
REMARK    1  A    between atoms: C_2  and  N_3 
REMARK    2  A    between atoms: N_3  and  C_5 
REMARK    3  A    between atoms: N_3  and  C_28 
REMARK    4  A    between atoms: C_8  and  C_9 
REMARK    5  A    between atoms: N_10  and  C_11 
REMARK    6  A    between atoms: C_11  and  C_12 
ROOT
HETATM    1  C   UNL     1      40.487 -14.957   1.557  1.00  0.00     0.222 C 
HETATM    2  N   UNL     1      41.035 -13.628   1.719  1.00  0.00    -0.316 N 
HETATM    3  C   UNL     1      41.801 -13.042   0.724  1.00  0.00     0.258 C 
HETATM    4  O   UNL     1      42.549 -12.089   0.919  1.00  0.00    -0.267 OA
HETATM    5  C   UNL     1      41.670 -13.612  -0.634  1.00  0.00     0.058 A 
HETATM    6  C   UNL     1      40.726 -14.625  -0.834  1.00  0.00     0.045 A 
HETATM    7  N   UNL     1      39.936 -15.085   0.218  1.00  0.00    -0.364 N 
HETATM    8  C   UNL     1      42.415 -13.094  -1.701  1.00  0.00     0.019 A 
HETATM    9  C   UNL     1      42.196 -13.574  -2.991  1.00  0.00     0.001 A 
HETATM   10  C   UNL     1      41.229 -14.552  -3.211  1.00  0.00     0.002 A 
HETATM   11  C   UNL     1      40.489 -15.064  -2.141  1.00  0.00     0.030 A 
HETATM   12  H   UNL     1      39.461 -15.958   0.032  1.00  0.00     0.162 HD
ENDROOT
BRANCH   1  13
HETATM   13  C   UNL     1      41.470 -16.103   1.863  1.00  0.00    -0.016 A 
HETATM   14  C   UNL     1      42.739 -16.200   1.261  1.00  0.00     0.013 A 
HETATM   15  C   UNL     1      43.640 -17.211   1.616  1.00  0.00     0.038 A 
HETATM   16  C   UNL     1      43.281 -18.165   2.565  1.00  0.00     0.134 A 
HETATM   17  C   UNL     1      42.020 -18.100   3.164  1.00  0.00     0.038 A 
HETATM   18  C   UNL     1      41.133 -17.073   2.824  1.00  0.00     0.013 A 
BRANCH  16  19
HETATM   19  N   UNL     1      44.219 -19.222   3.010  1.00  0.00    -0.042 N 
HETATM   20  H   UNL     1      45.153 -18.805   2.910  1.00  0.00     0.286 HD
BRANCH  19  21
HETATM   21  C   UNL     1      44.242 -20.425   2.095  1.00  0.00     0.237 C 
HETATM   22  C   UNL     1      44.407 -21.710   2.891  1.00  0.00     0.035 C 
ENDBRANCH  19  21
BRANCH  19  23
HETATM   23  C   UNL     1      44.121 -19.510   4.489  1.00  0.00     0.237 C 
HETATM   24  C   UNL     1      44.813 -18.490   5.376  1.00  0.00     0.035 C 
ENDBRANCH  19  23
ENDBRANCH  16  19
ENDBRANCH   1  13
BRANCH   2  25
HETATM   25  C   UNL     1      40.973 -13.004   3.034  1.00  0.00     0.193 C 
BRANCH  25  26
HETATM   26  C   UNL     1      41.939 -13.660   3.950  1.00  0.00     0.070 A 
HETATM   27  O   UNL     1      41.413 -14.373   4.988  1.00  0.00    -0.325 OA
HETATM   28  C   UNL     1      42.459 -14.882   5.688  1.00  0.00     0.142 A 
HETATM   29  C   UNL     1      43.652 -14.497   5.121  1.00  0.00     0.027 A 
HETATM   30  C   UNL     1      43.318 -13.705   3.997  1.00  0.00     0.036 A 
ENDBRANCH  25  26
ENDBRANCH   2  25
TORSDOF 6
ENDMDL
MODEL 2
REMARK VINA RESULT:      -7.5      1.728      5.003
REMARK  6 active torsions:
REMARK  status: ('A' for Active; 'I' for Inactive)
REMARK    1  A    between atoms: C_2  and  N_3 
REMARK    2  A    between atoms: N_3  and  C_5 
REMARK    3  A    between atoms: N_3  and  C_28 
REMARK    4  A    between atoms: C_8  and  C_9 
REMARK    5  A    between atoms: N_10  and  C_11 
REMARK    6  A    between atoms: C_11  and  C_12 
ROOT
HETATM    1  C   UNL     1      42.702 -14.726   1.866  1.00  0.00     0.222 C 
HETATM    2  N   UNL     1      41.321 -14.643   1.442  1.00  0.00    -0.316 N 
HETATM    3  C   UNL     1      40.298 -14.484   2.363  1.00  0.00     0.258 C 
HETATM    4  O   UNL     1      39.121 -14.733   2.117  1.00  0.00    -0.267 OA
HETATM    5  C   UNL     1      40.681 -13.970   3.696  1.00  0.00     0.058 A 
HETATM    6  C   UNL     1      42.013 -13.596   3.899  1.00  0.00     0.045 A 
HETATM    7  N   UNL     1      42.953 -13.711   2.875  1.00  0.00    -0.364 N 
HETATM    8  C   UNL     1      39.717 -13.789   4.695  1.00  0.00     0.019 A 
HETATM    9  C   UNL     1      40.081 -13.203   5.906  1.00  0.00     0.001 A 
HETATM   10  C   UNL     1      41.396 -12.786   6.105  1.00  0.00     0.002 A 
HETATM   11  C   UNL     1      42.352 -12.970   5.102  1.00  0.00     0.030 A 
HETATM   12  H   UNL     1      43.914 -13.639   3.180  1.00  0.00     0.162 HD
ENDROOT
BRANCH   1  13
HETATM   13  C   UNL     1      43.145 -16.117   2.357  1.00  0.00    -0.016 A 
HETATM   14  C   UNL     1      43.080 -16.504   3.708  1.00  0.00     0.013 A 
HETATM   15  C   UNL     1      43.419 -17.801   4.112  1.00  0.00     0.038 A 
HETATM   16  C   UNL     1      43.856 -18.734   3.175  1.00  0.00     0.134 A 
HETATM   17  C   UNL     1      43.947 -18.367   1.830  1.00  0.00     0.038 A 
HETATM   18  C   UNL     1      43.582 -17.078   1.426  1.00  0.00     0.013 A 
BRANCH  16  19
HETATM   19  N   UNL     1      44.177 -20.131   3.547  1.00  0.00    -0.042 N 
HETATM   20  H   UNL     1      43.265 -20.592   3.653  1.00  0.00     0.286 HD
BRANCH  19  21
HETATM   21  C   UNL     1      44.823 -20.255   4.908  1.00  0.00     0.237 C 
HETATM   22  C   UNL     1      44.680 -21.669   5.450  1.00  0.00     0.035 C 
ENDBRANCH  19  21
BRANCH  19  23
HETATM   23  C   UNL     1      44.831 -20.903   2.425  1.00  0.00     0.237 C 
HETATM   24  C   UNL     1      43.921 -21.903   1.735  1.00  0.00     0.035 C 
ENDBRANCH  19  23
ENDBRANCH  16  19
ENDBRANCH   1  13
BRANCH   2  25
HETATM   25  C   UNL     1      40.995 -14.967   0.060  1.00  0.00     0.193 C 
BRANCH  25  26
HETATM   26  C   UNL     1      41.556 -13.933  -0.846  1.00  0.00     0.070 A 
HETATM   27  O   UNL     1      41.718 -14.288  -2.154  1.00  0.00    -0.325 OA
HETATM   28  C   UNL     1      42.235 -13.208  -2.795  1.00  0.00     0.142 A 
HETATM   29  C   UNL     1      42.417 -12.167  -1.914  1.00  0.00     0.027 A 
HETATM   30  C   UNL     1      41.980 -12.635  -0.653  1.00  0.00     0.036 A 
ENDBRANCH  25  26
ENDBRANCH   2  25
TORSDOF 6
ENDMDL
MODEL 3
REMARK VINA RESULT:      -7.5      2.083      6.572
REMARK  6 active torsions:
REMARK  status: ('A' for Active; 'I' for Inactive)
REMARK    1  A    between atoms: C_2  and  N_3 
REMARK    2  A    between atoms: N_3  and  C_5 
REMARK    3  A    between atoms: N_3  and  C_28 
REMARK    4  A    between atoms: C_8  and  C_9 
REMARK    5  A    between atoms: N_10  and  C_11 
REMARK    6  A    between atoms: C_11  and  C_12 
ROOT
HETATM    1  C   UNL     1      41.430 -16.224   2.371  1.00  0.00     0.222 C 
HETATM    2  N   UNL     1      42.783 -15.793   2.656  1.00  0.00    -0.316 N 
HETATM    3  C   UNL     1      43.030 -14.605   3.324  1.00  0.00     0.258 C 
HETATM    4  O   UNL     1      44.116 -14.033   3.306  1.00  0.00    -0.267 OA
HETATM    5  C   UNL     1      41.909 -14.038   4.104  1.00  0.00     0.058 A 
HETATM    6  C   UNL     1      40.725 -14.777   4.187  1.00  0.00     0.045 A 
HETATM    7  N   UNL     1      40.606 -16.012   3.549  1.00  0.00    -0.364 N 
HETATM    8  C   UNL     1      42.062 -12.834   4.801  1.00  0.00     0.019 A 
HETATM    9  C   UNL     1      41.028 -12.373   5.615  1.00  0.00     0.001 A 
HETATM   10  C   UNL     1      39.860 -13.121   5.741  1.00  0.00     0.002 A 
HETATM   11  C   UNL     1      39.716 -14.323   5.041  1.00  0.00     0.030 A 
HETATM   12  H   UNL     1      39.657 -16.353   3.474  1.00  0.00     0.162 HD
ENDROOT
BRANCH   1  13
HETATM   13  C   UNL     1      40.795 -15.578   1.126  1.00  0.00    -0.016 A 
HETATM   14  C   UNL     1      39.671 -14.734   1.195  1.00  0.00     0.013 A 
HETATM   15  C   UNL     1      39.163 -14.101   0.054  1.00  0.00     0.038 A 
HETATM   16  C   UNL     1      39.754 -14.319  -1.189  1.00  0.00     0.134 A 
HETATM   17  C   UNL     1      40.860 -15.168  -1.285  1.00  0.00     0.038 A 
HETATM   18  C   UNL     1      41.380 -15.778  -0.138  1.00  0.00     0.013 A 
BRANCH  16  19
HETATM   19  N   UNL     1      39.284 -13.634  -2.414  1.00  0.00    -0.042 N 
HETATM   20  H   UNL     1      39.238 -12.639  -2.159  1.00  0.00     0.286 HD
BRANCH  19  21
HETATM   21  C   UNL     1      37.865 -13.991  -2.793  1.00  0.00     0.237 C 
HETATM   22  C   UNL     1      37.833 -15.236  -3.667  1.00  0.00     0.035 C 
ENDBRANCH  19  21
BRANCH  19  23
HETATM   23  C   UNL     1      40.300 -13.662  -3.531  1.00  0.00     0.237 C 
HETATM   24  C   UNL     1      41.081 -12.372  -3.704  1.00  0.00     0.035 C 
ENDBRANCH  19  23
ENDBRANCH  16  19
ENDBRANCH   1  13
BRANCH   2  25
HETATM   25  C   UNL     1      43.887 -16.503   2.024  1.00  0.00     0.193 C 
BRANCH  25  26
HETATM   26  C   UNL     1      43.912 -17.913   2.487  1.00  0.00     0.070 A 
HETATM   27  O   UNL     1      44.106 -18.116   3.823  1.00  0.00    -0.325 OA
HETATM   28  C   UNL     1      44.092 -19.459   4.024  1.00  0.00     0.142 A 
HETATM   29  C   UNL     1      43.901 -20.123   2.834  1.00  0.00     0.027 A 
HETATM   30  C   UNL     1      43.786 -19.124   1.838  1.00  0.00     0.036 A 
ENDBRANCH  25  26
ENDBRANCH   2  25
TORSDOF 6
ENDMDL
MODEL 4
REMARK VINA RESULT:      -7.0      1.619      2.773
REMARK  6 active torsions:
REMARK  status: ('A' for Active; 'I' for Inactive)
REMARK    1  A    between atoms: C_2  and  N_3 
REMARK    2  A    between atoms: N_3  and  C_5 
REMARK    3  A    between atoms: N_3  and  C_28 
REMARK    4  A    between atoms: C_8  and  C_9 
REMARK    5  A    between atoms: N_10  and  C_11 
REMARK    6  A    between atoms: C_11  and  C_12 
ROOT
HETATM    1  C   UNL     1      40.018 -14.677   1.517  1.00  0.00     0.222 C 
HETATM    2  N   UNL     1      40.704 -13.414   1.688  1.00  0.00    -0.316 N 
HETATM    3  C   UNL     1      41.593 -12.946   0.733  1.00  0.00     0.258 C 
HETATM    4  O   UNL     1      42.432 -12.079   0.958  1.00  0.00    -0.267 OA
HETATM    5  C   UNL     1      41.481 -13.534  -0.619  1.00  0.00     0.058 A 
HETATM    6  C   UNL     1      40.442 -14.438  -0.860  1.00  0.00     0.045 A 
HETATM    7  N   UNL     1      39.540 -14.777   0.148  1.00  0.00    -0.364 N 
HETATM    8  C   UNL     1      42.345 -13.132  -1.645  1.00  0.00     0.019 A 
HETATM    9  C   UNL     1      42.154 -13.619  -2.937  1.00  0.00     0.001 A 
HETATM   10  C   UNL     1      41.095 -14.486  -3.200  1.00  0.00     0.002 A 
HETATM   11  C   UNL     1      40.237 -14.882  -2.170  1.00  0.00     0.030 A 
HETATM   12  H   UNL     1      38.980 -15.595  -0.051  1.00  0.00     0.162 HD
ENDROOT
BRANCH   1  13
HETATM   13  C   UNL     1      40.842 -15.918   1.908  1.00  0.00    -0.016 A 
HETATM   14  C   UNL     1      41.560 -16.683   0.970  1.00  0.00     0.013 A 
HETATM   15  C   UNL     1      42.361 -17.761   1.367  1.00  0.00     0.038 A 
HETATM   16  C   UNL     1      42.442 -18.114   2.712  1.00  0.00     0.134 A 
HETATM   17  C   UNL     1      41.723 -17.381   3.660  1.00  0.00     0.038 A 
HETATM   18  C   UNL     1      40.945 -16.288   3.261  1.00  0.00     0.013 A 
BRANCH  16  19
HETATM   19  N   UNL     1      43.314 -19.213   3.184  1.00  0.00    -0.042 N 
HETATM   20  H   UNL     1      42.668 -19.929   3.539  1.00  0.00     0.286 HD
BRANCH  19  21
HETATM   21  C   UNL     1      44.155 -18.837   4.383  1.00  0.00     0.237 C 
HETATM   22  C   UNL     1      44.947 -20.033   4.888  1.00  0.00     0.035 C 
ENDBRANCH  19  21
BRANCH  19  23
HETATM   23  C   UNL     1      44.033 -19.919   2.059  1.00  0.00     0.237 C 
HETATM   24  C   UNL     1      43.576 -21.346   1.817  1.00  0.00     0.035 C 
ENDBRANCH  19  23
ENDBRANCH  16  19
ENDBRANCH   1  13
BRANCH   2  25
HETATM   25  C   UNL     1      40.632 -12.753   2.984  1.00  0.00     0.193 C 
BRANCH  25  26
HETATM   26  C   UNL     1      39.579 -11.707   2.959  1.00  0.00     0.070 A 
HETATM   27  O   UNL     1      39.872 -10.529   3.584  1.00  0.00    -0.325 OA
HETATM   28  C   UNL     1      38.786  -9.726   3.440  1.00  0.00     0.142 A 
HETATM   29  C   UNL     1      37.795 -10.375   2.740  1.00  0.00     0.027 A 
HETATM   30  C   UNL     1      38.306 -11.657   2.430  1.00  0.00     0.036 A 
ENDBRANCH  25  26
ENDBRANCH   2  25
TORSDOF 6
ENDMDL
MODEL 5
REMARK VINA RESULT:      -6.9      2.401      6.457
REMARK  6 active torsions:
REMARK  status: ('A' for Active; 'I' for Inactive)
REMARK    1  A    between atoms: C_2  and  N_3 
REMARK    2  A    between atoms: N_3  and  C_5 
REMARK    3  A    between atoms: N_3  and  C_28 
REMARK    4  A    between atoms: C_8  and  C_9 
REMARK    5  A    between atoms: N_10  and  C_11 
REMARK    6  A    between atoms: C_11  and  C_12 
ROOT
HETATM    1  C   UNL     1      41.009 -16.015   4.147  1.00  0.00     0.222 C 
HETATM    2  N   UNL     1      42.379 -15.719   4.512  1.00  0.00    -0.316 N 
HETATM    3  C   UNL     1      42.752 -14.450   4.923  1.00  0.00     0.258 C 
HETATM    4  O   UNL     1      43.914 -14.055   4.927  1.00  0.00    -0.267 OA
HETATM    5  C   UNL     1      41.667 -13.559   5.391  1.00  0.00     0.058 A 
HETATM    6  C   UNL     1      40.374 -14.085   5.473  1.00  0.00     0.045 A 
HETATM    7  N   UNL     1      40.116 -15.409   5.120  1.00  0.00    -0.364 N 
HETATM    8  C   UNL     1      41.948 -12.254   5.813  1.00  0.00     0.019 A 
HETATM    9  C   UNL     1      40.928 -11.470   6.351  1.00  0.00     0.001 A 
HETATM   10  C   UNL     1      39.645 -11.996   6.479  1.00  0.00     0.002 A 
HETATM   11  C   UNL     1      39.374 -13.301   6.055  1.00  0.00     0.030 A 
HETATM   12  H   UNL     1      39.136 -15.624   4.993  1.00  0.00     0.162 HD
ENDROOT
BRANCH   1  13
HETATM   13  C   UNL     1      40.622 -15.611   2.713  1.00  0.00    -0.016 A 
HETATM   14  C   UNL     1      39.417 -14.953   2.405  1.00  0.00     0.013 A 
HETATM   15  C   UNL     1      39.127 -14.532   1.102  1.00  0.00     0.038 A 
HETATM   16  C   UNL     1      40.028 -14.783   0.069  1.00  0.00     0.134 A 
HETATM   17  C   UNL     1      41.223 -15.451   0.346  1.00  0.00     0.038 A 
HETATM   18  C   UNL     1      41.520 -15.847   1.655  1.00  0.00     0.013 A 
BRANCH  16  19
HETATM   19  N   UNL     1      39.788 -14.312  -1.314  1.00  0.00    -0.042 N 
HETATM   20  H   UNL     1      40.325 -13.440  -1.393  1.00  0.00     0.286 HD
BRANCH  19  21
HETATM   21  C   UNL     1      38.357 -13.898  -1.566  1.00  0.00     0.237 C 
HETATM   22  C   UNL     1      37.834 -14.508  -2.858  1.00  0.00     0.035 C 
ENDBRANCH  19  21
BRANCH  19  23
HETATM   23  C   UNL     1      40.418 -15.205  -2.356  1.00  0.00     0.237 C 
HETATM   24  C   UNL     1      41.462 -14.524  -3.223  1.00  0.00     0.035 C 
ENDBRANCH  19  23
ENDBRANCH  16  19
ENDBRANCH   1  13
BRANCH   2  25
HETATM   25  C   UNL     1      43.407 -16.707   4.216  1.00  0.00     0.193 C 
BRANCH  25  26
HETATM   26  C   UNL     1      43.728 -17.484   5.440  1.00  0.00     0.070 A 
HETATM   27  O   UNL     1      43.150 -18.715   5.553  1.00  0.00    -0.325 OA
HETATM   28  C   UNL     1      43.575 -19.244   6.729  1.00  0.00     0.142 A 
HETATM   29  C   UNL     1      44.411 -18.365   7.379  1.00  0.00     0.027 A 
HETATM   30  C   UNL     1      44.510 -17.225   6.547  1.00  0.00     0.036 A 
ENDBRANCH  25  26
ENDBRANCH   2  25
TORSDOF 6
ENDMDL
MODEL 6
REMARK VINA RESULT:      -6.7      2.552      7.348
REMARK  6 active torsions:
REMARK  status: ('A' for Active; 'I' for Inactive)
REMARK    1  A    between atoms: C_2  and  N_3 
REMARK    2  A    between atoms: N_3  and  C_5 
REMARK    3  A    between atoms: N_3  and  C_28 
REMARK    4  A    between atoms: C_8  and  C_9 
REMARK    5  A    between atoms: N_10  and  C_11 
REMARK    6  A    between atoms: C_11  and  C_12 
ROOT
HETATM    1  C   UNL     1      40.976 -16.816   4.183  1.00  0.00     0.222 C 
HETATM    2  N   UNL     1      41.839 -17.507   3.250  1.00  0.00    -0.316 N 
HETATM    3  C   UNL     1      43.149 -17.816   3.579  1.00  0.00     0.258 C 
HETATM    4  O   UNL     1      44.008 -18.091   2.747  1.00  0.00    -0.267 OA
HETATM    5  C   UNL     1      43.486 -17.819   5.019  1.00  0.00     0.058 A 
HETATM    6  C   UNL     1      42.453 -17.607   5.937  1.00  0.00     0.045 A 
HETATM    7  N   UNL     1      41.144 -17.395   5.505  1.00  0.00    -0.364 N 
HETATM    8  C   UNL     1      44.788 -18.106   5.446  1.00  0.00     0.019 A 
HETATM    9  C   UNL     1      45.059 -18.210   6.810  1.00  0.00     0.001 A 
HETATM   10  C   UNL     1      44.030 -18.044   7.734  1.00  0.00     0.002 A 
HETATM   11  C   UNL     1      42.732 -17.758   7.299  1.00  0.00     0.030 A 
HETATM   12  H   UNL     1      40.525 -17.027   6.216  1.00  0.00     0.162 HD
ENDROOT
BRANCH   1  13
HETATM   13  C   UNL     1      41.156 -15.287   4.220  1.00  0.00    -0.016 A 
HETATM   14  C   UNL     1      42.418 -14.667   4.147  1.00  0.00     0.013 A 
HETATM   15  C   UNL     1      42.544 -13.273   4.107  1.00  0.00     0.038 A 
HETATM   16  C   UNL     1      41.410 -12.466   4.164  1.00  0.00     0.134 A 
HETATM   17  C   UNL     1      40.148 -13.058   4.255  1.00  0.00     0.038 A 
HETATM   18  C   UNL     1      40.025 -14.453   4.269  1.00  0.00     0.013 A 
BRANCH  16  19
HETATM   19  N   UNL     1      41.491 -10.990   4.073  1.00  0.00    -0.042 N 
HETATM   20  H   UNL     1      42.458 -10.796   3.786  1.00  0.00     0.286 HD
BRANCH  19  21
HETATM   21  C   UNL     1      41.348 -10.300   5.410  1.00  0.00     0.237 C 
HETATM   22  C   UNL     1      41.607  -8.806   5.280  1.00  0.00     0.035 C 
ENDBRANCH  19  21
BRANCH  19  23
HETATM   23  C   UNL     1      40.670 -10.425   2.938  1.00  0.00     0.237 C 
HETATM   24  C   UNL     1      41.122 -10.861   1.556  1.00  0.00     0.035 C 
ENDBRANCH  19  23
ENDBRANCH  16  19
ENDBRANCH   1  13
BRANCH   2  25
HETATM   25  C   UNL     1      41.391 -17.665   1.873  1.00  0.00     0.193 C 
BRANCH  25  26
HETATM   26  C   UNL     1      41.295 -16.337   1.217  1.00  0.00     0.070 A 
HETATM   27  O   UNL     1      40.043 -15.807   1.088  1.00  0.00    -0.325 OA
HETATM   28  C   UNL     1      40.186 -14.605   0.472  1.00  0.00     0.142 A 
HETATM   29  C   UNL     1      41.511 -14.359   0.195  1.00  0.00     0.027 A 
HETATM   30  C   UNL     1      42.229 -15.479   0.675  1.00  0.00     0.036 A 
ENDBRANCH  25  26
ENDBRANCH   2  25
TORSDOF 6
ENDMDL
MODEL 7
REMARK VINA RESULT:      -6.7      2.215      6.361
REMARK  6 active torsions:
REMARK  status: ('A' for Active; 'I' for Inactive)
REMARK    1  A    between atoms: C_2  and  N_3 
REMARK    2  A    between atoms: N_3  and  C_5 
REMARK    3  A    between atoms: N_3  and  C_28 
REMARK    4  A    between atoms: C_8  and  C_9 
REMARK    5  A    between atoms: N_10  and  C_11 
REMARK    6  A    between atoms: C_11  and  C_12 
ROOT
HETATM    1  C   UNL     1      40.753 -15.742   4.089  1.00  0.00     0.222 C 
HETATM    2  N   UNL     1      41.959 -15.818   4.885  1.00  0.00    -0.316 N 
HETATM    3  C   UNL     1      42.494 -14.688   5.483  1.00  0.00     0.258 C 
HETATM    4  O   UNL     1      43.653 -14.618   5.880  1.00  0.00    -0.267 OA
HETATM    5  C   UNL     1      41.584 -13.534   5.650  1.00  0.00     0.058 A 
HETATM    6  C   UNL     1      40.245 -13.694   5.285  1.00  0.00     0.045 A 
HETATM    7  N   UNL     1      39.782 -14.906   4.773  1.00  0.00    -0.364 N 
HETATM    8  C   UNL     1      42.040 -12.345   6.233  1.00  0.00     0.019 A 
HETATM    9  C   UNL     1      41.141 -11.309   6.478  1.00  0.00     0.001 A 
HETATM   10  C   UNL     1      39.794 -11.471   6.158  1.00  0.00     0.002 A 
HETATM   11  C   UNL     1      39.348 -12.662   5.578  1.00  0.00     0.030 A 
HETATM   12  H   UNL     1      38.875 -14.853   4.330  1.00  0.00     0.162 HD
ENDROOT
BRANCH   1  13
HETATM   13  C   UNL     1      40.965 -15.271   2.638  1.00  0.00    -0.016 A 
HETATM   14  C   UNL     1      41.649 -14.085   2.314  1.00  0.00     0.013 A 
HETATM   15  C   UNL     1      41.891 -13.722   0.984  1.00  0.00     0.038 A 
HETATM   16  C   UNL     1      41.433 -14.528  -0.055  1.00  0.00     0.134 A 
HETATM   17  C   UNL     1      40.735 -15.702   0.240  1.00  0.00     0.038 A 
HETATM   18  C   UNL     1      40.518 -16.074   1.572  1.00  0.00     0.013 A 
BRANCH  16  19
HETATM   19  N   UNL     1      41.709 -14.212  -1.475  1.00  0.00    -0.042 N 
HETATM   20  H   UNL     1      42.384 -14.925  -1.778  1.00  0.00     0.286 HD
BRANCH  19  21
HETATM   21  C   UNL     1      42.436 -12.900  -1.666  1.00  0.00     0.237 C 
HETATM   22  C   UNL     1      42.395 -12.464  -3.123  1.00  0.00     0.035 C 
ENDBRANCH  19  21
BRANCH  19  23
HETATM   23  C   UNL     1      40.519 -14.453  -2.374  1.00  0.00     0.237 C 
HETATM   24  C   UNL     1      40.607 -15.716  -3.211  1.00  0.00     0.035 C 
ENDBRANCH  19  23
ENDBRANCH  16  19
ENDBRANCH   1  13
BRANCH   2  25
HETATM   25  C   UNL     1      42.737 -17.049   4.856  1.00  0.00     0.193 C 
BRANCH  25  26
HETATM   26  C   UNL     1      43.181 -17.334   3.469  1.00  0.00     0.070 A 
HETATM   27  O   UNL     1      42.700 -18.475   2.894  1.00  0.00    -0.325 OA
HETATM   28  C   UNL     1      43.224 -18.537   1.643  1.00  0.00     0.142 A 
HETATM   29  C   UNL     1      44.043 -17.457   1.408  1.00  0.00     0.027 A 
HETATM   30  C   UNL     1      44.017 -16.678   2.589  1.00  0.00     0.036 A 
ENDBRANCH  25  26
ENDBRANCH   2  25
TORSDOF 6
ENDMDL
MODEL 8
REMARK VINA RESULT:      -6.7      2.180      6.273
REMARK  6 active torsions:
REMARK  status: ('A' for Active; 'I' for Inactive)
REMARK    1  A    between atoms: C_2  and  N_3 
REMARK    2  A    between atoms: N_3  and  C_5 
REMARK    3  A    between atoms: N_3  and  C_28 
REMARK    4  A    between atoms: C_8  and  C_9 
REMARK    5  A    between atoms: N_10  and  C_11 
REMARK    6  A    between atoms: C_11  and  C_12 
ROOT
HETATM    1  C   UNL     1      43.199 -14.636   2.732  1.00  0.00     0.222 C 
HETATM    2  N   UNL     1      43.057 -14.788   4.164  1.00  0.00    -0.316 N 
HETATM    3  C   UNL     1      42.829 -16.031   4.733  1.00  0.00     0.258 C 
HETATM    4  O   UNL     1      42.381 -16.184   5.866  1.00  0.00    -0.267 OA
HETATM    5  C   UNL     1      43.172 -17.209   3.908  1.00  0.00     0.058 A 
HETATM    6  C   UNL     1      43.780 -16.990   2.668  1.00  0.00     0.045 A 
HETATM    7  N   UNL     1      44.051 -15.697   2.223  1.00  0.00    -0.364 N 
HETATM    8  C   UNL     1      42.963 -18.506   4.395  1.00  0.00     0.019 A 
HETATM    9  C   UNL     1      43.392 -19.600   3.645  1.00  0.00     0.001 A 
HETATM   10  C   UNL     1      44.039 -19.395   2.428  1.00  0.00     0.002 A 
HETATM   11  C   UNL     1      44.243 -18.097   1.950  1.00  0.00     0.030 A 
HETATM   12  H   UNL     1      44.272 -15.633   1.238  1.00  0.00     0.162 HD
ENDROOT
BRANCH   1  13
HETATM   13  C   UNL     1      41.871 -14.569   1.955  1.00  0.00    -0.016 A 
HETATM   14  C   UNL     1      40.711 -15.251   2.368  1.00  0.00     0.013 A 
HETATM   15  C   UNL     1      39.499 -15.110   1.681  1.00  0.00     0.038 A 
HETATM   16  C   UNL     1      39.426 -14.303   0.549  1.00  0.00     0.134 A 
HETATM   17  C   UNL     1      40.569 -13.631   0.108  1.00  0.00     0.038 A 
HETATM   18  C   UNL     1      41.772 -13.754   0.812  1.00  0.00     0.013 A 
BRANCH  16  19
HETATM   19  N   UNL     1      38.155 -14.083  -0.179  1.00  0.00    -0.042 N 
HETATM   20  H   UNL     1      37.791 -15.026  -0.364  1.00  0.00     0.286 HD
BRANCH  19  21
HETATM   21  C   UNL     1      38.348 -13.478  -1.550  1.00  0.00     0.237 C 
HETATM   22  C   UNL     1      37.953 -14.463  -2.640  1.00  0.00     0.035 C 
ENDBRANCH  19  21
BRANCH  19  23
HETATM   23  C   UNL     1      37.084 -13.458   0.683  1.00  0.00     0.237 C 
HETATM   24  C   UNL     1      37.351 -12.016   1.073  1.00  0.00     0.035 C 
ENDBRANCH  19  23
ENDBRANCH  16  19
ENDBRANCH   1  13
BRANCH   2  25
HETATM   25  C   UNL     1      42.919 -13.590   4.982  1.00  0.00     0.193 C 
BRANCH  25  26
HETATM   26  C   UNL     1      41.607 -12.947   4.718  1.00  0.00     0.070 A 
HETATM   27  O   UNL     1      40.515 -13.523   5.300  1.00  0.00    -0.325 OA
HETATM   28  C   UNL     1      39.437 -12.784   4.933  1.00  0.00     0.142 A 
HETATM   29  C   UNL     1      39.819 -11.746   4.115  1.00  0.00     0.027 A 
HETATM   30  C   UNL     1      41.223 -11.851   3.974  1.00  0.00     0.036 A 
ENDBRANCH  25  26
ENDBRANCH   2  25
TORSDOF 6
ENDMDL
MODEL 9
REMARK VINA RESULT:      -6.5      2.480      6.504
REMARK  6 active torsions:
REMARK  status: ('A' for Active; 'I' for Inactive)
REMARK    1  A    between atoms: C_2  and  N_3 
REMARK    2  A    between atoms: N_3  and  C_5 
REMARK    3  A    between atoms: N_3  and  C_28 
REMARK    4  A    between atoms: C_8  and  C_9 
REMARK    5  A    between atoms: N_10  and  C_11 
REMARK    6  A    between atoms: C_11  and  C_12 
ROOT
HETATM    1  C   UNL     1      42.838 -14.274   3.184  1.00  0.00     0.222 C 
HETATM    2  N   UNL     1      42.520 -14.837   4.479  1.00  0.00    -0.316 N 
HETATM    3  C   UNL     1      42.288 -16.194   4.634  1.00  0.00     0.258 C 
HETATM    4  O   UNL     1      41.706 -16.675   5.602  1.00  0.00    -0.267 OA
HETATM    5  C   UNL     1      42.799 -17.078   3.564  1.00  0.00     0.058 A 
HETATM    6  C   UNL     1      43.550 -16.501   2.536  1.00  0.00     0.045 A 
HETATM    7  N   UNL     1      43.805 -15.130   2.519  1.00  0.00    -0.364 N 
HETATM    8  C   UNL     1      42.600 -18.463   3.628  1.00  0.00     0.019 A 
HETATM    9  C   UNL     1      43.181 -19.287   2.666  1.00  0.00     0.001 A 
HETATM   10  C   UNL     1      43.968 -18.729   1.660  1.00  0.00     0.002 A 
HETATM   11  C   UNL     1      44.162 -17.346   1.604  1.00  0.00     0.030 A 
HETATM   12  H   UNL     1      44.149 -14.781   1.634  1.00  0.00     0.162 HD
ENDROOT
BRANCH   1  13
HETATM   13  C   UNL     1      41.621 -14.006   2.280  1.00  0.00    -0.016 A 
HETATM   14  C   UNL     1      40.346 -14.540   2.540  1.00  0.00     0.013 A 
HETATM   15  C   UNL     1      39.242 -14.216   1.741  1.00  0.00     0.038 A 
HETATM   16  C   UNL     1      39.396 -13.368   0.647  1.00  0.00     0.134 A 
HETATM   17  C   UNL     1      40.656 -12.840   0.357  1.00  0.00     0.038 A 
HETATM   18  C   UNL     1      41.751 -13.146   1.174  1.00  0.00     0.013 A 
BRANCH  16  19
HETATM   19  N   UNL     1      38.249 -12.957  -0.195  1.00  0.00    -0.042 N 
HETATM   20  H   UNL     1      38.535 -12.062  -0.611  1.00  0.00     0.286 HD
BRANCH  19  21
HETATM   21  C   UNL     1      37.009 -12.624   0.602  1.00  0.00     0.237 C 
HETATM   22  C   UNL     1      36.300 -11.410   0.022  1.00  0.00     0.035 C 
ENDBRANCH  19  21
BRANCH  19  23
HETATM   23  C   UNL     1      38.051 -13.852  -1.396  1.00  0.00     0.237 C 
HETATM   24  C   UNL     1      38.552 -13.270  -2.705  1.00  0.00     0.035 C 
ENDBRANCH  19  23
ENDBRANCH  16  19
ENDBRANCH   1  13
BRANCH   2  25
HETATM   25  C   UNL     1      42.212 -13.928   5.576  1.00  0.00     0.193 C 
BRANCH  25  26
HETATM   26  C   UNL     1      43.432 -13.682   6.385  1.00  0.00     0.070 A 
HETATM   27  O   UNL     1      43.330 -12.750   7.378  1.00  0.00    -0.325 OA
HETATM   28  C   UNL     1      44.544 -12.686   7.984  1.00  0.00     0.142 A 
HETATM   29  C   UNL     1      45.427 -13.556   7.388  1.00  0.00     0.027 A 
HETATM   30  C   UNL     1      44.710 -14.201   6.353  1.00  0.00     0.036 A 
ENDBRANCH  25  26
ENDBRANCH   2  25
TORSDOF 6
ENDMDL
MODEL 10
REMARK VINA RESULT:      -6.3      2.448      6.973
REMARK  6 active torsions:
REMARK  status: ('A' for Active; 'I' for Inactive)
REMARK    1  A    between atoms: C_2  and  N_3 
REMARK    2  A    between atoms: N_3  and  C_5 
REMARK    3  A    between atoms: N_3  and  C_28 
REMARK    4  A    between atoms: C_8  and  C_9 
REMARK    5  A    between atoms: N_10  and  C_11 
REMARK    6  A    between atoms: C_11  and  C_12 
ROOT
HETATM    1  C   UNL     1      40.335 -15.979   1.984  1.00  0.00     0.222 C 
HETATM    2  N   UNL     1      41.337 -16.470   1.063  1.00  0.00    -0.316 N 
HETATM    3  C   UNL     1      42.556 -16.946   1.519  1.00  0.00     0.258 C 
HETATM    4  O   UNL     1      43.547 -17.062   0.803  1.00  0.00    -0.267 OA
HETATM    5  C   UNL     1      42.622 -17.341   2.943  1.00  0.00     0.058 A 
HETATM    6  C   UNL     1      41.444 -17.296   3.693  1.00  0.00     0.045 A 
HETATM    7  N   UNL     1      40.242 -16.886   3.116  1.00  0.00    -0.364 N 
HETATM    8  C   UNL     1      43.816 -17.821   3.495  1.00  0.00     0.019 A 
HETATM    9  C   UNL     1      43.828 -18.288   4.809  1.00  0.00     0.001 A 
HETATM   10  C   UNL     1      42.651 -18.289   5.554  1.00  0.00     0.002 A 
HETATM   11  C   UNL     1      41.464 -17.808   4.994  1.00  0.00     0.030 A 
HETATM   12  H   UNL     1      39.513 -16.668   3.781  1.00  0.00     0.162 HD
ENDROOT
BRANCH   1  13
HETATM   13  C   UNL     1      40.544 -14.527   2.453  1.00  0.00    -0.016 A 
HETATM   14  C   UNL     1      39.500 -13.586   2.507  1.00  0.00     0.013 A 
HETATM   15  C   UNL     1      39.706 -12.295   3.009  1.00  0.00     0.038 A 
HETATM   16  C   UNL     1      40.971 -11.909   3.446  1.00  0.00     0.134 A 
HETATM   17  C   UNL     1      42.028 -12.820   3.385  1.00  0.00     0.038 A 
HETATM   18  C   UNL     1      41.811 -14.117   2.906  1.00  0.00     0.013 A 
BRANCH  16  19
HETATM   19  N   UNL     1      41.226 -10.573   4.032  1.00  0.00    -0.042 N 
HETATM   20  H   UNL     1      42.164 -10.315   3.702  1.00  0.00     0.286 HD
BRANCH  19  21
HETATM   21  C   UNL     1      41.347 -10.592   5.538  1.00  0.00     0.237 C 
HETATM   22  C   UNL     1      39.991 -10.382   6.195  1.00  0.00     0.035 C 
ENDBRANCH  19  21
BRANCH  19  23
HETATM   23  C   UNL     1      40.342  -9.496   3.446  1.00  0.00     0.237 C 
HETATM   24  C   UNL     1      41.006  -8.649   2.376  1.00  0.00     0.035 C 
ENDBRANCH  19  23
ENDBRANCH  16  19
ENDBRANCH   1  13
BRANCH   2  25
HETATM   25  C   UNL     1      41.147 -16.239  -0.362  1.00  0.00     0.193 C 
BRANCH  25  26
HETATM   26  C   UNL     1      41.036 -14.783  -0.628  1.00  0.00     0.070 A 
HETATM   27  O   UNL     1      39.796 -14.312  -0.951  1.00  0.00    -0.325 OA
HETATM   28  C   UNL     1      39.922 -12.974  -1.148  1.00  0.00     0.142 A 
HETATM   29  C   UNL     1      41.227 -12.580  -0.965  1.00  0.00     0.027 A 
HETATM   30  C   UNL     1      41.950 -13.749  -0.630  1.00  0.00     0.036 A 
ENDBRANCH  25  26
ENDBRANCH   2  25
TORSDOF 6
ENDMDL
