MODEL 1
REMARK VINA RESULT:      -9.0      0.000      0.000
REMARK  8 active torsions:
REMARK  status: ('A' for Active; 'I' for Inactive)
REMARK    1  A    between atoms: C_8  and  N_9 
REMARK    2  A    between atoms: C_10  and  S_11 
REMARK    3  A    between atoms: S_11  and  C_12 
REMARK    4  A    between atoms: C_12  and  C_13 
REMARK       I    between atoms: C_13  and  N_14 
REMARK    5  A    between atoms: N_14  and  C_15 
REMARK    6  A    between atoms: C_15  and  C_16 
REMARK    7  A    between atoms: C_16  and  C_17 
REMARK    8  A    between atoms: C_27  and  N_28 
ROOT
HETATM    1  N   UNL     1      41.563 -15.269   2.894  1.00  0.00    -0.275 N 
HETATM    2  C   UNL     1      42.009 -14.033   3.433  1.00  0.00     0.177 A 
HETATM    3  N   UNL     1      41.369 -12.889   3.372  1.00  0.00    -0.204 NA
HETATM    4  C   UNL     1      40.175 -12.971   2.745  1.00  0.00     0.162 A 
HETATM    5  C   UNL     1      39.563 -14.055   2.177  1.00  0.00     0.081 A 
HETATM    6  C   UNL     1      40.262 -15.303   2.247  1.00  0.00     0.124 A 
HETATM    7  N   UNL     1      39.318 -11.930   2.542  1.00  0.00    -0.260 N 
HETATM    8  H   UNL     1      39.432 -10.967   2.837  1.00  0.00     0.191 HD
HETATM    9  N   UNL     1      38.213 -12.281   1.848  1.00  0.00    -0.177 NA
HETATM   10  C   UNL     1      38.363 -13.596   1.615  1.00  0.00     0.068 A 
HETATM   11  C   UNL     1      37.331 -14.320   0.839  1.00  0.00     0.073 C 
ENDROOT
BRANCH   2  12
HETATM   12  S   UNL     1      43.597 -13.952   4.229  1.00  0.00    -0.082 SA
BRANCH  12  13
HETATM   13  C   UNL     1      43.084 -13.736   5.953  1.00  0.00     0.185 C 
BRANCH  13  14
HETATM   14  C   UNL     1      44.261 -13.688   6.923  1.00  0.00     0.227 C 
HETATM   15  N   UNL     1      44.032 -12.859   8.010  1.00  0.00    -0.360 N 
HETATM   16  H   UNL     1      43.282 -12.181   7.945  1.00  0.00     0.162 HD
HETATM   17  O   UNL     1      45.293 -14.339   6.794  1.00  0.00    -0.273 OA
BRANCH  15  18
HETATM   18  C   UNL     1      45.054 -12.638   9.021  1.00  0.00     0.127 C 
BRANCH  18  19
HETATM   19  C   UNL     1      45.059 -11.187   9.501  1.00  0.00     0.058 C 
BRANCH  19  20
HETATM   20  C   UNL     1      44.262 -10.995  10.766  1.00  0.00    -0.057 A 
HETATM   21  C   UNL     1      43.874 -12.097  11.539  1.00  0.00     0.007 A 
HETATM   22  C   UNL     1      43.135 -11.914  12.709  1.00  0.00     0.001 A 
HETATM   23  C   UNL     1      42.774 -10.630  13.114  1.00  0.00     0.000 A 
HETATM   24  C   UNL     1      43.149  -9.529  12.349  1.00  0.00     0.001 A 
HETATM   25  C   UNL     1      43.888  -9.708  11.178  1.00  0.00     0.007 A 
ENDBRANCH  19  20
ENDBRANCH  18  19
ENDBRANCH  15  18
ENDBRANCH  13  14
ENDBRANCH  12  13
ENDBRANCH   2  12
BRANCH   1  26
HETATM   26  C   UNL     1      42.437 -16.395   2.809  1.00  0.00     0.051 A 
HETATM   27  C   UNL     1      42.534 -17.353   3.844  1.00  0.00    -0.013 A 
HETATM   28  C   UNL     1      41.755 -17.200   5.126  1.00  0.00     0.052 C 
HETATM   29  C   UNL     1      43.424 -18.431   3.671  1.00  0.00     0.042 A 
HETATM   30 CL   UNL     1      43.664 -19.620   4.904  1.00  0.00    -0.084 Cl
HETATM   31  C   UNL     1      44.155 -18.583   2.489  1.00  0.00     0.024 A 
HETATM   32  C   UNL     1      44.025 -17.657   1.460  1.00  0.00     0.004 A 
HETATM   33  C   UNL     1      43.173 -16.568   1.620  1.00  0.00     0.031 A 
ENDBRANCH   1  26
BRANCH   6  34
HETATM   34  N   UNL     1      39.747 -16.410   1.747  1.00  0.00    -0.384 N 
HETATM   35  H   UNL     1      39.537 -17.208   2.326  1.00  0.00     0.157 HD
HETATM   36  H   UNL     1      39.584 -16.479   0.750  1.00  0.00     0.157 HD
ENDBRANCH   6  34
TORSDOF 8
ENDMDL
MODEL 2
REMARK VINA RESULT:      -8.9      3.776      7.542
REMARK  8 active torsions:
REMARK  status: ('A' for Active; 'I' for Inactive)
REMARK    1  A    between atoms: C_8  and  N_9 
REMARK    2  A    between atoms: C_10  and  S_11 
REMARK    3  A    between atoms: S_11  and  C_12 
REMARK    4  A    between atoms: C_12  and  C_13 
REMARK       I    between atoms: C_13  and  N_14 
REMARK    5  A    between atoms: N_14  and  C_15 
REMARK    6  A    between atoms: C_15  and  C_16 
REMARK    7  A    between atoms: C_16  and  C_17 
REMARK    8  A    between atoms: C_27  and  N_28 
ROOT
HETATM    1  N   UNL     1      41.489 -13.046   4.991  1.00  0.00    -0.275 N 
HETATM    2  C   UNL     1      41.671 -12.722   3.620  1.00  0.00     0.177 A 
HETATM    3  N   UNL     1      41.308 -11.604   3.038  1.00  0.00    -0.204 NA
HETATM    4  C   UNL     1      40.735 -10.717   3.881  1.00  0.00     0.162 A 
HETATM    5  C   UNL     1      40.484 -10.828   5.222  1.00  0.00     0.081 A 
HETATM    6  C   UNL     1      40.884 -12.048   5.856  1.00  0.00     0.124 A 
HETATM    7  N   UNL     1      40.264  -9.487   3.530  1.00  0.00    -0.260 N 
HETATM    8  H   UNL     1      40.286  -9.052   2.614  1.00  0.00     0.191 HD
HETATM    9  N   UNL     1      39.698  -8.821   4.562  1.00  0.00    -0.177 NA
HETATM   10  C   UNL     1      39.828  -9.651   5.610  1.00  0.00     0.068 A 
HETATM   11  C   UNL     1      39.283  -9.250   6.928  1.00  0.00     0.073 C 
ENDROOT
BRANCH   2  12
HETATM   12  S   UNL     1      42.405 -13.920   2.531  1.00  0.00    -0.082 SA
BRANCH  12  13
HETATM   13  C   UNL     1      40.918 -14.758   1.923  1.00  0.00     0.185 C 
BRANCH  13  14
HETATM   14  C   UNL     1      40.947 -16.266   2.155  1.00  0.00     0.227 C 
HETATM   15  N   UNL     1      42.168 -16.716   2.632  1.00  0.00    -0.360 N 
HETATM   16  H   UNL     1      42.974 -16.110   2.532  1.00  0.00     0.162 HD
HETATM   17  O   UNL     1      39.990 -17.014   1.981  1.00  0.00    -0.273 OA
BRANCH  15  18
HETATM   18  C   UNL     1      42.414 -18.131   2.867  1.00  0.00     0.127 C 
BRANCH  18  19
HETATM   19  C   UNL     1      43.862 -18.382   3.287  1.00  0.00     0.058 C 
BRANCH  19  20
HETATM   20  C   UNL     1      44.167 -19.848   3.458  1.00  0.00    -0.057 A 
HETATM   21  C   UNL     1      44.068 -20.728   2.372  1.00  0.00     0.007 A 
HETATM   22  C   UNL     1      44.351 -22.086   2.536  1.00  0.00     0.001 A 
HETATM   23  C   UNL     1      44.730 -22.576   3.784  1.00  0.00     0.000 A 
HETATM   24  C   UNL     1      44.824 -21.710   4.871  1.00  0.00     0.001 A 
HETATM   25  C   UNL     1      44.542 -20.352   4.711  1.00  0.00     0.007 A 
ENDBRANCH  19  20
ENDBRANCH  18  19
ENDBRANCH  15  18
ENDBRANCH  13  14
ENDBRANCH  12  13
ENDBRANCH   2  12
BRANCH   1  26
HETATM   26  C   UNL     1      41.706 -14.375   5.470  1.00  0.00     0.051 A 
HETATM   27  C   UNL     1      42.979 -14.829   5.881  1.00  0.00    -0.013 A 
HETATM   28  C   UNL     1      44.195 -13.943   5.779  1.00  0.00     0.052 C 
HETATM   29  C   UNL     1      43.096 -16.156   6.338  1.00  0.00     0.042 A 
HETATM   30 CL   UNL     1      44.621 -16.828   6.803  1.00  0.00    -0.084 Cl
HETATM   31  C   UNL     1      41.977 -16.989   6.435  1.00  0.00     0.024 A 
HETATM   32  C   UNL     1      40.721 -16.522   6.064  1.00  0.00     0.004 A 
HETATM   33  C   UNL     1      40.586 -15.224   5.582  1.00  0.00     0.031 A 
ENDBRANCH   1  26
BRANCH   6  34
HETATM   34  N   UNL     1      40.705 -12.243   7.149  1.00  0.00    -0.384 N 
HETATM   35  H   UNL     1      41.012 -11.572   7.836  1.00  0.00     0.157 HD
HETATM   36  H   UNL     1      40.275 -13.102   7.468  1.00  0.00     0.157 HD
ENDBRANCH   6  34
TORSDOF 8
ENDMDL
MODEL 3
REMARK VINA RESULT:      -8.9      3.673      7.510
REMARK  8 active torsions:
REMARK  status: ('A' for Active; 'I' for Inactive)
REMARK    1  A    between atoms: C_8  and  N_9 
REMARK    2  A    between atoms: C_10  and  S_11 
REMARK    3  A    between atoms: S_11  and  C_12 
REMARK    4  A    between atoms: C_12  and  C_13 
REMARK       I    between atoms: C_13  and  N_14 
REMARK    5  A    between atoms: N_14  and  C_15 
REMARK    6  A    between atoms: C_15  and  C_16 
REMARK    7  A    between atoms: C_16  and  C_17 
REMARK    8  A    between atoms: C_27  and  N_28 
ROOT
HETATM    1  N   UNL     1      42.056 -12.755   5.196  1.00  0.00    -0.275 N 
HETATM    2  C   UNL     1      41.899 -12.667   3.788  1.00  0.00     0.177 A 
HETATM    3  N   UNL     1      41.134 -11.815   3.148  1.00  0.00    -0.204 NA
HETATM    4  C   UNL     1      40.482 -10.958   3.965  1.00  0.00     0.162 A 
HETATM    5  C   UNL     1      40.507 -10.866   5.330  1.00  0.00     0.081 A 
HETATM    6  C   UNL     1      41.346 -11.796   6.025  1.00  0.00     0.124 A 
HETATM    7  N   UNL     1      39.623  -9.981   3.557  1.00  0.00    -0.260 N 
HETATM    8  H   UNL     1      39.361  -9.742   2.607  1.00  0.00     0.191 HD
HETATM    9  N   UNL     1      39.073  -9.295   4.585  1.00  0.00    -0.177 NA
HETATM   10  C   UNL     1      39.615  -9.844   5.685  1.00  0.00     0.068 A 
HETATM   11  C   UNL     1      39.211  -9.348   7.020  1.00  0.00     0.073 C 
ENDROOT
BRANCH   2  12
HETATM   12  S   UNL     1      42.751 -13.827   2.742  1.00  0.00    -0.082 SA
BRANCH  12  13
HETATM   13  C   UNL     1      41.342 -14.640   1.945  1.00  0.00     0.185 C 
BRANCH  13  14
HETATM   14  C   UNL     1      41.227 -16.119   2.302  1.00  0.00     0.227 C 
HETATM   15  N   UNL     1      42.368 -16.617   2.912  1.00  0.00    -0.360 N 
HETATM   16  H   UNL     1      43.227 -16.086   2.828  1.00  0.00     0.162 HD
HETATM   17  O   UNL     1      40.226 -16.803   2.114  1.00  0.00    -0.273 OA
BRANCH  15  18
HETATM   18  C   UNL     1      42.477 -18.020   3.282  1.00  0.00     0.127 C 
BRANCH  18  19
HETATM   19  C   UNL     1      43.890 -18.364   3.753  1.00  0.00     0.058 C 
BRANCH  19  20
HETATM   20  C   UNL     1      44.182 -19.840   3.673  1.00  0.00    -0.057 A 
HETATM   21  C   UNL     1      44.027 -20.533   2.465  1.00  0.00     0.007 A 
HETATM   22  C   UNL     1      44.298 -21.901   2.396  1.00  0.00     0.001 A 
HETATM   23  C   UNL     1      44.721 -22.588   3.532  1.00  0.00     0.000 A 
HETATM   24  C   UNL     1      44.871 -21.910   4.739  1.00  0.00     0.001 A 
HETATM   25  C   UNL     1      44.601 -20.542   4.812  1.00  0.00     0.007 A 
ENDBRANCH  19  20
ENDBRANCH  18  19
ENDBRANCH  15  18
ENDBRANCH  13  14
ENDBRANCH  12  13
ENDBRANCH   2  12
BRANCH   1  26
HETATM   26  C   UNL     1      42.727 -13.865   5.797  1.00  0.00     0.051 A 
HETATM   27  C   UNL     1      42.075 -15.093   6.048  1.00  0.00    -0.013 A 
HETATM   28  C   UNL     1      40.610 -15.276   5.743  1.00  0.00     0.052 C 
HETATM   29  C   UNL     1      42.817 -16.131   6.644  1.00  0.00     0.042 A 
HETATM   30 CL   UNL     1      42.096 -17.649   7.050  1.00  0.00    -0.084 Cl
HETATM   31  C   UNL     1      44.176 -15.973   6.934  1.00  0.00     0.024 A 
HETATM   32  C   UNL     1      44.820 -14.774   6.649  1.00  0.00     0.004 A 
HETATM   33  C   UNL     1      44.099 -13.725   6.087  1.00  0.00     0.031 A 
ENDBRANCH   1  26
BRANCH   6  34
HETATM   34  N   UNL     1      41.455 -11.776   7.340  1.00  0.00    -0.384 N 
HETATM   35  H   UNL     1      42.317 -11.525   7.798  1.00  0.00     0.157 HD
HETATM   36  H   UNL     1      40.664 -12.048   7.910  1.00  0.00     0.157 HD
ENDBRANCH   6  34
TORSDOF 8
ENDMDL
MODEL 4
REMARK VINA RESULT:      -8.7      4.252      7.099
REMARK  8 active torsions:
REMARK  status: ('A' for Active; 'I' for Inactive)
REMARK    1  A    between atoms: C_8  and  N_9 
REMARK    2  A    between atoms: C_10  and  S_11 
REMARK    3  A    between atoms: S_11  and  C_12 
REMARK    4  A    between atoms: C_12  and  C_13 
REMARK       I    between atoms: C_13  and  N_14 
REMARK    5  A    between atoms: N_14  and  C_15 
REMARK    6  A    between atoms: C_15  and  C_16 
REMARK    7  A    between atoms: C_16  and  C_17 
REMARK    8  A    between atoms: C_27  and  N_28 
ROOT
HETATM    1  N   UNL     1      40.464 -15.007   3.863  1.00  0.00    -0.275 N 
HETATM    2  C   UNL     1      40.448 -15.391   5.231  1.00  0.00     0.177 A 
HETATM    3  N   UNL     1      40.128 -14.622   6.244  1.00  0.00    -0.204 NA
HETATM    4  C   UNL     1      39.771 -13.370   5.881  1.00  0.00     0.162 A 
HETATM    5  C   UNL     1      39.706 -12.812   4.633  1.00  0.00     0.081 A 
HETATM    6  C   UNL     1      40.052 -13.654   3.528  1.00  0.00     0.124 A 
HETATM    7  N   UNL     1      39.402 -12.376   6.737  1.00  0.00    -0.260 N 
HETATM    8  H   UNL     1      39.323 -12.425   7.747  1.00  0.00     0.191 HD
HETATM    9  N   UNL     1      39.138 -11.208   6.111  1.00  0.00    -0.177 NA
HETATM   10  C   UNL     1      39.331 -11.472   4.808  1.00  0.00     0.068 A 
HETATM   11  C   UNL     1      39.154 -10.390   3.812  1.00  0.00     0.073 C 
ENDROOT
BRANCH   2  12
HETATM   12  S   UNL     1      40.948 -17.038   5.679  1.00  0.00    -0.082 SA
BRANCH  12  13
HETATM   13  C   UNL     1      42.005 -16.678   7.105  1.00  0.00     0.185 C 
BRANCH  13  14
HETATM   14  C   UNL     1      43.325 -17.443   7.077  1.00  0.00     0.227 C 
HETATM   15  N   UNL     1      43.665 -17.887   5.809  1.00  0.00    -0.360 N 
HETATM   16  H   UNL     1      42.939 -17.919   5.103  1.00  0.00     0.162 HD
HETATM   17  O   UNL     1      44.044 -17.623   8.055  1.00  0.00    -0.273 OA
BRANCH  15  18
HETATM   18  C   UNL     1      44.862 -18.683   5.582  1.00  0.00     0.127 C 
BRANCH  18  19
HETATM   19  C   UNL     1      44.548 -20.179   5.599  1.00  0.00     0.058 C 
BRANCH  19  20
HETATM   20  C   UNL     1      44.398 -20.753   4.214  1.00  0.00    -0.057 A 
HETATM   21  C   UNL     1      44.753 -22.083   3.951  1.00  0.00     0.007 A 
HETATM   22  C   UNL     1      44.613 -22.610   2.666  1.00  0.00     0.001 A 
HETATM   23  C   UNL     1      44.122 -21.814   1.632  1.00  0.00     0.000 A 
HETATM   24  C   UNL     1      43.773 -20.489   1.882  1.00  0.00     0.001 A 
HETATM   25  C   UNL     1      43.912 -19.958   3.166  1.00  0.00     0.007 A 
ENDBRANCH  19  20
ENDBRANCH  18  19
ENDBRANCH  15  18
ENDBRANCH  13  14
ENDBRANCH  12  13
ENDBRANCH   2  12
BRANCH   1  26
HETATM   26  C   UNL     1      41.050 -15.847   2.867  1.00  0.00     0.051 A 
HETATM   27  C   UNL     1      42.449 -15.953   2.700  1.00  0.00    -0.013 A 
HETATM   28  C   UNL     1      43.401 -15.134   3.535  1.00  0.00     0.052 C 
HETATM   29  C   UNL     1      42.936 -16.806   1.691  1.00  0.00     0.042 A 
HETATM   30 CL   UNL     1      44.627 -16.958   1.363  1.00  0.00    -0.084 Cl
HETATM   31  C   UNL     1      42.065 -17.570   0.907  1.00  0.00     0.024 A 
HETATM   32  C   UNL     1      40.691 -17.488   1.103  1.00  0.00     0.004 A 
HETATM   33  C   UNL     1      40.186 -16.629   2.076  1.00  0.00     0.031 A 
ENDBRANCH   1  26
BRANCH   6  34
HETATM   34  N   UNL     1      40.002 -13.216   2.285  1.00  0.00    -0.384 N 
HETATM   35  H   UNL     1      40.823 -13.175   1.701  1.00  0.00     0.157 HD
HETATM   36  H   UNL     1      39.124 -12.881   1.909  1.00  0.00     0.157 HD
ENDBRANCH   6  34
TORSDOF 8
ENDMDL
MODEL 5
REMARK VINA RESULT:      -8.7      3.456      5.337
REMARK  8 active torsions:
REMARK  status: ('A' for Active; 'I' for Inactive)
REMARK    1  A    between atoms: C_8  and  N_9 
REMARK    2  A    between atoms: C_10  and  S_11 
REMARK    3  A    between atoms: S_11  and  C_12 
REMARK    4  A    between atoms: C_12  and  C_13 
REMARK       I    between atoms: C_13  and  N_14 
REMARK    5  A    between atoms: N_14  and  C_15 
REMARK    6  A    between atoms: C_15  and  C_16 
REMARK    7  A    between atoms: C_16  and  C_17 
REMARK    8  A    between atoms: C_27  and  N_28 
ROOT
HETATM    1  N   UNL     1      41.282 -14.777   2.301  1.00  0.00    -0.275 N 
HETATM    2  C   UNL     1      42.244 -13.734   2.370  1.00  0.00     0.177 A 
HETATM    3  N   UNL     1      42.209 -12.607   1.700  1.00  0.00    -0.204 NA
HETATM    4  C   UNL     1      41.121 -12.483   0.908  1.00  0.00     0.162 A 
HETATM    5  C   UNL     1      40.083 -13.353   0.712  1.00  0.00     0.081 A 
HETATM    6  C   UNL     1      40.122 -14.582   1.448  1.00  0.00     0.124 A 
HETATM    7  N   UNL     1      40.848 -11.416   0.105  1.00  0.00    -0.260 N 
HETATM    8  H   UNL     1      41.393 -10.568  -0.006  1.00  0.00     0.191 HD
HETATM    9  N   UNL     1      39.715 -11.570  -0.616  1.00  0.00    -0.177 NA
HETATM   10  C   UNL     1      39.241 -12.772  -0.246  1.00  0.00     0.068 A 
HETATM   11  C   UNL     1      38.000 -13.288  -0.869  1.00  0.00     0.073 C 
ENDROOT
BRANCH   2  12
HETATM   12  S   UNL     1      43.677 -13.939   3.402  1.00  0.00    -0.082 SA
BRANCH  12  13
HETATM   13  C   UNL     1      43.003 -13.414   5.000  1.00  0.00     0.185 C 
BRANCH  13  14
HETATM   14  C   UNL     1      43.650 -14.128   6.183  1.00  0.00     0.227 C 
HETATM   15  N   UNL     1      43.446 -15.498   6.164  1.00  0.00    -0.360 N 
HETATM   16  H   UNL     1      42.707 -15.864   5.576  1.00  0.00     0.162 HD
HETATM   17  O   UNL     1      44.319 -13.571   7.049  1.00  0.00    -0.273 OA
BRANCH  15  18
HETATM   18  C   UNL     1      43.939 -16.352   7.235  1.00  0.00     0.127 C 
BRANCH  18  19
HETATM   19  C   UNL     1      45.098 -17.227   6.760  1.00  0.00     0.058 C 
BRANCH  19  20
HETATM   20  C   UNL     1      44.694 -18.666   6.568  1.00  0.00    -0.057 A 
HETATM   21  C   UNL     1      45.112 -19.379   5.436  1.00  0.00     0.007 A 
HETATM   22  C   UNL     1      44.734 -20.712   5.262  1.00  0.00     0.001 A 
HETATM   23  C   UNL     1      43.933 -21.342   6.213  1.00  0.00     0.000 A 
HETATM   24  C   UNL     1      43.507 -20.639   7.337  1.00  0.00     0.001 A 
HETATM   25  C   UNL     1      43.883 -19.306   7.515  1.00  0.00     0.007 A 
ENDBRANCH  19  20
ENDBRANCH  18  19
ENDBRANCH  15  18
ENDBRANCH  13  14
ENDBRANCH  12  13
ENDBRANCH   2  12
BRANCH   1  26
HETATM   26  C   UNL     1      41.533 -16.054   2.890  1.00  0.00     0.051 A 
HETATM   27  C   UNL     1      42.329 -17.033   2.254  1.00  0.00    -0.013 A 
HETATM   28  C   UNL     1      42.911 -16.796   0.883  1.00  0.00     0.052 C 
HETATM   29  C   UNL     1      42.522 -18.264   2.910  1.00  0.00     0.042 A 
HETATM   30 CL   UNL     1      43.425 -19.550   2.188  1.00  0.00    -0.084 Cl
HETATM   31  C   UNL     1      41.986 -18.497   4.181  1.00  0.00     0.024 A 
HETATM   32  C   UNL     1      41.235 -17.515   4.816  1.00  0.00     0.004 A 
HETATM   33  C   UNL     1      41.007 -16.301   4.174  1.00  0.00     0.031 A 
ENDBRANCH   1  26
BRANCH   6  34
HETATM   34  N   UNL     1      39.158 -15.477   1.344  1.00  0.00    -0.384 N 
HETATM   35  H   UNL     1      38.652 -15.809   2.150  1.00  0.00     0.157 HD
HETATM   36  H   UNL     1      38.936 -15.869   0.437  1.00  0.00     0.157 HD
ENDBRANCH   6  34
TORSDOF 8
ENDMDL
MODEL 6
REMARK VINA RESULT:      -8.5      2.424      2.812
REMARK  8 active torsions:
REMARK  status: ('A' for Active; 'I' for Inactive)
REMARK    1  A    between atoms: C_8  and  N_9 
REMARK    2  A    between atoms: C_10  and  S_11 
REMARK    3  A    between atoms: S_11  and  C_12 
REMARK    4  A    between atoms: C_12  and  C_13 
REMARK       I    between atoms: C_13  and  N_14 
REMARK    5  A    between atoms: N_14  and  C_15 
REMARK    6  A    between atoms: C_15  and  C_16 
REMARK    7  A    between atoms: C_16  and  C_17 
REMARK    8  A    between atoms: C_27  and  N_28 
ROOT
HETATM    1  N   UNL     1      41.938 -15.376   2.119  1.00  0.00    -0.275 N 
HETATM    2  C   UNL     1      42.424 -14.085   2.457  1.00  0.00     0.177 A 
HETATM    3  N   UNL     1      42.494 -13.052   1.651  1.00  0.00    -0.204 NA
HETATM    4  C   UNL     1      42.025 -13.304   0.408  1.00  0.00     0.162 A 
HETATM    5  C   UNL     1      41.507 -14.460  -0.109  1.00  0.00     0.081 A 
HETATM    6  C   UNL     1      41.428 -15.585   0.774  1.00  0.00     0.124 A 
HETATM    7  N   UNL     1      41.992 -12.408  -0.618  1.00  0.00    -0.260 N 
HETATM    8  H   UNL     1      42.287 -11.437  -0.604  1.00  0.00     0.191 HD
HETATM    9  N   UNL     1      41.514 -12.935  -1.767  1.00  0.00    -0.177 NA
HETATM   10  C   UNL     1      41.218 -14.208  -1.457  1.00  0.00     0.068 A 
HETATM   11  C   UNL     1      40.686 -15.108  -2.507  1.00  0.00     0.073 C 
ENDROOT
BRANCH   2  12
HETATM   12  S   UNL     1      43.057 -13.793   4.092  1.00  0.00    -0.082 SA
BRANCH  12  13
HETATM   13  C   UNL     1      41.542 -13.272   4.938  1.00  0.00     0.185 C 
BRANCH  13  14
HETATM   14  C   UNL     1      41.700 -11.949   5.682  1.00  0.00     0.227 C 
HETATM   15  N   UNL     1      42.085 -12.114   7.002  1.00  0.00    -0.360 N 
HETATM   16  H   UNL     1      41.968 -13.028   7.425  1.00  0.00     0.162 HD
HETATM   17  O   UNL     1      41.546 -10.843   5.172  1.00  0.00    -0.273 OA
BRANCH  15  18
HETATM   18  C   UNL     1      42.238 -10.975   7.895  1.00  0.00     0.127 C 
BRANCH  18  19
HETATM   19  C   UNL     1      43.381 -11.193   8.886  1.00  0.00     0.058 C 
BRANCH  19  20
HETATM   20  C   UNL     1      43.001 -10.819  10.296  1.00  0.00    -0.057 A 
HETATM   21  C   UNL     1      41.682 -10.974  10.744  1.00  0.00     0.007 A 
HETATM   22  C   UNL     1      41.335 -10.626  12.050  1.00  0.00     0.001 A 
HETATM   23  C   UNL     1      42.299 -10.116  12.918  1.00  0.00     0.000 A 
HETATM   24  C   UNL     1      43.611  -9.952  12.480  1.00  0.00     0.001 A 
HETATM   25  C   UNL     1      43.962 -10.299  11.174  1.00  0.00     0.007 A 
ENDBRANCH  19  20
ENDBRANCH  18  19
ENDBRANCH  15  18
ENDBRANCH  13  14
ENDBRANCH  12  13
ENDBRANCH   2  12
BRANCH   1  26
HETATM   26  C   UNL     1      42.122 -16.487   2.998  1.00  0.00     0.051 A 
HETATM   27  C   UNL     1      43.214 -17.375   2.871  1.00  0.00    -0.013 A 
HETATM   28  C   UNL     1      44.217 -17.225   1.755  1.00  0.00     0.052 C 
HETATM   29  C   UNL     1      43.313 -18.443   3.783  1.00  0.00     0.042 A 
HETATM   30 CL   UNL     1      44.574 -19.621   3.674  1.00  0.00    -0.084 Cl
HETATM   31  C   UNL     1      42.388 -18.595   4.821  1.00  0.00     0.024 A 
HETATM   32  C   UNL     1      41.337 -17.696   4.962  1.00  0.00     0.004 A 
HETATM   33  C   UNL     1      41.204 -16.649   4.054  1.00  0.00     0.031 A 
ENDBRANCH   1  26
BRANCH   6  34
HETATM   34  N   UNL     1      40.926 -16.739   0.377  1.00  0.00    -0.384 N 
HETATM   35  H   UNL     1      39.931 -16.889   0.305  1.00  0.00     0.157 HD
HETATM   36  H   UNL     1      41.549 -17.508   0.166  1.00  0.00     0.157 HD
ENDBRANCH   6  34
TORSDOF 8
ENDMDL
MODEL 7
REMARK VINA RESULT:      -8.3      4.617      7.082
REMARK  8 active torsions:
REMARK  status: ('A' for Active; 'I' for Inactive)
REMARK    1  A    between atoms: C_8  and  N_9 
REMARK    2  A    between atoms: C_10  and  S_11 
REMARK    3  A    between atoms: S_11  and  C_12 
REMARK    4  A    between atoms: C_12  and  C_13 
REMARK       I    between atoms: C_13  and  N_14 
REMARK    5  A    between atoms: N_14  and  C_15 
REMARK    6  A    between atoms: C_15  and  C_16 
REMARK    7  A    between atoms: C_16  and  C_17 
REMARK    8  A    between atoms: C_27  and  N_28 
ROOT
HETATM    1  N   UNL     1      41.369 -13.851   1.012  1.00  0.00    -0.275 N 
HETATM    2  C   UNL     1      40.961 -15.199   0.831  1.00  0.00     0.177 A 
HETATM    3  N   UNL     1      40.883 -15.833  -0.315  1.00  0.00    -0.204 NA
HETATM    4  C   UNL     1      41.259 -15.083  -1.374  1.00  0.00     0.162 A 
HETATM    5  C   UNL     1      41.693 -13.786  -1.412  1.00  0.00     0.081 A 
HETATM    6  C   UNL     1      41.781 -13.096  -0.160  1.00  0.00     0.124 A 
HETATM    7  N   UNL     1      41.265 -15.499  -2.672  1.00  0.00    -0.260 N 
HETATM    8  H   UNL     1      41.012 -16.413  -3.032  1.00  0.00     0.191 HD
HETATM    9  N   UNL     1      41.644 -14.532  -3.538  1.00  0.00    -0.177 NA
HETATM   10  C   UNL     1      41.905 -13.468  -2.761  1.00  0.00     0.068 A 
HETATM   11  C   UNL     1      42.329 -12.195  -3.389  1.00  0.00     0.073 C 
ENDROOT
BRANCH   2  12
HETATM   12  S   UNL     1      40.448 -16.151   2.242  1.00  0.00    -0.082 SA
BRANCH  12  13
HETATM   13  C   UNL     1      42.040 -16.840   2.764  1.00  0.00     0.185 C 
BRANCH  13  14
HETATM   14  C   UNL     1      42.092 -17.155   4.256  1.00  0.00     0.227 C 
HETATM   15  N   UNL     1      43.068 -16.435   4.926  1.00  0.00    -0.360 N 
HETATM   16  H   UNL     1      43.804 -16.002   4.380  1.00  0.00     0.162 HD
HETATM   17  O   UNL     1      41.332 -17.929   4.830  1.00  0.00    -0.273 OA
BRANCH  15  18
HETATM   18  C   UNL     1      43.312 -16.632   6.347  1.00  0.00     0.127 C 
BRANCH  18  19
HETATM   19  C   UNL     1      44.619 -17.387   6.589  1.00  0.00     0.058 C 
BRANCH  19  20
HETATM   20  C   UNL     1      44.487 -18.866   6.329  1.00  0.00    -0.057 A 
HETATM   21  C   UNL     1      44.998 -19.431   5.153  1.00  0.00     0.007 A 
HETATM   22  C   UNL     1      44.872 -20.802   4.916  1.00  0.00     0.001 A 
HETATM   23  C   UNL     1      44.233 -21.617   5.849  1.00  0.00     0.000 A 
HETATM   24  C   UNL     1      43.716 -21.063   7.017  1.00  0.00     0.001 A 
HETATM   25  C   UNL     1      43.839 -19.693   7.257  1.00  0.00     0.007 A 
ENDBRANCH  19  20
ENDBRANCH  18  19
ENDBRANCH  15  18
ENDBRANCH  13  14
ENDBRANCH  12  13
ENDBRANCH   2  12
BRANCH   1  26
HETATM   26  C   UNL     1      41.194 -13.189   2.267  1.00  0.00     0.051 A 
HETATM   27  C   UNL     1      39.975 -12.577   2.633  1.00  0.00    -0.013 A 
HETATM   28  C   UNL     1      38.803 -12.541   1.684  1.00  0.00     0.052 C 
HETATM   29  C   UNL     1      39.897 -11.948   3.890  1.00  0.00     0.042 A 
HETATM   30 CL   UNL     1      38.471 -11.115   4.405  1.00  0.00    -0.084 Cl
HETATM   31  C   UNL     1      40.976 -11.971   4.779  1.00  0.00     0.024 A 
HETATM   32  C   UNL     1      42.161 -12.608   4.426  1.00  0.00     0.004 A 
HETATM   33  C   UNL     1      42.270 -13.212   3.177  1.00  0.00     0.031 A 
ENDBRANCH   1  26
BRANCH   6  34
HETATM   34  N   UNL     1      42.207 -11.850  -0.087  1.00  0.00    -0.384 N 
HETATM   35  H   UNL     1      42.563 -11.458   0.771  1.00  0.00     0.157 HD
HETATM   36  H   UNL     1      42.150 -11.255  -0.905  1.00  0.00     0.157 HD
ENDBRANCH   6  34
TORSDOF 8
ENDMDL
MODEL 8
REMARK VINA RESULT:      -8.3      4.546      6.665
REMARK  8 active torsions:
REMARK  status: ('A' for Active; 'I' for Inactive)
REMARK    1  A    between atoms: C_8  and  N_9 
REMARK    2  A    between atoms: C_10  and  S_11 
REMARK    3  A    between atoms: S_11  and  C_12 
REMARK    4  A    between atoms: C_12  and  C_13 
REMARK       I    between atoms: C_13  and  N_14 
REMARK    5  A    between atoms: N_14  and  C_15 
REMARK    6  A    between atoms: C_15  and  C_16 
REMARK    7  A    between atoms: C_16  and  C_17 
REMARK    8  A    between atoms: C_27  and  N_28 
ROOT
HETATM    1  N   UNL     1      41.678 -14.259   1.023  1.00  0.00    -0.275 N 
HETATM    2  C   UNL     1      41.368 -15.615   0.737  1.00  0.00     0.177 A 
HETATM    3  N   UNL     1      41.180 -16.128  -0.455  1.00  0.00    -0.204 NA
HETATM    4  C   UNL     1      41.331 -15.235  -1.458  1.00  0.00     0.162 A 
HETATM    5  C   UNL     1      41.640 -13.903  -1.398  1.00  0.00     0.081 A 
HETATM    6  C   UNL     1      41.849 -13.345  -0.095  1.00  0.00     0.124 A 
HETATM    7  N   UNL     1      41.184 -15.508  -2.785  1.00  0.00    -0.260 N 
HETATM    8  H   UNL     1      40.963 -16.400  -3.214  1.00  0.00     0.191 HD
HETATM    9  N   UNL     1      41.348 -14.421  -3.571  1.00  0.00    -0.177 NA
HETATM   10  C   UNL     1      41.625 -13.423  -2.715  1.00  0.00     0.068 A 
HETATM   11  C   UNL     1      41.841 -12.054  -3.237  1.00  0.00     0.073 C 
ENDROOT
BRANCH   2  12
HETATM   12  S   UNL     1      41.150 -16.760   2.080  1.00  0.00    -0.082 SA
BRANCH  12  13
HETATM   13  C   UNL     1      42.026 -18.202   1.421  1.00  0.00     0.185 C 
BRANCH  13  14
HETATM   14  C   UNL     1      43.386 -18.424   2.077  1.00  0.00     0.227 C 
HETATM   15  N   UNL     1      43.451 -19.605   2.799  1.00  0.00    -0.360 N 
HETATM   16  H   UNL     1      42.582 -20.057   3.056  1.00  0.00     0.162 HD
HETATM   17  O   UNL     1      44.346 -17.669   1.956  1.00  0.00    -0.273 OA
BRANCH  15  18
HETATM   18  C   UNL     1      44.647 -19.972   3.542  1.00  0.00     0.127 C 
BRANCH  18  19
HETATM   19  C   UNL     1      44.365 -20.064   5.042  1.00  0.00     0.058 C 
BRANCH  19  20
HETATM   20  C   UNL     1      44.032 -18.726   5.650  1.00  0.00    -0.057 A 
HETATM   21  C   UNL     1      45.034 -17.940   6.234  1.00  0.00     0.007 A 
HETATM   22  C   UNL     1      44.721 -16.701   6.797  1.00  0.00     0.001 A 
HETATM   23  C   UNL     1      43.405 -16.240   6.786  1.00  0.00     0.000 A 
HETATM   24  C   UNL     1      42.402 -17.019   6.215  1.00  0.00     0.001 A 
HETATM   25  C   UNL     1      42.711 -18.258   5.651  1.00  0.00     0.007 A 
ENDBRANCH  19  20
ENDBRANCH  18  19
ENDBRANCH  15  18
ENDBRANCH  13  14
ENDBRANCH  12  13
ENDBRANCH   2  12
BRANCH   1  26
HETATM   26  C   UNL     1      41.631 -13.756   2.359  1.00  0.00     0.051 A 
HETATM   27  C   UNL     1      40.431 -13.304   2.952  1.00  0.00    -0.013 A 
HETATM   28  C   UNL     1      39.138 -13.275   2.176  1.00  0.00     0.052 C 
HETATM   29  C   UNL     1      40.482 -12.824   4.276  1.00  0.00     0.042 A 
HETATM   30 CL   UNL     1      39.082 -12.189   5.069  1.00  0.00    -0.084 Cl
HETATM   31  C   UNL     1      41.674 -12.842   5.006  1.00  0.00     0.024 A 
HETATM   32  C   UNL     1      42.844 -13.324   4.428  1.00  0.00     0.004 A 
HETATM   33  C   UNL     1      42.823 -13.776   3.112  1.00  0.00     0.031 A 
ENDBRANCH   1  26
BRANCH   6  34
HETATM   34  N   UNL     1      42.170 -12.076   0.068  1.00  0.00    -0.384 N 
HETATM   35  H   UNL     1      41.577 -11.438   0.575  1.00  0.00     0.157 HD
HETATM   36  H   UNL     1      43.020 -11.720  -0.350  1.00  0.00     0.157 HD
ENDBRANCH   6  34
TORSDOF 8
ENDMDL
MODEL 9
REMARK VINA RESULT:      -8.3      2.578      3.326
REMARK  8 active torsions:
REMARK  status: ('A' for Active; 'I' for Inactive)
REMARK    1  A    between atoms: C_8  and  N_9 
REMARK    2  A    between atoms: C_10  and  S_11 
REMARK    3  A    between atoms: S_11  and  C_12 
REMARK    4  A    between atoms: C_12  and  C_13 
REMARK       I    between atoms: C_13  and  N_14 
REMARK    5  A    between atoms: N_14  and  C_15 
REMARK    6  A    between atoms: C_15  and  C_16 
REMARK    7  A    between atoms: C_16  and  C_17 
REMARK    8  A    between atoms: C_27  and  N_28 
ROOT
HETATM    1  N   UNL     1      41.444 -14.503   4.184  1.00  0.00    -0.275 N 
HETATM    2  C   UNL     1      40.440 -13.515   4.362  1.00  0.00     0.177 A 
HETATM    3  N   UNL     1      39.625 -13.068   3.436  1.00  0.00    -0.204 NA
HETATM    4  C   UNL     1      39.798 -13.659   2.234  1.00  0.00     0.162 A 
HETATM    5  C   UNL     1      40.687 -14.630   1.861  1.00  0.00     0.081 A 
HETATM    6  C   UNL     1      41.573 -15.119   2.875  1.00  0.00     0.124 A 
HETATM    7  N   UNL     1      39.088 -13.373   1.106  1.00  0.00    -0.260 N 
HETATM    8  H   UNL     1      38.331 -12.706   1.001  1.00  0.00     0.191 HD
HETATM    9  N   UNL     1      39.496 -14.081   0.029  1.00  0.00    -0.177 NA
HETATM   10  C   UNL     1      40.490 -14.857   0.492  1.00  0.00     0.068 A 
HETATM   11  C   UNL     1      41.202 -15.762  -0.440  1.00  0.00     0.073 C 
ENDROOT
BRANCH   2  12
HETATM   12  S   UNL     1      40.255 -12.737   5.950  1.00  0.00    -0.082 SA
BRANCH  12  13
HETATM   13  C   UNL     1      41.322 -11.290   5.728  1.00  0.00     0.185 C 
BRANCH  13  14
HETATM   14  C   UNL     1      41.477 -10.463   7.001  1.00  0.00     0.227 C 
HETATM   15  N   UNL     1      41.111 -11.156   8.144  1.00  0.00    -0.360 N 
HETATM   16  H   UNL     1      40.546 -11.991   8.037  1.00  0.00     0.162 HD
HETATM   17  O   UNL     1      41.915  -9.317   7.036  1.00  0.00    -0.273 OA
BRANCH  15  18
HETATM   18  C   UNL     1      41.137 -10.523   9.454  1.00  0.00     0.127 C 
BRANCH  18  19
HETATM   19  C   UNL     1      42.509 -10.660  10.112  1.00  0.00     0.058 C 
BRANCH  19  20
HETATM   20  C   UNL     1      42.463 -10.425  11.600  1.00  0.00    -0.057 A 
HETATM   21  C   UNL     1      43.505  -9.748  12.247  1.00  0.00     0.007 A 
HETATM   22  C   UNL     1      43.458  -9.534  13.626  1.00  0.00     0.001 A 
HETATM   23  C   UNL     1      42.374  -9.997  14.369  1.00  0.00     0.000 A 
HETATM   24  C   UNL     1      41.337 -10.677  13.736  1.00  0.00     0.001 A 
HETATM   25  C   UNL     1      41.380 -10.893  12.357  1.00  0.00     0.007 A 
ENDBRANCH  19  20
ENDBRANCH  18  19
ENDBRANCH  15  18
ENDBRANCH  13  14
ENDBRANCH  12  13
ENDBRANCH   2  12
BRANCH   1  26
HETATM   26  C   UNL     1      42.427 -14.746   5.192  1.00  0.00     0.051 A 
HETATM   27  C   UNL     1      42.310 -15.808   6.117  1.00  0.00    -0.013 A 
HETATM   28  C   UNL     1      41.102 -16.710   6.123  1.00  0.00     0.052 C 
HETATM   29  C   UNL     1      43.329 -15.970   7.076  1.00  0.00     0.042 A 
HETATM   30 CL   UNL     1      43.248 -17.198   8.292  1.00  0.00    -0.084 Cl
HETATM   31  C   UNL     1      44.453 -15.139   7.084  1.00  0.00     0.024 A 
HETATM   32  C   UNL     1      44.579 -14.119   6.147  1.00  0.00     0.004 A 
HETATM   33  C   UNL     1      43.571 -13.923   5.208  1.00  0.00     0.031 A 
ENDBRANCH   1  26
BRANCH   6  34
HETATM   34  N   UNL     1      42.453 -16.069   2.621  1.00  0.00    -0.384 N 
HETATM   35  H   UNL     1      42.698 -16.765   3.309  1.00  0.00     0.157 HD
HETATM   36  H   UNL     1      42.921 -16.089   1.724  1.00  0.00     0.157 HD
ENDBRANCH   6  34
TORSDOF 8
ENDMDL
MODEL 10
REMARK VINA RESULT:      -8.1      6.173      8.563
REMARK  8 active torsions:
REMARK  status: ('A' for Active; 'I' for Inactive)
REMARK    1  A    between atoms: C_8  and  N_9 
REMARK    2  A    between atoms: C_10  and  S_11 
REMARK    3  A    between atoms: S_11  and  C_12 
REMARK    4  A    between atoms: C_12  and  C_13 
REMARK       I    between atoms: C_13  and  N_14 
REMARK    5  A    between atoms: N_14  and  C_15 
REMARK    6  A    between atoms: C_15  and  C_16 
REMARK    7  A    between atoms: C_16  and  C_17 
REMARK    8  A    between atoms: C_27  and  N_28 
ROOT
HETATM    1  N   UNL     1      40.847 -12.307  -1.338  1.00  0.00    -0.275 N 
HETATM    2  C   UNL     1      41.071 -12.359   0.063  1.00  0.00     0.177 A 
HETATM    3  N   UNL     1      41.652 -11.432   0.787  1.00  0.00    -0.204 NA
HETATM    4  C   UNL     1      42.026 -10.346   0.073  1.00  0.00     0.162 A 
HETATM    5  C   UNL     1      41.890 -10.094  -1.265  1.00  0.00     0.081 A 
HETATM    6  C   UNL     1      41.253 -11.107  -2.052  1.00  0.00     0.124 A 
HETATM    7  N   UNL     1      42.654  -9.248   0.581  1.00  0.00    -0.260 N 
HETATM    8  H   UNL     1      42.913  -9.072   1.546  1.00  0.00     0.191 HD
HETATM    9  N   UNL     1      42.955  -8.326  -0.361  1.00  0.00    -0.177 NA
HETATM   10  C   UNL     1      42.488  -8.850  -1.506  1.00  0.00     0.068 A 
HETATM   11  C   UNL     1      42.673  -8.107  -2.775  1.00  0.00     0.073 C 
ENDROOT
BRANCH   2  12
HETATM   12  S   UNL     1      40.591 -13.812   0.968  1.00  0.00    -0.082 SA
BRANCH  12  13
HETATM   13  C   UNL     1      42.165 -14.237   1.758  1.00  0.00     0.185 C 
BRANCH  13  14
HETATM   14  C   UNL     1      42.141 -15.602   2.439  1.00  0.00     0.227 C 
HETATM   15  N   UNL     1      43.407 -16.127   2.643  1.00  0.00    -0.360 N 
HETATM   16  H   UNL     1      44.178 -15.736   2.115  1.00  0.00     0.162 HD
HETATM   17  O   UNL     1      41.121 -16.174   2.812  1.00  0.00    -0.273 OA
BRANCH  15  18
HETATM   18  C   UNL     1      43.594 -17.445   3.232  1.00  0.00     0.127 C 
BRANCH  18  19
HETATM   19  C   UNL     1      43.845 -18.504   2.159  1.00  0.00     0.058 C 
BRANCH  19  20
HETATM   20  C   UNL     1      44.155 -19.857   2.745  1.00  0.00    -0.057 A 
HETATM   21  C   UNL     1      44.599 -19.976   4.068  1.00  0.00     0.007 A 
HETATM   22  C   UNL     1      44.886 -21.232   4.607  1.00  0.00     0.001 A 
HETATM   23  C   UNL     1      44.736 -22.378   3.827  1.00  0.00     0.000 A 
HETATM   24  C   UNL     1      44.302 -22.269   2.509  1.00  0.00     0.001 A 
HETATM   25  C   UNL     1      44.014 -21.015   1.967  1.00  0.00     0.007 A 
ENDBRANCH  19  20
ENDBRANCH  18  19
ENDBRANCH  15  18
ENDBRANCH  13  14
ENDBRANCH  12  13
ENDBRANCH   2  12
BRANCH   1  26
HETATM   26  C   UNL     1      40.422 -13.463  -2.061  1.00  0.00     0.051 A 
HETATM   27  C   UNL     1      39.076 -13.658  -2.446  1.00  0.00    -0.013 A 
HETATM   28  C   UNL     1      38.002 -12.674  -2.058  1.00  0.00     0.052 C 
HETATM   29  C   UNL     1      38.751 -14.830  -3.157  1.00  0.00     0.042 A 
HETATM   30 CL   UNL     1      37.124 -15.194  -3.617  1.00  0.00    -0.084 Cl
HETATM   31  C   UNL     1      39.737 -15.753  -3.521  1.00  0.00     0.024 A 
HETATM   32  C   UNL     1      41.065 -15.535  -3.171  1.00  0.00     0.004 A 
HETATM   33  C   UNL     1      41.405 -14.398  -2.443  1.00  0.00     0.031 A 
ENDBRANCH   1  26
BRANCH   6  34
HETATM   34  N   UNL     1      41.056 -10.951  -3.347  1.00  0.00    -0.384 N 
HETATM   35  H   UNL     1      41.573 -10.275  -3.886  1.00  0.00     0.157 HD
HETATM   36  H   UNL     1      40.346 -11.502  -3.813  1.00  0.00     0.157 HD
ENDBRANCH   6  34
TORSDOF 8
ENDMDL
