MODEL 1
REMARK VINA RESULT:      -7.3      0.000      0.000
REMARK  5 active torsions:
REMARK  status: ('A' for Active; 'I' for Inactive)
REMARK    1  A    between atoms: O_2  and  C_3 
REMARK    2  A    between atoms: C_4  and  C_5 
REMARK    3  A    between atoms: C_5  and  N_6 
REMARK    4  A    between atoms: N_6  and  N_7 
REMARK    5  A    between atoms: N_7  and  C_8 
ROOT
HETATM    1  C   UNL     1      41.243 -16.916   4.699  1.00  0.00     0.169 C 
HETATM    2  S   UNL     1      41.168 -15.683   5.879  1.00  0.00    -0.009 SA
HETATM    3  C   UNL     1      40.159 -14.504   5.096  1.00  0.00     0.229 C 
HETATM    4  O   UNL     1      39.602 -13.643   5.759  1.00  0.00    -0.279 OA
HETATM    5  C   UNL     1      40.015 -14.528   3.634  1.00  0.00     0.048 A 
HETATM    6  C   UNL     1      40.370 -15.659   2.896  1.00  0.00     0.049 A 
HETATM    7  C   UNL     1      39.480 -13.397   2.995  1.00  0.00     0.018 A 
HETATM    8  C   UNL     1      39.314 -13.386   1.612  1.00  0.00     0.001 A 
HETATM    9  C   UNL     1      39.670 -14.504   0.865  1.00  0.00     0.002 A 
HETATM   10  C   UNL     1      40.187 -15.633   1.505  1.00  0.00     0.030 A 
HETATM   11  N   UNL     1      40.874 -16.793   3.443  1.00  0.00    -0.335 N 
HETATM   12  H   UNL     1      41.030 -17.619   2.872  1.00  0.00     0.168 HD
ENDROOT
BRANCH   1  13
HETATM   13  N   UNL     1      41.752 -18.078   5.091  1.00  0.00    -0.257 N 
HETATM   14  H   UNL     1      41.105 -18.862   4.982  1.00  0.00     0.191 HD
BRANCH  13  15
HETATM   15  N   UNL     1      43.060 -18.264   5.602  1.00  0.00    -0.184 NA
BRANCH  15  16
HETATM   16  C   UNL     1      43.932 -18.386   4.647  1.00  0.00     0.153 C 
BRANCH  16  17
HETATM   17  C   UNL     1      44.024 -19.612   3.832  1.00  0.00     0.016 A 
HETATM   18  C   UNL     1      43.517 -19.608   2.521  1.00  0.00     0.080 A 
HETATM   19  C   UNL     1      43.639 -20.770   1.753  1.00  0.00     0.037 A 
HETATM   20  C   UNL     1      44.247 -21.911   2.286  1.00  0.00     0.003 A 
HETATM   21  C   UNL     1      44.738 -21.907   3.591  1.00  0.00     0.001 A 
HETATM   22  C   UNL     1      44.625 -20.757   4.369  1.00  0.00     0.016 A 
BRANCH  18  23
HETATM   23  O   UNL     1      42.920 -18.451   2.097  1.00  0.00    -0.355 OA
HETATM   24  C   UNL     1      43.577 -17.724   1.061  1.00  0.00     0.210 C 
ENDBRANCH  18  23
ENDBRANCH  16  17
ENDBRANCH  15  16
ENDBRANCH  13  15
ENDBRANCH   1  13
TORSDOF 5
ENDMDL
MODEL 2
REMARK VINA RESULT:      -7.1      2.053      2.307
REMARK  5 active torsions:
REMARK  status: ('A' for Active; 'I' for Inactive)
REMARK    1  A    between atoms: O_2  and  C_3 
REMARK    2  A    between atoms: C_4  and  C_5 
REMARK    3  A    between atoms: C_5  and  N_6 
REMARK    4  A    between atoms: N_6  and  N_7 
REMARK    5  A    between atoms: N_7  and  C_8 
ROOT
HETATM    1  C   UNL     1      43.162 -17.142   5.914  1.00  0.00     0.169 C 
HETATM    2  S   UNL     1      44.124 -16.063   6.824  1.00  0.00    -0.009 SA
HETATM    3  C   UNL     1      43.613 -14.522   6.203  1.00  0.00     0.229 C 
HETATM    4  O   UNL     1      43.825 -13.505   6.846  1.00  0.00    -0.279 OA
HETATM    5  C   UNL     1      42.964 -14.448   4.887  1.00  0.00     0.048 A 
HETATM    6  C   UNL     1      42.433 -15.591   4.283  1.00  0.00     0.049 A 
HETATM    7  C   UNL     1      42.859 -13.195   4.260  1.00  0.00     0.018 A 
HETATM    8  C   UNL     1      42.238 -13.083   3.019  1.00  0.00     0.001 A 
HETATM    9  C   UNL     1      41.711 -14.213   2.405  1.00  0.00     0.002 A 
HETATM   10  C   UNL     1      41.802 -15.455   3.037  1.00  0.00     0.030 A 
HETATM   11  N   UNL     1      42.479 -16.829   4.834  1.00  0.00    -0.335 N 
HETATM   12  H   UNL     1      41.997 -17.610   4.396  1.00  0.00     0.168 HD
ENDROOT
BRANCH   1  13
HETATM   13  N   UNL     1      43.143 -18.405   6.323  1.00  0.00    -0.257 N 
HETATM   14  H   UNL     1      42.215 -18.724   6.609  1.00  0.00     0.191 HD
BRANCH  13  15
HETATM   15  N   UNL     1      44.267 -19.265   6.364  1.00  0.00    -0.184 NA
BRANCH  15  16
HETATM   16  C   UNL     1      44.923 -19.246   5.243  1.00  0.00     0.153 C 
BRANCH  16  17
HETATM   17  C   UNL     1      44.627 -20.196   4.154  1.00  0.00     0.016 A 
HETATM   18  C   UNL     1      44.220 -19.705   2.902  1.00  0.00     0.080 A 
HETATM   19  C   UNL     1      43.972 -20.619   1.873  1.00  0.00     0.037 A 
HETATM   20  C   UNL     1      44.121 -21.992   2.094  1.00  0.00     0.003 A 
HETATM   21  C   UNL     1      44.516 -22.468   3.342  1.00  0.00     0.001 A 
HETATM   22  C   UNL     1      44.768 -21.571   4.378  1.00  0.00     0.016 A 
BRANCH  18  23
HETATM   23  O   UNL     1      44.082 -18.347   2.790  1.00  0.00    -0.355 OA
HETATM   24  C   UNL     1      44.026 -17.807   1.472  1.00  0.00     0.210 C 
ENDBRANCH  18  23
ENDBRANCH  16  17
ENDBRANCH  15  16
ENDBRANCH  13  15
ENDBRANCH   1  13
TORSDOF 5
ENDMDL
MODEL 3
REMARK VINA RESULT:      -7.0      2.787      7.395
REMARK  5 active torsions:
REMARK  status: ('A' for Active; 'I' for Inactive)
REMARK    1  A    between atoms: O_2  and  C_3 
REMARK    2  A    between atoms: C_4  and  C_5 
REMARK    3  A    between atoms: C_5  and  N_6 
REMARK    4  A    between atoms: N_6  and  N_7 
REMARK    5  A    between atoms: N_7  and  C_8 
ROOT
HETATM    1  C   UNL     1      43.362 -17.807   1.791  1.00  0.00     0.169 C 
HETATM    2  S   UNL     1      43.291 -17.104   3.346  1.00  0.00    -0.009 SA
HETATM    3  C   UNL     1      44.104 -18.299   4.312  1.00  0.00     0.229 C 
HETATM    4  O   UNL     1      44.550 -17.994   5.409  1.00  0.00    -0.279 OA
HETATM    5  C   UNL     1      44.215 -19.678   3.821  1.00  0.00     0.048 A 
HETATM    6  C   UNL     1      44.004 -19.980   2.473  1.00  0.00     0.049 A 
HETATM    7  C   UNL     1      44.569 -20.688   4.731  1.00  0.00     0.018 A 
HETATM    8  C   UNL     1      44.697 -22.007   4.300  1.00  0.00     0.001 A 
HETATM    9  C   UNL     1      44.485 -22.320   2.962  1.00  0.00     0.002 A 
HETATM   10  C   UNL     1      44.149 -21.311   2.056  1.00  0.00     0.030 A 
HETATM   11  N   UNL     1      43.679 -19.058   1.533  1.00  0.00    -0.335 N 
HETATM   12  H   UNL     1      43.628 -19.315   0.551  1.00  0.00     0.168 HD
ENDROOT
BRANCH   1  13
HETATM   13  N   UNL     1      43.032 -17.022   0.772  1.00  0.00    -0.257 N 
HETATM   14  H   UNL     1      43.840 -16.633   0.282  1.00  0.00     0.191 HD
BRANCH  13  15
HETATM   15  N   UNL     1      41.708 -16.736   0.361  1.00  0.00    -0.184 NA
BRANCH  15  16
HETATM   16  C   UNL     1      41.578 -15.495  -0.001  1.00  0.00     0.153 C 
BRANCH  16  17
HETATM   17  C   UNL     1      40.697 -15.099  -1.116  1.00  0.00     0.016 A 
HETATM   18  C   UNL     1      39.612 -14.242  -0.866  1.00  0.00     0.080 A 
HETATM   19  C   UNL     1      38.805 -13.854  -1.940  1.00  0.00     0.037 A 
HETATM   20  C   UNL     1      39.074 -14.318  -3.232  1.00  0.00     0.003 A 
HETATM   21  C   UNL     1      40.147 -15.175  -3.466  1.00  0.00     0.001 A 
HETATM   22  C   UNL     1      40.962 -15.571  -2.408  1.00  0.00     0.016 A 
BRANCH  18  23
HETATM   23  O   UNL     1      39.418 -13.859   0.434  1.00  0.00    -0.355 OA
HETATM   24  C   UNL     1      38.176 -14.214   1.037  1.00  0.00     0.210 C 
ENDBRANCH  18  23
ENDBRANCH  16  17
ENDBRANCH  15  16
ENDBRANCH  13  15
ENDBRANCH   1  13
TORSDOF 5
ENDMDL
MODEL 4
REMARK VINA RESULT:      -7.0      2.231      7.223
REMARK  5 active torsions:
REMARK  status: ('A' for Active; 'I' for Inactive)
REMARK    1  A    between atoms: O_2  and  C_3 
REMARK    2  A    between atoms: C_4  and  C_5 
REMARK    3  A    between atoms: C_5  and  N_6 
REMARK    4  A    between atoms: N_6  and  N_7 
REMARK    5  A    between atoms: N_7  and  C_8 
ROOT
HETATM    1  C   UNL     1      43.657 -17.912   1.889  1.00  0.00     0.169 C 
HETATM    2  S   UNL     1      43.573 -17.210   3.445  1.00  0.00    -0.009 SA
HETATM    3  C   UNL     1      44.300 -18.444   4.429  1.00  0.00     0.229 C 
HETATM    4  O   UNL     1      44.727 -18.164   5.540  1.00  0.00    -0.279 OA
HETATM    5  C   UNL     1      44.361 -19.826   3.936  1.00  0.00     0.048 A 
HETATM    6  C   UNL     1      44.177 -20.114   2.581  1.00  0.00     0.049 A 
HETATM    7  C   UNL     1      44.641 -20.854   4.852  1.00  0.00     0.018 A 
HETATM    8  C   UNL     1      44.720 -22.176   4.420  1.00  0.00     0.001 A 
HETATM    9  C   UNL     1      44.533 -22.475   3.075  1.00  0.00     0.002 A 
HETATM   10  C   UNL     1      44.271 -21.450   2.164  1.00  0.00     0.030 A 
HETATM   11  N   UNL     1      43.923 -19.175   1.636  1.00  0.00    -0.335 N 
HETATM   12  H   UNL     1      43.888 -19.427   0.651  1.00  0.00     0.168 HD
ENDROOT
BRANCH   1  13
HETATM   13  N   UNL     1      43.394 -17.110   0.865  1.00  0.00    -0.257 N 
HETATM   14  H   UNL     1      44.233 -16.741   0.412  1.00  0.00     0.191 HD
BRANCH  13  15
HETATM   15  N   UNL     1      42.098 -16.780   0.400  1.00  0.00    -0.184 NA
BRANCH  15  16
HETATM   16  C   UNL     1      41.860 -15.508   0.511  1.00  0.00     0.153 C 
BRANCH  16  17
HETATM   17  C   UNL     1      40.501 -14.956   0.356  1.00  0.00     0.016 A 
HETATM   18  C   UNL     1      39.625 -14.963   1.455  1.00  0.00     0.080 A 
HETATM   19  C   UNL     1      38.351 -14.408   1.298  1.00  0.00     0.037 A 
HETATM   20  C   UNL     1      37.960 -13.866   0.069  1.00  0.00     0.003 A 
HETATM   21  C   UNL     1      38.834 -13.873  -1.016  1.00  0.00     0.001 A 
HETATM   22  C   UNL     1      40.108 -14.421  -0.877  1.00  0.00     0.016 A 
BRANCH  18  23
HETATM   23  O   UNL     1      40.091 -15.534   2.609  1.00  0.00    -0.355 OA
HETATM   24  C   UNL     1      40.207 -14.689   3.751  1.00  0.00     0.210 C 
ENDBRANCH  18  23
ENDBRANCH  16  17
ENDBRANCH  15  16
ENDBRANCH  13  15
ENDBRANCH   1  13
TORSDOF 5
ENDMDL
MODEL 5
REMARK VINA RESULT:      -6.9      2.884      3.928
REMARK  5 active torsions:
REMARK  status: ('A' for Active; 'I' for Inactive)
REMARK    1  A    between atoms: O_2  and  C_3 
REMARK    2  A    between atoms: C_4  and  C_5 
REMARK    3  A    between atoms: C_5  and  N_6 
REMARK    4  A    between atoms: N_6  and  N_7 
REMARK    5  A    between atoms: N_7  and  C_8 
ROOT
HETATM    1  C   UNL     1      41.162 -15.179   1.641  1.00  0.00     0.169 C 
HETATM    2  S   UNL     1      42.113 -13.804   1.991  1.00  0.00    -0.009 SA
HETATM    3  C   UNL     1      42.090 -12.961   0.472  1.00  0.00     0.229 C 
HETATM    4  O   UNL     1      42.372 -11.772   0.432  1.00  0.00    -0.279 OA
HETATM    5  C   UNL     1      41.771 -13.692  -0.761  1.00  0.00     0.048 A 
HETATM    6  C   UNL     1      41.151 -14.943  -0.713  1.00  0.00     0.049 A 
HETATM    7  C   UNL     1      42.074 -13.092  -1.994  1.00  0.00     0.018 A 
HETATM    8  C   UNL     1      41.773 -13.749  -3.186  1.00  0.00     0.001 A 
HETATM    9  C   UNL     1      41.161 -14.997  -3.151  1.00  0.00     0.002 A 
HETATM   10  C   UNL     1      40.846 -15.584  -1.924  1.00  0.00     0.030 A 
HETATM   11  N   UNL     1      40.811 -15.577   0.437  1.00  0.00    -0.335 N 
HETATM   12  H   UNL     1      40.278 -16.442   0.414  1.00  0.00     0.168 HD
ENDROOT
BRANCH   1  13
HETATM   13  N   UNL     1      40.785 -15.917   2.678  1.00  0.00    -0.257 N 
HETATM   14  H   UNL     1      40.197 -15.411   3.343  1.00  0.00     0.191 HD
BRANCH  13  15
HETATM   15  N   UNL     1      41.128 -17.276   2.879  1.00  0.00    -0.184 NA
BRANCH  15  16
HETATM   16  C   UNL     1      42.322 -17.400   3.374  1.00  0.00     0.153 C 
BRANCH  16  17
HETATM   17  C   UNL     1      43.116 -18.629   3.191  1.00  0.00     0.016 A 
HETATM   18  C   UNL     1      44.042 -19.006   4.178  1.00  0.00     0.080 A 
HETATM   19  C   UNL     1      44.764 -20.190   4.002  1.00  0.00     0.037 A 
HETATM   20  C   UNL     1      44.570 -20.975   2.861  1.00  0.00     0.003 A 
HETATM   21  C   UNL     1      43.656 -20.587   1.883  1.00  0.00     0.001 A 
HETATM   22  C   UNL     1      42.927 -19.410   2.043  1.00  0.00     0.016 A 
BRANCH  18  23
HETATM   23  O   UNL     1      44.176 -18.162   5.249  1.00  0.00    -0.355 OA
HETATM   24  C   UNL     1      43.990 -18.723   6.545  1.00  0.00     0.210 C 
ENDBRANCH  18  23
ENDBRANCH  16  17
ENDBRANCH  15  16
ENDBRANCH  13  15
ENDBRANCH   1  13
TORSDOF 5
ENDMDL
MODEL 6
REMARK VINA RESULT:      -6.9      2.810      3.901
REMARK  5 active torsions:
REMARK  status: ('A' for Active; 'I' for Inactive)
REMARK    1  A    between atoms: O_2  and  C_3 
REMARK    2  A    between atoms: C_4  and  C_5 
REMARK    3  A    between atoms: C_5  and  N_6 
REMARK    4  A    between atoms: N_6  and  N_7 
REMARK    5  A    between atoms: N_7  and  C_8 
ROOT
HETATM    1  C   UNL     1      41.791 -16.039   0.340  1.00  0.00     0.169 C 
HETATM    2  S   UNL     1      40.881 -15.203   1.519  1.00  0.00    -0.009 SA
HETATM    3  C   UNL     1      39.659 -14.440   0.547  1.00  0.00     0.229 C 
HETATM    4  O   UNL     1      38.629 -14.039   1.069  1.00  0.00    -0.279 OA
HETATM    5  C   UNL     1      39.890 -14.245  -0.890  1.00  0.00     0.048 A 
HETATM    6  C   UNL     1      40.889 -14.955  -1.559  1.00  0.00     0.049 A 
HETATM    7  C   UNL     1      39.061 -13.351  -1.587  1.00  0.00     0.018 A 
HETATM    8  C   UNL     1      39.240 -13.150  -2.954  1.00  0.00     0.001 A 
HETATM    9  C   UNL     1      40.235 -13.847  -3.631  1.00  0.00     0.002 A 
HETATM   10  C   UNL     1      41.047 -14.748  -2.938  1.00  0.00     0.030 A 
HETATM   11  N   UNL     1      41.715 -15.849  -0.959  1.00  0.00    -0.335 N 
HETATM   12  H   UNL     1      42.363 -16.406  -1.509  1.00  0.00     0.168 HD
ENDROOT
BRANCH   1  13
HETATM   13  N   UNL     1      42.671 -16.925   0.792  1.00  0.00    -0.257 N 
HETATM   14  H   UNL     1      43.618 -16.771   0.441  1.00  0.00     0.191 HD
BRANCH  13  15
HETATM   15  N   UNL     1      42.375 -17.985   1.684  1.00  0.00    -0.184 NA
BRANCH  15  16
HETATM   16  C   UNL     1      43.376 -18.241   2.470  1.00  0.00     0.153 C 
BRANCH  16  17
HETATM   17  C   UNL     1      43.821 -19.622   2.736  1.00  0.00     0.016 A 
HETATM   18  C   UNL     1      44.442 -19.923   3.960  1.00  0.00     0.080 A 
HETATM   19  C   UNL     1      44.831 -21.243   4.206  1.00  0.00     0.037 A 
HETATM   20  C   UNL     1      44.611 -22.238   3.247  1.00  0.00     0.003 A 
HETATM   21  C   UNL     1      44.003 -21.926   2.033  1.00  0.00     0.001 A 
HETATM   22  C   UNL     1      43.608 -20.616   1.772  1.00  0.00     0.016 A 
BRANCH  18  23
HETATM   23  O   UNL     1      44.633 -18.879   4.825  1.00  0.00    -0.355 OA
HETATM   24  C   UNL     1      44.324 -19.108   6.197  1.00  0.00     0.210 C 
ENDBRANCH  18  23
ENDBRANCH  16  17
ENDBRANCH  15  16
ENDBRANCH  13  15
ENDBRANCH   1  13
TORSDOF 5
ENDMDL
MODEL 7
REMARK VINA RESULT:      -6.9      2.764      7.245
REMARK  5 active torsions:
REMARK  status: ('A' for Active; 'I' for Inactive)
REMARK    1  A    between atoms: O_2  and  C_3 
REMARK    2  A    between atoms: C_4  and  C_5 
REMARK    3  A    between atoms: C_5  and  N_6 
REMARK    4  A    between atoms: N_6  and  N_7 
REMARK    5  A    between atoms: N_7  and  C_8 
ROOT
HETATM    1  C   UNL     1      43.608 -18.100   2.209  1.00  0.00     0.169 C 
HETATM    2  S   UNL     1      43.562 -17.399   3.766  1.00  0.00    -0.009 SA
HETATM    3  C   UNL     1      44.347 -18.616   4.726  1.00  0.00     0.229 C 
HETATM    4  O   UNL     1      44.804 -18.325   5.822  1.00  0.00    -0.279 OA
HETATM    5  C   UNL     1      44.419 -19.997   4.232  1.00  0.00     0.048 A 
HETATM    6  C   UNL     1      44.196 -20.290   2.884  1.00  0.00     0.049 A 
HETATM    7  C   UNL     1      44.751 -21.018   5.139  1.00  0.00     0.018 A 
HETATM    8  C   UNL     1      44.843 -22.338   4.705  1.00  0.00     0.001 A 
HETATM    9  C   UNL     1      44.618 -22.643   3.367  1.00  0.00     0.002 A 
HETATM   10  C   UNL     1      44.304 -21.624   2.464  1.00  0.00     0.030 A 
HETATM   11  N   UNL     1      43.891 -19.358   1.947  1.00  0.00    -0.335 N 
HETATM   12  H   UNL     1      43.830 -19.612   0.965  1.00  0.00     0.168 HD
ENDROOT
BRANCH   1  13
HETATM   13  N   UNL     1      43.295 -17.305   1.193  1.00  0.00    -0.257 N 
HETATM   14  H   UNL     1      44.111 -16.908   0.722  1.00  0.00     0.191 HD
BRANCH  13  15
HETATM   15  N   UNL     1      41.978 -17.017   0.760  1.00  0.00    -0.184 NA
BRANCH  15  16
HETATM   16  C   UNL     1      41.845 -15.768   0.432  1.00  0.00     0.153 C 
BRANCH  16  17
HETATM   17  C   UNL     1      40.527 -15.108   0.401  1.00  0.00     0.016 A 
HETATM   18  C   UNL     1      40.137 -14.397  -0.747  1.00  0.00     0.080 A 
HETATM   19  C   UNL     1      38.872 -13.803  -0.769  1.00  0.00     0.037 A 
HETATM   20  C   UNL     1      38.020 -13.910   0.335  1.00  0.00     0.003 A 
HETATM   21  C   UNL     1      38.420 -14.609   1.472  1.00  0.00     0.001 A 
HETATM   22  C   UNL     1      39.677 -15.208   1.510  1.00  0.00     0.016 A 
BRANCH  18  23
HETATM   23  O   UNL     1      41.049 -14.331  -1.767  1.00  0.00    -0.355 OA
HETATM   24  C   UNL     1      40.712 -14.994  -2.983  1.00  0.00     0.210 C 
ENDBRANCH  18  23
ENDBRANCH  16  17
ENDBRANCH  15  16
ENDBRANCH  13  15
ENDBRANCH   1  13
TORSDOF 5
ENDMDL
MODEL 8
REMARK VINA RESULT:      -6.9      1.825      6.522
REMARK  5 active torsions:
REMARK  status: ('A' for Active; 'I' for Inactive)
REMARK    1  A    between atoms: O_2  and  C_3 
REMARK    2  A    between atoms: C_4  and  C_5 
REMARK    3  A    between atoms: C_5  and  N_6 
REMARK    4  A    between atoms: N_6  and  N_7 
REMARK    5  A    between atoms: N_7  and  C_8 
ROOT
HETATM    1  C   UNL     1      41.585 -17.013   4.986  1.00  0.00     0.169 C 
HETATM    2  S   UNL     1      42.384 -17.342   6.459  1.00  0.00    -0.009 SA
HETATM    3  C   UNL     1      43.774 -18.234   5.918  1.00  0.00     0.229 C 
HETATM    4  O   UNL     1      44.749 -18.342   6.646  1.00  0.00    -0.279 OA
HETATM    5  C   UNL     1      43.750 -18.887   4.602  1.00  0.00     0.048 A 
HETATM    6  C   UNL     1      42.804 -18.530   3.640  1.00  0.00     0.049 A 
HETATM    7  C   UNL     1      44.723 -19.861   4.320  1.00  0.00     0.018 A 
HETATM    8  C   UNL     1      44.742 -20.493   3.079  1.00  0.00     0.001 A 
HETATM    9  C   UNL     1      43.802 -20.149   2.114  1.00  0.00     0.002 A 
HETATM   10  C   UNL     1      42.846 -19.169   2.392  1.00  0.00     0.030 A 
HETATM   11  N   UNL     1      41.848 -17.587   3.831  1.00  0.00    -0.335 N 
HETATM   12  H   UNL     1      41.242 -17.299   3.067  1.00  0.00     0.168 HD
ENDROOT
BRANCH   1  13
HETATM   13  N   UNL     1      40.596 -16.129   5.035  1.00  0.00    -0.257 N 
HETATM   14  H   UNL     1      39.671 -16.559   5.099  1.00  0.00     0.191 HD
BRANCH  13  15
HETATM   15  N   UNL     1      40.759 -14.722   5.017  1.00  0.00    -0.184 NA
BRANCH  15  16
HETATM   16  C   UNL     1      41.029 -14.288   3.824  1.00  0.00     0.153 C 
BRANCH  16  17
HETATM   17  C   UNL     1      39.966 -13.881   2.886  1.00  0.00     0.016 A 
HETATM   18  C   UNL     1      39.514 -14.794   1.917  1.00  0.00     0.080 A 
HETATM   19  C   UNL     1      38.486 -14.401   1.055  1.00  0.00     0.037 A 
HETATM   20  C   UNL     1      37.927 -13.122   1.155  1.00  0.00     0.003 A 
HETATM   21  C   UNL     1      38.389 -12.222   2.114  1.00  0.00     0.001 A 
HETATM   22  C   UNL     1      39.413 -12.598   2.981  1.00  0.00     0.016 A 
BRANCH  18  23
HETATM   23  O   UNL     1      40.137 -16.013   1.883  1.00  0.00    -0.355 OA
HETATM   24  C   UNL     1      40.971 -16.285   0.760  1.00  0.00     0.210 C 
ENDBRANCH  18  23
ENDBRANCH  16  17
ENDBRANCH  15  16
ENDBRANCH  13  15
ENDBRANCH   1  13
TORSDOF 5
ENDMDL
MODEL 9
REMARK VINA RESULT:      -6.8      2.965      6.854
REMARK  5 active torsions:
REMARK  status: ('A' for Active; 'I' for Inactive)
REMARK    1  A    between atoms: O_2  and  C_3 
REMARK    2  A    between atoms: C_4  and  C_5 
REMARK    3  A    between atoms: C_5  and  N_6 
REMARK    4  A    between atoms: N_6  and  N_7 
REMARK    5  A    between atoms: N_7  and  C_8 
ROOT
HETATM    1  C   UNL     1      41.372 -17.335   2.223  1.00  0.00     0.169 C 
HETATM    2  S   UNL     1      41.380 -16.741   3.825  1.00  0.00    -0.009 SA
HETATM    3  C   UNL     1      42.825 -17.466   4.464  1.00  0.00     0.229 C 
HETATM    4  O   UNL     1      43.345 -17.002   5.468  1.00  0.00    -0.279 OA
HETATM    5  C   UNL     1      43.389 -18.656   3.815  1.00  0.00     0.048 A 
HETATM    6  C   UNL     1      43.014 -19.013   2.517  1.00  0.00     0.049 A 
HETATM    7  C   UNL     1      44.341 -19.415   4.516  1.00  0.00     0.018 A 
HETATM    8  C   UNL     1      44.909 -20.543   3.929  1.00  0.00     0.001 A 
HETATM    9  C   UNL     1      44.540 -20.911   2.640  1.00  0.00     0.002 A 
HETATM   10  C   UNL     1      43.605 -20.146   1.939  1.00  0.00     0.030 A 
HETATM   11  N   UNL     1      42.117 -18.321   1.771  1.00  0.00    -0.335 N 
HETATM   12  H   UNL     1      41.949 -18.569   0.800  1.00  0.00     0.168 HD
ENDROOT
BRANCH   1  13
HETATM   13  N   UNL     1      40.510 -16.768   1.387  1.00  0.00    -0.257 N 
HETATM   14  H   UNL     1      39.895 -17.439   0.923  1.00  0.00     0.191 HD
BRANCH  13  15
HETATM   15  N   UNL     1      40.407 -15.377   1.143  1.00  0.00    -0.184 NA
BRANCH  15  16
HETATM   16  C   UNL     1      41.481 -14.910   0.582  1.00  0.00     0.153 C 
BRANCH  16  17
HETATM   17  C   UNL     1      41.479 -14.411  -0.806  1.00  0.00     0.016 A 
HETATM   18  C   UNL     1      42.014 -13.142  -1.084  1.00  0.00     0.080 A 
HETATM   19  C   UNL     1      42.030 -12.698  -2.410  1.00  0.00     0.037 A 
HETATM   20  C   UNL     1      41.516 -13.502  -3.432  1.00  0.00     0.003 A 
HETATM   21  C   UNL     1      40.979 -14.755  -3.144  1.00  0.00     0.001 A 
HETATM   22  C   UNL     1      40.956 -15.213  -1.829  1.00  0.00     0.016 A 
BRANCH  18  23
HETATM   23  O   UNL     1      42.473 -12.421  -0.014  1.00  0.00    -0.355 OA
HETATM   24  C   UNL     1      41.944 -11.110   0.161  1.00  0.00     0.210 C 
ENDBRANCH  18  23
ENDBRANCH  16  17
ENDBRANCH  15  16
ENDBRANCH  13  15
ENDBRANCH   1  13
TORSDOF 5
ENDMDL
MODEL 10
REMARK VINA RESULT:      -6.8      4.673      7.899
REMARK  5 active torsions:
REMARK  status: ('A' for Active; 'I' for Inactive)
REMARK    1  A    between atoms: O_2  and  C_3 
REMARK    2  A    between atoms: C_4  and  C_5 
REMARK    3  A    between atoms: C_5  and  N_6 
REMARK    4  A    between atoms: N_6  and  N_7 
REMARK    5  A    between atoms: N_7  and  C_8 
ROOT
HETATM    1  C   UNL     1      43.523 -15.878   6.001  1.00  0.00     0.169 C 
HETATM    2  S   UNL     1      43.872 -17.382   6.732  1.00  0.00    -0.009 SA
HETATM    3  C   UNL     1      44.303 -18.352   5.356  1.00  0.00     0.229 C 
HETATM    4  O   UNL     1      44.941 -19.383   5.514  1.00  0.00    -0.279 OA
HETATM    5  C   UNL     1      43.863 -17.948   4.015  1.00  0.00     0.048 A 
HETATM    6  C   UNL     1      43.418 -16.647   3.766  1.00  0.00     0.049 A 
HETATM    7  C   UNL     1      43.929 -18.890   2.975  1.00  0.00     0.018 A 
HETATM    8  C   UNL     1      43.534 -18.540   1.686  1.00  0.00     0.001 A 
HETATM    9  C   UNL     1      43.084 -17.250   1.427  1.00  0.00     0.002 A 
HETATM   10  C   UNL     1      43.035 -16.311   2.460  1.00  0.00     0.030 A 
HETATM   11  N   UNL     1      43.345 -15.679   4.713  1.00  0.00    -0.335 N 
HETATM   12  H   UNL     1      43.102 -14.724   4.461  1.00  0.00     0.168 HD
ENDROOT
BRANCH   1  13
HETATM   13  N   UNL     1      43.388 -14.841   6.819  1.00  0.00    -0.257 N 
HETATM   14  H   UNL     1      42.517 -14.325   6.680  1.00  0.00     0.191 HD
BRANCH  13  15
HETATM   15  N   UNL     1      44.324 -14.458   7.811  1.00  0.00    -0.184 NA
BRANCH  15  16
HETATM   16  C   UNL     1      44.672 -13.213   7.683  1.00  0.00     0.153 C 
BRANCH  16  17
HETATM   17  C   UNL     1      44.576 -12.261   8.806  1.00  0.00     0.016 A 
HETATM   18  C   UNL     1      43.510 -11.347   8.846  1.00  0.00     0.080 A 
HETATM   19  C   UNL     1      43.420 -10.471   9.932  1.00  0.00     0.037 A 
HETATM   20  C   UNL     1      44.378 -10.505  10.951  1.00  0.00     0.003 A 
HETATM   21  C   UNL     1      45.437 -11.409  10.896  1.00  0.00     0.001 A 
HETATM   22  C   UNL     1      45.541 -12.289   9.821  1.00  0.00     0.016 A 
BRANCH  18  23
HETATM   23  O   UNL     1      42.636 -11.376   7.792  1.00  0.00    -0.355 OA
HETATM   24  C   UNL     1      41.427 -10.634   7.931  1.00  0.00     0.210 C 
ENDBRANCH  18  23
ENDBRANCH  16  17
ENDBRANCH  15  16
ENDBRANCH  13  15
ENDBRANCH   1  13
TORSDOF 5
ENDMDL
