MODEL 1
REMARK VINA RESULT:      -9.0      0.000      0.000
REMARK  6 active torsions:
REMARK  status: ('A' for Active; 'I' for Inactive)
REMARK    1  A    between atoms: C_4  and  C_5 
REMARK    2  A    between atoms: C_7  and  S_8 
REMARK    3  A    between atoms: S_8  and  C_9 
REMARK    4  A    between atoms: C_9  and  C_10 
REMARK       I    between atoms: C_10  and  N_11 
REMARK    5  A    between atoms: N_11  and  C_12 
REMARK    6  A    between atoms: C_26  and  C_27 
ROOT
HETATM    1  C   UNL     1      42.797 -18.501   2.764  1.00  0.00     0.076 A 
HETATM    2  N   UNL     1      43.087 -18.329   4.076  1.00  0.00    -0.239 NA
HETATM    3  C   UNL     1      43.783 -19.282   4.738  1.00  0.00     0.116 A 
HETATM    4  C   UNL     1      44.236 -20.445   4.114  1.00  0.00     0.095 A 
HETATM    5  C   UNL     1      44.945 -21.453   4.847  1.00  0.00     0.103 C 
HETATM    6  N   UNL     1      45.511 -22.289   5.416  1.00  0.00    -0.191 NA
HETATM    7  C   UNL     1      43.953 -20.618   2.749  1.00  0.00     0.073 A 
HETATM    8  C   UNL     1      43.222 -19.626   2.074  1.00  0.00     0.050 A 
ENDROOT
BRANCH   3   9
HETATM    9  S   UNL     1      43.967 -19.023   6.505  1.00  0.00    -0.100 SA
BRANCH   9  10
HETATM   10  C   UNL     1      44.827 -17.410   6.574  1.00  0.00     0.184 C 
BRANCH  10  11
HETATM   11  C   UNL     1      43.932 -16.183   6.732  1.00  0.00     0.231 C 
HETATM   12  N   UNL     1      42.933 -16.043   5.788  1.00  0.00    -0.326 N 
HETATM   13  H   UNL     1      42.893 -16.783   5.098  1.00  0.00     0.169 HD
HETATM   14  O   UNL     1      44.137 -15.408   7.665  1.00  0.00    -0.272 OA
BRANCH  12  15
HETATM   15  C   UNL     1      42.130 -14.914   5.539  1.00  0.00     0.037 A 
HETATM   16  C   UNL     1      42.611 -13.735   4.956  1.00  0.00     0.061 A 
HETATM   17  C   UNL     1      41.693 -12.739   4.711  1.00  0.00     0.065 A 
HETATM   18  C   UNL     1      40.342 -12.873   5.022  1.00  0.00     0.063 A 
HETATM   19  N   UNL     1      41.876 -11.485   4.140  1.00  0.00    -0.306 N 
HETATM   20  N   UNL     1      39.694 -11.706   4.638  1.00  0.00    -0.307 N 
HETATM   21  C   UNL     1      39.837 -14.007   5.606  1.00  0.00     0.034 A 
HETATM   22  C   UNL     1      40.639 -10.830   4.085  1.00  0.00     0.325 A 
HETATM   23  H   UNL     1      38.715 -11.491   4.723  1.00  0.00     0.170 HD
HETATM   24  O   UNL     1      40.423  -9.715   3.641  1.00  0.00    -0.247 OA
HETATM   25  C   UNL     1      40.753 -15.035   5.869  1.00  0.00     0.032 A 
HETATM   26  H   UNL     1      42.741 -11.089   3.809  1.00  0.00     0.170 HD
ENDBRANCH  12  15
ENDBRANCH  10  11
ENDBRANCH   9  10
ENDBRANCH   3   9
BRANCH   7  27
HETATM   27  C   UNL     1      44.382 -21.864   2.018  1.00  0.00     0.419 C 
HETATM   28  F   UNL     1      45.659 -21.789   1.565  1.00  0.00    -0.166 F 
HETATM   29  F   UNL     1      44.309 -22.968   2.807  1.00  0.00    -0.166 F 
HETATM   30  F   UNL     1      43.615 -22.136   0.927  1.00  0.00    -0.166 F 
ENDBRANCH   7  27
BRANCH   1  31
HETATM   31  C   UNL     1      41.975 -17.424   2.181  1.00  0.00     0.033 A 
HETATM   32  S   UNL     1      42.421 -16.630   0.719  1.00  0.00    -0.100 SA
HETATM   33  C   UNL     1      41.029 -15.643   0.727  1.00  0.00     0.050 A 
HETATM   34  C   UNL     1      40.228 -15.894   1.814  1.00  0.00     0.008 A 
HETATM   35  C   UNL     1      40.775 -16.911   2.651  1.00  0.00     0.021 A 
ENDBRANCH   1  31
TORSDOF 6
ENDMDL
MODEL 2
REMARK VINA RESULT:      -8.7      4.939      7.223
REMARK  6 active torsions:
REMARK  status: ('A' for Active; 'I' for Inactive)
REMARK    1  A    between atoms: C_4  and  C_5 
REMARK    2  A    between atoms: C_7  and  S_8 
REMARK    3  A    between atoms: S_8  and  C_9 
REMARK    4  A    between atoms: C_9  and  C_10 
REMARK       I    between atoms: C_10  and  N_11 
REMARK    5  A    between atoms: N_11  and  C_12 
REMARK    6  A    between atoms: C_26  and  C_27 
ROOT
HETATM    1  C   UNL     1      43.353 -18.599   3.471  1.00  0.00     0.076 A 
HETATM    2  N   UNL     1      42.392 -18.011   2.718  1.00  0.00    -0.239 NA
HETATM    3  C   UNL     1      41.901 -16.804   3.084  1.00  0.00     0.116 A 
HETATM    4  C   UNL     1      42.358 -16.123   4.212  1.00  0.00     0.095 A 
HETATM    5  C   UNL     1      41.797 -14.859   4.594  1.00  0.00     0.103 C 
HETATM    6  N   UNL     1      41.355 -13.842   4.933  1.00  0.00    -0.191 NA
HETATM    7  C   UNL     1      43.367 -16.721   4.985  1.00  0.00     0.073 A 
HETATM    8  C   UNL     1      43.863 -17.978   4.600  1.00  0.00     0.050 A 
ENDROOT
BRANCH   3   9
HETATM    9  S   UNL     1      40.522 -16.199   2.106  1.00  0.00    -0.100 SA
BRANCH   9  10
HETATM   10  C   UNL     1      41.215 -16.202   0.414  1.00  0.00     0.184 C 
BRANCH  10  11
HETATM   11  C   UNL     1      40.993 -14.929  -0.400  1.00  0.00     0.231 C 
HETATM   12  N   UNL     1      42.075 -14.494  -1.141  1.00  0.00    -0.326 N 
HETATM   13  H   UNL     1      42.898 -15.079  -1.075  1.00  0.00     0.169 HD
HETATM   14  O   UNL     1      39.895 -14.375  -0.358  1.00  0.00    -0.272 OA
BRANCH  12  15
HETATM   15  C   UNL     1      42.242 -13.250  -1.779  1.00  0.00     0.037 A 
HETATM   16  C   UNL     1      42.320 -13.095  -3.168  1.00  0.00     0.061 A 
HETATM   17  C   UNL     1      42.415 -11.809  -3.649  1.00  0.00     0.065 A 
HETATM   18  C   UNL     1      42.435 -10.696  -2.813  1.00  0.00     0.063 A 
HETATM   19  N   UNL     1      42.494 -11.358  -4.962  1.00  0.00    -0.306 N 
HETATM   20  N   UNL     1      42.521  -9.561  -3.609  1.00  0.00    -0.307 N 
HETATM   21  C   UNL     1      42.373 -10.809  -1.448  1.00  0.00     0.034 A 
HETATM   22  C   UNL     1      42.559  -9.958  -4.954  1.00  0.00     0.325 A 
HETATM   23  H   UNL     1      42.551  -8.601  -3.309  1.00  0.00     0.170 HD
HETATM   24  O   UNL     1      42.632  -9.226  -5.925  1.00  0.00    -0.247 OA
HETATM   25  C   UNL     1      42.281 -12.109  -0.931  1.00  0.00     0.032 A 
HETATM   26  H   UNL     1      42.504 -11.919  -5.798  1.00  0.00     0.170 HD
ENDBRANCH  12  15
ENDBRANCH  10  11
ENDBRANCH   9  10
ENDBRANCH   3   9
BRANCH   7  27
HETATM   27  C   UNL     1      43.885 -16.058   6.235  1.00  0.00     0.419 C 
HETATM   28  F   UNL     1      42.944 -15.978   7.210  1.00  0.00    -0.166 F 
HETATM   29  F   UNL     1      44.943 -16.725   6.764  1.00  0.00    -0.166 F 
HETATM   30  F   UNL     1      44.315 -14.784   6.026  1.00  0.00    -0.166 F 
ENDBRANCH   7  27
BRANCH   1  31
HETATM   31  C   UNL     1      43.751 -19.940   3.002  1.00  0.00     0.033 A 
HETATM   32  S   UNL     1      44.731 -20.983   3.960  1.00  0.00    -0.100 SA
HETATM   33  C   UNL     1      44.683 -22.235   2.802  1.00  0.00     0.050 A 
HETATM   34  C   UNL     1      43.944 -21.886   1.698  1.00  0.00     0.008 A 
HETATM   35  C   UNL     1      43.415 -20.567   1.811  1.00  0.00     0.021 A 
ENDBRANCH   1  31
TORSDOF 6
ENDMDL
MODEL 3
REMARK VINA RESULT:      -8.7      3.898      5.934
REMARK  6 active torsions:
REMARK  status: ('A' for Active; 'I' for Inactive)
REMARK    1  A    between atoms: C_4  and  C_5 
REMARK    2  A    between atoms: C_7  and  S_8 
REMARK    3  A    between atoms: S_8  and  C_9 
REMARK    4  A    between atoms: C_9  and  C_10 
REMARK       I    between atoms: C_10  and  N_11 
REMARK    5  A    between atoms: N_11  and  C_12 
REMARK    6  A    between atoms: C_26  and  C_27 
ROOT
HETATM    1  C   UNL     1      43.972 -18.036   5.014  1.00  0.00     0.076 A 
HETATM    2  N   UNL     1      43.768 -17.874   3.684  1.00  0.00    -0.239 NA
HETATM    3  C   UNL     1      43.876 -18.938   2.855  1.00  0.00     0.116 A 
HETATM    4  C   UNL     1      44.179 -20.219   3.319  1.00  0.00     0.095 A 
HETATM    5  C   UNL     1      44.318 -21.322   2.415  1.00  0.00     0.103 C 
HETATM    6  N   UNL     1      44.447 -22.231   1.706  1.00  0.00    -0.191 NA
HETATM    7  C   UNL     1      44.373 -20.395   4.699  1.00  0.00     0.073 A 
HETATM    8  C   UNL     1      44.268 -19.281   5.549  1.00  0.00     0.050 A 
ENDROOT
BRANCH   3   9
HETATM    9  S   UNL     1      43.744 -18.573   1.102  1.00  0.00    -0.100 SA
BRANCH   9  10
HETATM   10  C   UNL     1      43.061 -16.877   1.109  1.00  0.00     0.184 C 
BRANCH  10  11
HETATM   11  C   UNL     1      41.766 -16.677   0.325  1.00  0.00     0.231 C 
HETATM   12  N   UNL     1      41.854 -15.852  -0.780  1.00  0.00    -0.326 N 
HETATM   13  H   UNL     1      42.778 -15.480  -0.959  1.00  0.00     0.169 HD
HETATM   14  O   UNL     1      40.742 -17.245   0.704  1.00  0.00    -0.272 OA
BRANCH  12  15
HETATM   15  C   UNL     1      40.801 -15.300  -1.533  1.00  0.00     0.037 A 
HETATM   16  C   UNL     1      39.975 -14.269  -1.070  1.00  0.00     0.061 A 
HETATM   17  C   UNL     1      39.030 -13.784  -1.945  1.00  0.00     0.065 A 
HETATM   18  C   UNL     1      38.882 -14.280  -3.238  1.00  0.00     0.063 A 
HETATM   19  N   UNL     1      38.094 -12.770  -1.768  1.00  0.00    -0.306 N 
HETATM   20  N   UNL     1      37.861 -13.571  -3.857  1.00  0.00    -0.307 N 
HETATM   21  C   UNL     1      39.664 -15.298  -3.722  1.00  0.00     0.034 A 
HETATM   22  C   UNL     1      37.359 -12.624  -2.952  1.00  0.00     0.325 A 
HETATM   23  H   UNL     1      37.514 -13.685  -4.795  1.00  0.00     0.170 HD
HETATM   24  O   UNL     1      36.460 -11.828  -3.158  1.00  0.00    -0.247 OA
HETATM   25  C   UNL     1      40.631 -15.813  -2.848  1.00  0.00     0.032 A 
HETATM   26  H   UNL     1      37.949 -12.217  -0.940  1.00  0.00     0.170 HD
ENDBRANCH  12  15
ENDBRANCH  10  11
ENDBRANCH   9  10
ENDBRANCH   3   9
BRANCH   7  27
HETATM   27  C   UNL     1      44.737 -21.742   5.268  1.00  0.00     0.419 C 
HETATM   28  F   UNL     1      46.041 -22.058   5.066  1.00  0.00    -0.166 F 
HETATM   29  F   UNL     1      44.520 -21.805   6.607  1.00  0.00    -0.166 F 
HETATM   30  F   UNL     1      44.018 -22.763   4.726  1.00  0.00    -0.166 F 
ENDBRANCH   7  27
BRANCH   1  31
HETATM   31  C   UNL     1      43.894 -16.788   5.794  1.00  0.00     0.033 A 
HETATM   32  S   UNL     1      43.245 -15.338   5.126  1.00  0.00    -0.100 SA
HETATM   33  C   UNL     1      43.464 -14.468   6.577  1.00  0.00     0.050 A 
HETATM   34  C   UNL     1      44.022 -15.245   7.563  1.00  0.00     0.008 A 
HETATM   35  C   UNL     1      44.274 -16.573   7.111  1.00  0.00     0.021 A 
ENDBRANCH   1  31
TORSDOF 6
ENDMDL
MODEL 4
REMARK VINA RESULT:      -8.6      4.845      7.130
REMARK  6 active torsions:
REMARK  status: ('A' for Active; 'I' for Inactive)
REMARK    1  A    between atoms: C_4  and  C_5 
REMARK    2  A    between atoms: C_7  and  S_8 
REMARK    3  A    between atoms: S_8  and  C_9 
REMARK    4  A    between atoms: C_9  and  C_10 
REMARK       I    between atoms: C_10  and  N_11 
REMARK    5  A    between atoms: N_11  and  C_12 
REMARK    6  A    between atoms: C_26  and  C_27 
ROOT
HETATM    1  C   UNL     1      43.880 -18.991   4.108  1.00  0.00     0.076 A 
HETATM    2  N   UNL     1      43.773 -17.947   3.250  1.00  0.00    -0.239 NA
HETATM    3  C   UNL     1      43.459 -16.720   3.725  1.00  0.00     0.116 A 
HETATM    4  C   UNL     1      43.252 -16.475   5.082  1.00  0.00     0.095 A 
HETATM    5  C   UNL     1      42.891 -15.170   5.554  1.00  0.00     0.103 C 
HETATM    6  N   UNL     1      42.586 -14.128   5.963  1.00  0.00    -0.191 NA
HETATM    7  C   UNL     1      43.381 -17.550   5.977  1.00  0.00     0.073 A 
HETATM    8  C   UNL     1      43.698 -18.822   5.472  1.00  0.00     0.050 A 
ENDROOT
BRANCH   3   9
HETATM    9  S   UNL     1      43.187 -15.454   2.481  1.00  0.00    -0.100 SA
BRANCH   9  10
HETATM   10  C   UNL     1      43.058 -16.438   0.946  1.00  0.00     0.184 C 
BRANCH  10  11
HETATM   11  C   UNL     1      41.727 -16.345   0.203  1.00  0.00     0.231 C 
HETATM   12  N   UNL     1      41.681 -15.436  -0.836  1.00  0.00    -0.326 N 
HETATM   13  H   UNL     1      42.546 -14.936  -1.002  1.00  0.00     0.169 HD
HETATM   14  O   UNL     1      40.793 -17.066   0.554  1.00  0.00    -0.272 OA
BRANCH  12  15
HETATM   15  C   UNL     1      40.547 -14.966  -1.525  1.00  0.00     0.037 A 
HETATM   16  C   UNL     1      40.078 -15.527  -2.718  1.00  0.00     0.061 A 
HETATM   17  C   UNL     1      38.916 -15.005  -3.240  1.00  0.00     0.065 A 
HETATM   18  C   UNL     1      38.221 -13.966  -2.628  1.00  0.00     0.063 A 
HETATM   19  N   UNL     1      38.220 -15.365  -4.389  1.00  0.00    -0.306 N 
HETATM   20  N   UNL     1      37.096 -13.689  -3.395  1.00  0.00    -0.307 N 
HETATM   21  C   UNL     1      38.657 -13.383  -1.466  1.00  0.00     0.034 A 
HETATM   22  C   UNL     1      37.082 -14.556  -4.499  1.00  0.00     0.325 A 
HETATM   23  H   UNL     1      36.388 -12.996  -3.220  1.00  0.00     0.170 HD
HETATM   24  O   UNL     1      36.240 -14.596  -5.379  1.00  0.00    -0.247 OA
HETATM   25  C   UNL     1      39.840 -13.893  -0.916  1.00  0.00     0.032 A 
HETATM   26  H   UNL     1      38.468 -16.084  -5.049  1.00  0.00     0.170 HD
ENDBRANCH  12  15
ENDBRANCH  10  11
ENDBRANCH   9  10
ENDBRANCH   3   9
BRANCH   7  27
HETATM   27  C   UNL     1      43.138 -17.366   7.453  1.00  0.00     0.419 C 
HETATM   28  F   UNL     1      43.424 -18.482   8.171  1.00  0.00    -0.166 F 
HETATM   29  F   UNL     1      43.892 -16.362   7.972  1.00  0.00    -0.166 F 
HETATM   30  F   UNL     1      41.847 -17.053   7.749  1.00  0.00    -0.166 F 
ENDBRANCH   7  27
BRANCH   1  31
HETATM   31  C   UNL     1      44.157 -20.283   3.455  1.00  0.00     0.033 A 
HETATM   32  S   UNL     1      44.797 -21.623   4.328  1.00  0.00    -0.100 SA
HETATM   33  C   UNL     1      44.772 -22.640   2.958  1.00  0.00     0.050 A 
HETATM   34  C   UNL     1      44.292 -21.992   1.846  1.00  0.00     0.008 A 
HETATM   35  C   UNL     1      43.946 -20.639   2.130  1.00  0.00     0.021 A 
ENDBRANCH   1  31
TORSDOF 6
ENDMDL
MODEL 5
REMARK VINA RESULT:      -8.4      4.319      6.205
REMARK  6 active torsions:
REMARK  status: ('A' for Active; 'I' for Inactive)
REMARK    1  A    between atoms: C_4  and  C_5 
REMARK    2  A    between atoms: C_7  and  S_8 
REMARK    3  A    between atoms: S_8  and  C_9 
REMARK    4  A    between atoms: C_9  and  C_10 
REMARK       I    between atoms: C_10  and  N_11 
REMARK    5  A    between atoms: N_11  and  C_12 
REMARK    6  A    between atoms: C_26  and  C_27 
ROOT
HETATM    1  C   UNL     1      42.163 -16.055   5.448  1.00  0.00     0.076 A 
HETATM    2  N   UNL     1      42.326 -16.594   4.216  1.00  0.00    -0.239 NA
HETATM    3  C   UNL     1      43.025 -17.743   4.076  1.00  0.00     0.116 A 
HETATM    4  C   UNL     1      43.583 -18.416   5.163  1.00  0.00     0.095 A 
HETATM    5  C   UNL     1      44.346 -19.616   4.982  1.00  0.00     0.103 C 
HETATM    6  N   UNL     1      44.977 -20.582   4.864  1.00  0.00    -0.191 NA
HETATM    7  C   UNL     1      43.401 -17.870   6.444  1.00  0.00     0.073 A 
HETATM    8  C   UNL     1      42.681 -16.671   6.578  1.00  0.00     0.050 A 
ENDROOT
BRANCH   3   9
HETATM    9  S   UNL     1      43.312 -18.275   2.385  1.00  0.00    -0.100 SA
BRANCH   9  10
HETATM   10  C   UNL     1      43.132 -16.713   1.450  1.00  0.00     0.184 C 
BRANCH  10  11
HETATM   11  C   UNL     1      41.880 -16.595   0.583  1.00  0.00     0.231 C 
HETATM   12  N   UNL     1      41.985 -15.760  -0.511  1.00  0.00    -0.326 N 
HETATM   13  H   UNL     1      42.892 -15.325  -0.629  1.00  0.00     0.169 HD
HETATM   14  O   UNL     1      40.875 -17.234   0.893  1.00  0.00    -0.272 OA
BRANCH  12  15
HETATM   15  C   UNL     1      40.949 -15.274  -1.331  1.00  0.00     0.037 A 
HETATM   16  C   UNL     1      40.049 -14.279  -0.934  1.00  0.00     0.061 A 
HETATM   17  C   UNL     1      39.131 -13.857  -1.869  1.00  0.00     0.065 A 
HETATM   18  C   UNL     1      39.078 -14.382  -3.157  1.00  0.00     0.063 A 
HETATM   19  N   UNL     1      38.138 -12.889  -1.762  1.00  0.00    -0.306 N 
HETATM   20  N   UNL     1      38.059 -13.736  -3.844  1.00  0.00    -0.307 N 
HETATM   21  C   UNL     1      39.935 -15.368  -3.577  1.00  0.00     0.034 A 
HETATM   22  C   UNL     1      37.462 -12.800  -2.987  1.00  0.00     0.325 A 
HETATM   23  H   UNL     1      37.770 -13.884  -4.797  1.00  0.00     0.170 HD
HETATM   24  O   UNL     1      36.537 -12.054  -3.257  1.00  0.00    -0.247 OA
HETATM   25  C   UNL     1      40.877 -15.818  -2.643  1.00  0.00     0.032 A 
HETATM   26  H   UNL     1      37.920 -12.329  -0.955  1.00  0.00     0.170 HD
ENDBRANCH  12  15
ENDBRANCH  10  11
ENDBRANCH   9  10
ENDBRANCH   3   9
BRANCH   7  27
HETATM   27  C   UNL     1      44.003 -18.524   7.661  1.00  0.00     0.419 C 
HETATM   28  F   UNL     1      45.360 -18.541   7.625  1.00  0.00    -0.166 F 
HETATM   29  F   UNL     1      43.648 -17.890   8.809  1.00  0.00    -0.166 F 
HETATM   30  F   UNL     1      43.619 -19.820   7.818  1.00  0.00    -0.166 F 
ENDBRANCH   7  27
BRANCH   1  31
HETATM   31  C   UNL     1      41.443 -14.768   5.455  1.00  0.00     0.033 A 
HETATM   32  S   UNL     1      42.276 -13.261   5.427  1.00  0.00    -0.100 SA
HETATM   33  C   UNL     1      40.827 -12.360   5.408  1.00  0.00     0.050 A 
HETATM   34  C   UNL     1      39.718 -13.171   5.425  1.00  0.00     0.008 A 
HETATM   35  C   UNL     1      40.073 -14.551   5.459  1.00  0.00     0.021 A 
ENDBRANCH   1  31
TORSDOF 6
ENDMDL
MODEL 6
REMARK VINA RESULT:      -8.4      4.997      7.402
REMARK  6 active torsions:
REMARK  status: ('A' for Active; 'I' for Inactive)
REMARK    1  A    between atoms: C_4  and  C_5 
REMARK    2  A    between atoms: C_7  and  S_8 
REMARK    3  A    between atoms: S_8  and  C_9 
REMARK    4  A    between atoms: C_9  and  C_10 
REMARK       I    between atoms: C_10  and  N_11 
REMARK    5  A    between atoms: N_11  and  C_12 
REMARK    6  A    between atoms: C_26  and  C_27 
ROOT
HETATM    1  C   UNL     1      43.446 -18.707   3.531  1.00  0.00     0.076 A 
HETATM    2  N   UNL     1      42.507 -18.086   2.778  1.00  0.00    -0.239 NA
HETATM    3  C   UNL     1      42.027 -16.882   3.165  1.00  0.00     0.116 A 
HETATM    4  C   UNL     1      42.475 -16.235   4.317  1.00  0.00     0.095 A 
HETATM    5  C   UNL     1      41.927 -14.973   4.720  1.00  0.00     0.103 C 
HETATM    6  N   UNL     1      41.494 -13.958   5.077  1.00  0.00    -0.191 NA
HETATM    7  C   UNL     1      43.462 -16.867   5.091  1.00  0.00     0.073 A 
HETATM    8  C   UNL     1      43.946 -18.121   4.684  1.00  0.00     0.050 A 
ENDROOT
BRANCH   3   9
HETATM    9  S   UNL     1      40.674 -16.232   2.179  1.00  0.00    -0.100 SA
BRANCH   9  10
HETATM   10  C   UNL     1      41.455 -16.018   0.540  1.00  0.00     0.184 C 
BRANCH  10  11
HETATM   11  C   UNL     1      41.029 -14.780  -0.246  1.00  0.00     0.231 C 
HETATM   12  N   UNL     1      41.371 -14.772  -1.584  1.00  0.00    -0.326 N 
HETATM   13  H   UNL     1      41.857 -15.600  -1.904  1.00  0.00     0.169 HD
HETATM   14  O   UNL     1      40.418 -13.883   0.335  1.00  0.00    -0.272 OA
BRANCH  12  15
HETATM   15  C   UNL     1      41.329 -13.687  -2.480  1.00  0.00     0.037 A 
HETATM   16  C   UNL     1      40.162 -13.257  -3.122  1.00  0.00     0.061 A 
HETATM   17  C   UNL     1      40.262 -12.138  -3.918  1.00  0.00     0.065 A 
HETATM   18  C   UNL     1      41.459 -11.449  -4.094  1.00  0.00     0.063 A 
HETATM   19  N   UNL     1      39.282 -11.486  -4.658  1.00  0.00    -0.306 N 
HETATM   20  N   UNL     1      41.216 -10.371  -4.936  1.00  0.00    -0.307 N 
HETATM   21  C   UNL     1      42.625 -11.848  -3.492  1.00  0.00     0.034 A 
HETATM   22  C   UNL     1      39.861 -10.380  -5.297  1.00  0.00     0.325 A 
HETATM   23  H   UNL     1      41.874  -9.679  -5.253  1.00  0.00     0.170 HD
HETATM   24  O   UNL     1      39.297  -9.580  -6.022  1.00  0.00    -0.247 OA
HETATM   25  C   UNL     1      42.551 -12.988  -2.679  1.00  0.00     0.032 A 
HETATM   26  H   UNL     1      38.311 -11.740  -4.738  1.00  0.00     0.170 HD
ENDBRANCH  12  15
ENDBRANCH  10  11
ENDBRANCH   9  10
ENDBRANCH   3   9
BRANCH   7  27
HETATM   27  C   UNL     1      43.969 -16.243   6.365  1.00  0.00     0.419 C 
HETATM   28  F   UNL     1      44.435 -14.982   6.178  1.00  0.00    -0.166 F 
HETATM   29  F   UNL     1      43.001 -16.167   7.316  1.00  0.00    -0.166 F 
HETATM   30  F   UNL     1      44.992 -16.938   6.932  1.00  0.00    -0.166 F 
ENDBRANCH   7  27
BRANCH   1  31
HETATM   31  C   UNL     1      43.831 -20.042   3.037  1.00  0.00     0.033 A 
HETATM   32  S   UNL     1      44.721 -21.150   4.011  1.00  0.00    -0.100 SA
HETATM   33  C   UNL     1      44.706 -22.357   2.805  1.00  0.00     0.050 A 
HETATM   34  C   UNL     1      44.046 -21.945   1.673  1.00  0.00     0.008 A 
HETATM   35  C   UNL     1      43.550 -20.615   1.805  1.00  0.00     0.021 A 
ENDBRANCH   1  31
TORSDOF 6
ENDMDL
MODEL 7
REMARK VINA RESULT:      -8.4      4.432      7.839
REMARK  6 active torsions:
REMARK  status: ('A' for Active; 'I' for Inactive)
REMARK    1  A    between atoms: C_4  and  C_5 
REMARK    2  A    between atoms: C_7  and  S_8 
REMARK    3  A    between atoms: S_8  and  C_9 
REMARK    4  A    between atoms: C_9  and  C_10 
REMARK       I    between atoms: C_10  and  N_11 
REMARK    5  A    between atoms: N_11  and  C_12 
REMARK    6  A    between atoms: C_26  and  C_27 
ROOT
HETATM    1  C   UNL     1      42.115 -11.667  -0.012  1.00  0.00     0.076 A 
HETATM    2  N   UNL     1      41.836 -11.823   1.304  1.00  0.00    -0.239 NA
HETATM    3  C   UNL     1      41.282 -12.979   1.738  1.00  0.00     0.116 A 
HETATM    4  C   UNL     1      40.995 -14.039   0.878  1.00  0.00     0.095 A 
HETATM    5  C   UNL     1      40.379 -15.240   1.360  1.00  0.00     0.103 C 
HETATM    6  N   UNL     1      39.871 -16.219   1.720  1.00  0.00    -0.191 NA
HETATM    7  C   UNL     1      41.299 -13.888  -0.485  1.00  0.00     0.073 A 
HETATM    8  C   UNL     1      41.866 -12.680  -0.926  1.00  0.00     0.050 A 
ENDROOT
BRANCH   3   9
HETATM    9  S   UNL     1      40.809 -13.009   3.470  1.00  0.00    -0.100 SA
BRANCH   9  10
HETATM   10  C   UNL     1      42.378 -13.459   4.294  1.00  0.00     0.184 C 
BRANCH  10  11
HETATM   11  C   UNL     1      43.069 -14.717   3.772  1.00  0.00     0.231 C 
HETATM   12  N   UNL     1      42.460 -15.914   4.096  1.00  0.00    -0.326 N 
HETATM   13  H   UNL     1      41.608 -15.825   4.635  1.00  0.00     0.169 HD
HETATM   14  O   UNL     1      44.099 -14.603   3.107  1.00  0.00    -0.272 OA
BRANCH  12  15
HETATM   15  C   UNL     1      42.986 -17.214   3.967  1.00  0.00     0.037 A 
HETATM   16  C   UNL     1      42.746 -18.040   2.863  1.00  0.00     0.061 A 
HETATM   17  C   UNL     1      43.384 -19.260   2.845  1.00  0.00     0.065 A 
HETATM   18  C   UNL     1      44.232 -19.676   3.868  1.00  0.00     0.063 A 
HETATM   19  N   UNL     1      43.344 -20.267   1.887  1.00  0.00    -0.306 N 
HETATM   20  N   UNL     1      44.719 -20.935   3.538  1.00  0.00    -0.307 N 
HETATM   21  C   UNL     1      44.481 -18.899   4.970  1.00  0.00     0.034 A 
HETATM   22  C   UNL     1      44.174 -21.317   2.303  1.00  0.00     0.325 A 
HETATM   23  H   UNL     1      45.358 -21.504   4.067  1.00  0.00     0.170 HD
HETATM   24  O   UNL     1      44.383 -22.360   1.709  1.00  0.00    -0.247 OA
HETATM   25  C   UNL     1      43.840 -17.654   5.015  1.00  0.00     0.032 A 
HETATM   26  H   UNL     1      42.819 -20.268   1.029  1.00  0.00     0.170 HD
ENDBRANCH  12  15
ENDBRANCH  10  11
ENDBRANCH   9  10
ENDBRANCH   3   9
BRANCH   7  27
HETATM   27  C   UNL     1      40.986 -14.977  -1.477  1.00  0.00     0.419 C 
HETATM   28  F   UNL     1      39.657 -15.082  -1.733  1.00  0.00    -0.166 F 
HETATM   29  F   UNL     1      41.600 -14.772  -2.671  1.00  0.00    -0.166 F 
HETATM   30  F   UNL     1      41.383 -16.211  -1.061  1.00  0.00    -0.166 F 
ENDBRANCH   7  27
BRANCH   1  31
HETATM   31  C   UNL     1      42.650 -10.338  -0.363  1.00  0.00     0.033 A 
HETATM   32  S   UNL     1      41.971  -8.889   0.273  1.00  0.00    -0.100 SA
HETATM   33  C   UNL     1      43.108  -7.901  -0.528  1.00  0.00     0.050 A 
HETATM   34  C   UNL     1      43.994  -8.638  -1.274  1.00  0.00     0.008 A 
HETATM   35  C   UNL     1      43.727 -10.036  -1.184  1.00  0.00     0.021 A 
ENDBRANCH   1  31
TORSDOF 6
ENDMDL
MODEL 8
REMARK VINA RESULT:      -8.3      4.695      7.296
REMARK  6 active torsions:
REMARK  status: ('A' for Active; 'I' for Inactive)
REMARK    1  A    between atoms: C_4  and  C_5 
REMARK    2  A    between atoms: C_7  and  S_8 
REMARK    3  A    between atoms: S_8  and  C_9 
REMARK    4  A    between atoms: C_9  and  C_10 
REMARK       I    between atoms: C_10  and  N_11 
REMARK    5  A    between atoms: N_11  and  C_12 
REMARK    6  A    between atoms: C_26  and  C_27 
ROOT
HETATM    1  C   UNL     1      44.380 -14.216   6.975  1.00  0.00     0.076 A 
HETATM    2  N   UNL     1      43.345 -13.772   6.222  1.00  0.00    -0.239 NA
HETATM    3  C   UNL     1      42.655 -14.643   5.451  1.00  0.00     0.116 A 
HETATM    4  C   UNL     1      42.958 -16.004   5.408  1.00  0.00     0.095 A 
HETATM    5  C   UNL     1      42.230 -16.901   4.558  1.00  0.00     0.103 C 
HETATM    6  N   UNL     1      41.666 -17.646   3.872  1.00  0.00    -0.191 NA
HETATM    7  C   UNL     1      44.019 -16.473   6.201  1.00  0.00     0.073 A 
HETATM    8  C   UNL     1      44.734 -15.557   6.991  1.00  0.00     0.050 A 
ENDROOT
BRANCH   3   9
HETATM    9  S   UNL     1      41.414 -13.915   4.377  1.00  0.00    -0.100 SA
BRANCH   9  10
HETATM   10  C   UNL     1      42.415 -13.347   2.956  1.00  0.00     0.184 C 
BRANCH  10  11
HETATM   11  C   UNL     1      42.134 -14.038   1.624  1.00  0.00     0.231 C 
HETATM   12  N   UNL     1      41.534 -13.256   0.656  1.00  0.00    -0.326 N 
HETATM   13  H   UNL     1      41.358 -12.298   0.933  1.00  0.00     0.169 HD
HETATM   14  O   UNL     1      42.451 -15.220   1.483  1.00  0.00    -0.272 OA
BRANCH  12  15
HETATM   15  C   UNL     1      40.947 -13.675  -0.553  1.00  0.00     0.037 A 
HETATM   16  C   UNL     1      39.592 -13.998  -0.685  1.00  0.00     0.061 A 
HETATM   17  C   UNL     1      39.147 -14.325  -1.946  1.00  0.00     0.065 A 
HETATM   18  C   UNL     1      39.989 -14.343  -3.055  1.00  0.00     0.063 A 
HETATM   19  N   UNL     1      37.870 -14.672  -2.374  1.00  0.00    -0.306 N 
HETATM   20  N   UNL     1      39.231 -14.696  -4.165  1.00  0.00    -0.307 N 
HETATM   21  C   UNL     1      41.324 -14.046  -2.962  1.00  0.00     0.034 A 
HETATM   22  C   UNL     1      37.905 -14.904  -3.755  1.00  0.00     0.325 A 
HETATM   23  H   UNL     1      39.543 -14.792  -5.117  1.00  0.00     0.170 HD
HETATM   24  O   UNL     1      36.967 -15.223  -4.465  1.00  0.00    -0.247 OA
HETATM   25  C   UNL     1      41.803 -13.713  -1.688  1.00  0.00     0.032 A 
HETATM   26  H   UNL     1      37.041 -14.749  -1.809  1.00  0.00     0.170 HD
ENDBRANCH  12  15
ENDBRANCH  10  11
ENDBRANCH   9  10
ENDBRANCH   3   9
BRANCH   7  27
HETATM   27  C   UNL     1      44.424 -17.924   6.179  1.00  0.00     0.419 C 
HETATM   28  F   UNL     1      44.727 -18.362   4.931  1.00  0.00    -0.166 F 
HETATM   29  F   UNL     1      45.515 -18.160   6.954  1.00  0.00    -0.166 F 
HETATM   30  F   UNL     1      43.453 -18.758   6.641  1.00  0.00    -0.166 F 
ENDBRANCH   7  27
BRANCH   1  31
HETATM   31  C   UNL     1      45.090 -13.156   7.713  1.00  0.00     0.033 A 
HETATM   32  S   UNL     1      44.363 -12.326   9.036  1.00  0.00    -0.100 SA
HETATM   33  C   UNL     1      45.755 -11.381   9.321  1.00  0.00     0.050 A 
HETATM   34  C   UNL     1      46.764 -11.672   8.436  1.00  0.00     0.008 A 
HETATM   35  C   UNL     1      46.380 -12.685   7.510  1.00  0.00     0.021 A 
ENDBRANCH   1  31
TORSDOF 6
ENDMDL
MODEL 9
REMARK VINA RESULT:      -8.2      4.941      8.893
REMARK  6 active torsions:
REMARK  status: ('A' for Active; 'I' for Inactive)
REMARK    1  A    between atoms: C_4  and  C_5 
REMARK    2  A    between atoms: C_7  and  S_8 
REMARK    3  A    between atoms: S_8  and  C_9 
REMARK    4  A    between atoms: C_9  and  C_10 
REMARK       I    between atoms: C_10  and  N_11 
REMARK    5  A    between atoms: N_11  and  C_12 
REMARK    6  A    between atoms: C_26  and  C_27 
ROOT
HETATM    1  C   UNL     1      41.273 -14.412   5.310  1.00  0.00     0.076 A 
HETATM    2  N   UNL     1      40.697 -14.864   4.170  1.00  0.00    -0.239 NA
HETATM    3  C   UNL     1      39.945 -14.025   3.421  1.00  0.00     0.116 A 
HETATM    4  C   UNL     1      39.745 -12.689   3.770  1.00  0.00     0.095 A 
HETATM    5  C   UNL     1      38.918 -11.830   2.975  1.00  0.00     0.103 C 
HETATM    6  N   UNL     1      38.245 -11.115   2.357  1.00  0.00    -0.191 NA
HETATM    7  C   UNL     1      40.355 -12.212   4.942  1.00  0.00     0.073 A 
HETATM    8  C   UNL     1      41.126 -13.094   5.717  1.00  0.00     0.050 A 
ENDROOT
BRANCH   3   9
HETATM    9  S   UNL     1      39.104 -14.775   2.024  1.00  0.00    -0.100 SA
BRANCH   9  10
HETATM   10  C   UNL     1      40.409 -14.785   0.744  1.00  0.00     0.184 C 
BRANCH  10  11
HETATM   11  C   UNL     1      41.354 -15.984   0.763  1.00  0.00     0.231 C 
HETATM   12  N   UNL     1      41.240 -16.820   1.857  1.00  0.00    -0.326 N 
HETATM   13  H   UNL     1      40.527 -16.552   2.525  1.00  0.00     0.169 HD
HETATM   14  O   UNL     1      42.141 -16.142  -0.170  1.00  0.00    -0.272 OA
BRANCH  12  15
HETATM   15  C   UNL     1      42.122 -17.841   2.261  1.00  0.00     0.037 A 
HETATM   16  C   UNL     1      42.137 -19.121   1.695  1.00  0.00     0.061 A 
HETATM   17  C   UNL     1      43.102 -19.992   2.145  1.00  0.00     0.065 A 
HETATM   18  C   UNL     1      44.032 -19.641   3.120  1.00  0.00     0.063 A 
HETATM   19  N   UNL     1      43.360 -21.304   1.762  1.00  0.00    -0.306 N 
HETATM   20  N   UNL     1      44.865 -20.732   3.333  1.00  0.00    -0.307 N 
HETATM   21  C   UNL     1      44.040 -18.401   3.706  1.00  0.00     0.034 A 
HETATM   22  C   UNL     1      44.459 -21.778   2.492  1.00  0.00     0.325 A 
HETATM   23  H   UNL     1      45.641 -20.797   3.971  1.00  0.00     0.170 HD
HETATM   24  O   UNL     1      44.965 -22.884   2.412  1.00  0.00    -0.247 OA
HETATM   25  C   UNL     1      43.064 -17.496   3.268  1.00  0.00     0.032 A 
HETATM   26  H   UNL     1      42.861 -21.846   1.076  1.00  0.00     0.170 HD
ENDBRANCH  12  15
ENDBRANCH  10  11
ENDBRANCH   9  10
ENDBRANCH   3   9
BRANCH   7  27
HETATM   27  C   UNL     1      40.155 -10.789   5.399  1.00  0.00     0.419 C 
HETATM   28  F   UNL     1      38.843 -10.454   5.498  1.00  0.00    -0.166 F 
HETATM   29  F   UNL     1      40.711 -10.562   6.617  1.00  0.00    -0.166 F 
HETATM   30  F   UNL     1      40.711  -9.874   4.559  1.00  0.00    -0.166 F 
ENDBRANCH   7  27
BRANCH   1  31
HETATM   31  C   UNL     1      42.006 -15.443   6.067  1.00  0.00     0.033 A 
HETATM   32  S   UNL     1      43.670 -15.261   6.475  1.00  0.00    -0.100 SA
HETATM   33  C   UNL     1      43.718 -16.746   7.312  1.00  0.00     0.050 A 
HETATM   34  C   UNL     1      42.504 -17.388   7.291  1.00  0.00     0.008 A 
HETATM   35  C   UNL     1      41.524 -16.643   6.572  1.00  0.00     0.021 A 
ENDBRANCH   1  31
TORSDOF 6
ENDMDL
MODEL 10
REMARK VINA RESULT:      -8.2      3.728      7.100
REMARK  6 active torsions:
REMARK  status: ('A' for Active; 'I' for Inactive)
REMARK    1  A    between atoms: C_4  and  C_5 
REMARK    2  A    between atoms: C_7  and  S_8 
REMARK    3  A    between atoms: S_8  and  C_9 
REMARK    4  A    between atoms: C_9  and  C_10 
REMARK       I    between atoms: C_10  and  N_11 
REMARK    5  A    between atoms: N_11  and  C_12 
REMARK    6  A    between atoms: C_26  and  C_27 
ROOT
HETATM    1  C   UNL     1      41.935 -16.168   0.548  1.00  0.00     0.076 A 
HETATM    2  N   UNL     1      42.001 -15.011   1.249  1.00  0.00    -0.239 NA
HETATM    3  C   UNL     1      41.503 -13.873   0.712  1.00  0.00     0.116 A 
HETATM    4  C   UNL     1      40.902 -13.843  -0.547  1.00  0.00     0.095 A 
HETATM    5  C   UNL     1      40.410 -12.617  -1.105  1.00  0.00     0.103 C 
HETATM    6  N   UNL     1      40.014 -11.639  -1.586  1.00  0.00    -0.191 NA
HETATM    7  C   UNL     1      40.815 -15.044  -1.269  1.00  0.00     0.073 A 
HETATM    8  C   UNL     1      41.343 -16.218  -0.706  1.00  0.00     0.050 A 
ENDROOT
BRANCH   3   9
HETATM    9  S   UNL     1      41.791 -12.376   1.660  1.00  0.00    -0.100 SA
BRANCH   9  10
HETATM   10  C   UNL     1      40.521 -12.495   2.970  1.00  0.00     0.184 C 
BRANCH  10  11
HETATM   11  C   UNL     1      40.875 -13.378   4.165  1.00  0.00     0.231 C 
HETATM   12  N   UNL     1      42.135 -13.944   4.140  1.00  0.00    -0.326 N 
HETATM   13  H   UNL     1      42.696 -13.698   3.334  1.00  0.00     0.169 HD
HETATM   14  O   UNL     1      40.047 -13.531   5.063  1.00  0.00    -0.272 OA
BRANCH  12  15
HETATM   15  C   UNL     1      42.637 -14.972   4.961  1.00  0.00     0.037 A 
HETATM   16  C   UNL     1      42.309 -16.323   4.797  1.00  0.00     0.061 A 
HETATM   17  C   UNL     1      42.932 -17.222   5.633  1.00  0.00     0.065 A 
HETATM   18  C   UNL     1      43.848 -16.831   6.605  1.00  0.00     0.063 A 
HETATM   19  N   UNL     1      42.813 -18.607   5.692  1.00  0.00    -0.306 N 
HETATM   20  N   UNL     1      44.297 -17.972   7.258  1.00  0.00    -0.307 N 
HETATM   21  C   UNL     1      44.184 -15.516   6.803  1.00  0.00     0.034 A 
HETATM   22  C   UNL     1      43.660 -19.089   6.699  1.00  0.00     0.325 A 
HETATM   23  H   UNL     1      44.967 -18.028   8.007  1.00  0.00     0.170 HD
HETATM   24  O   UNL     1      43.816 -20.253   7.025  1.00  0.00    -0.247 OA
HETATM   25  C   UNL     1      43.560 -14.579   5.968  1.00  0.00     0.032 A 
HETATM   26  H   UNL     1      42.227 -19.191   5.118  1.00  0.00     0.170 HD
ENDBRANCH  12  15
ENDBRANCH  10  11
ENDBRANCH   9  10
ENDBRANCH   3   9
BRANCH   7  27
HETATM   27  C   UNL     1      40.209 -15.080  -2.649  1.00  0.00     0.419 C 
HETATM   28  F   UNL     1      40.866 -14.279  -3.527  1.00  0.00    -0.166 F 
HETATM   29  F   UNL     1      40.218 -16.332  -3.177  1.00  0.00    -0.166 F 
HETATM   30  F   UNL     1      38.911 -14.674  -2.674  1.00  0.00    -0.166 F 
ENDBRANCH   7  27
BRANCH   1  31
HETATM   31  C   UNL     1      42.575 -17.316   1.216  1.00  0.00     0.033 A 
HETATM   32  S   UNL     1      44.262 -17.342   1.562  1.00  0.00    -0.100 SA
HETATM   33  C   UNL     1      44.174 -18.871   2.314  1.00  0.00     0.050 A 
HETATM   34  C   UNL     1      42.895 -19.373   2.310  1.00  0.00     0.008 A 
HETATM   35  C   UNL     1      41.980 -18.484   1.674  1.00  0.00     0.021 A 
ENDBRANCH   1  31
TORSDOF 6
ENDMDL
