MODEL 1
REMARK VINA RESULT:      -8.6      0.000      0.000
REMARK  7 active torsions:
REMARK  status: ('A' for Active; 'I' for Inactive)
REMARK    1  A    between atoms: C_3  and  N_4 
REMARK       I    between atoms: N_4  and  C_5 
REMARK    2  A    between atoms: C_5  and  C_6 
REMARK    3  A    between atoms: C_7  and  C_8 
REMARK    4  A    between atoms: C_19  and  C_20 
REMARK    5  A    between atoms: C_20  and  C_21 
REMARK    6  A    between atoms: C_21  and  C_22 
REMARK    7  A    between atoms: C_22  and  O_23 
ROOT
HETATM    1  C   UNL     1      41.544 -15.768   3.173  1.00  0.00     0.062 C 
HETATM    2  C   UNL     1      41.050 -15.444   4.588  1.00  0.00     0.202 C 
HETATM    3  N   UNL     1      40.589 -14.052   4.674  1.00  0.00    -0.083 N 
HETATM    4  C   UNL     1      40.867 -13.100   3.732  1.00  0.00     0.726 A 
HETATM    5  N   UNL     1      41.490 -13.461   2.596  1.00  0.00    -0.192 N 
HETATM    6  N   UNL     1      39.939 -13.524   5.732  1.00  0.00    -0.140 NA
HETATM    7  C   UNL     1      39.914 -12.228   5.389  1.00  0.00     0.166 A 
HETATM    8  N   UNL     1      40.470 -11.930   4.162  1.00  0.00    -0.046 NA
HETATM    9  C   UNL     1      41.798 -14.778   2.276  1.00  0.00     0.037 C 
HETATM   10  C   UNL     1      42.453 -14.974   0.931  1.00  0.00     0.070 C 
HETATM   11  H   UNL     1      41.688 -12.744   1.902  1.00  0.00     0.184 HD
ENDROOT
BRANCH   1  12
HETATM   12  C   UNL     1      41.735 -17.228   2.904  1.00  0.00     0.256 C 
HETATM   13  N   UNL     1      43.036 -17.656   3.031  1.00  0.00    -0.323 N 
HETATM   14  H   UNL     1      43.745 -16.937   2.984  1.00  0.00     0.169 HD
HETATM   15  O   UNL     1      40.804 -17.890   2.468  1.00  0.00    -0.267 OA
BRANCH  13  16
HETATM   16  C   UNL     1      43.524 -18.984   3.058  1.00  0.00     0.041 A 
HETATM   17  C   UNL     1      44.316 -19.562   4.070  1.00  0.00    -0.035 A 
HETATM   18  C   UNL     1      44.830 -18.841   5.286  1.00  0.00     0.050 C 
HETATM   19  C   UNL     1      44.707 -20.912   3.938  1.00  0.00     0.009 A 
HETATM   20  C   UNL     1      44.378 -21.659   2.808  1.00  0.00     0.001 A 
HETATM   21  C   UNL     1      43.649 -21.070   1.787  1.00  0.00     0.002 A 
HETATM   22  C   UNL     1      43.230 -19.745   1.911  1.00  0.00     0.030 A 
ENDBRANCH  13  16
ENDBRANCH   1  12
BRANCH   2  23
HETATM   23  C   UNL     1      42.104 -15.673   5.673  1.00  0.00    -0.025 A 
HETATM   24  C   UNL     1      43.250 -14.864   5.770  1.00  0.00     0.052 A 
HETATM   25  C   UNL     1      44.184 -15.093   6.776  1.00  0.00     0.117 A 
HETATM   26  F   UNL     1      45.270 -14.313   6.852  1.00  0.00    -0.206 F 
HETATM   27  C   UNL     1      44.009 -16.114   7.700  1.00  0.00     0.042 A 
HETATM   28  C   UNL     1      42.876 -16.922   7.620  1.00  0.00     0.004 A 
HETATM   29  C   UNL     1      41.930 -16.703   6.616  1.00  0.00     0.010 A 
ENDBRANCH   2  23
BRANCH   7  30
HETATM   30  C   UNL     1      39.448 -11.157   6.303  1.00  0.00     0.085 C 
BRANCH  30  31
HETATM   31  C   UNL     1      40.170 -11.175   7.654  1.00  0.00     0.034 C 
BRANCH  31  32
HETATM   32  C   UNL     1      39.280 -11.496   8.854  1.00  0.00     0.164 C 
BRANCH  32  33
HETATM   33  O   UNL     1      38.772 -12.820   8.782  1.00  0.00    -0.401 OA
HETATM   34  H   UNL     1      39.316 -13.358   9.393  1.00  0.00     0.209 HD
ENDBRANCH  32  33
ENDBRANCH  31  32
ENDBRANCH  30  31
ENDBRANCH   7  30
TORSDOF 7
ENDMDL
MODEL 2
REMARK VINA RESULT:      -8.3      3.085      6.330
REMARK  7 active torsions:
REMARK  status: ('A' for Active; 'I' for Inactive)
REMARK    1  A    between atoms: C_3  and  N_4 
REMARK       I    between atoms: N_4  and  C_5 
REMARK    2  A    between atoms: C_5  and  C_6 
REMARK    3  A    between atoms: C_7  and  C_8 
REMARK    4  A    between atoms: C_19  and  C_20 
REMARK    5  A    between atoms: C_20  and  C_21 
REMARK    6  A    between atoms: C_21  and  C_22 
REMARK    7  A    between atoms: C_22  and  O_23 
ROOT
HETATM    1  C   UNL     1      40.995 -14.882   2.999  1.00  0.00     0.062 C 
HETATM    2  C   UNL     1      41.290 -16.240   3.648  1.00  0.00     0.202 C 
HETATM    3  N   UNL     1      41.835 -16.064   5.001  1.00  0.00    -0.083 N 
HETATM    4  C   UNL     1      42.317 -14.877   5.478  1.00  0.00     0.726 A 
HETATM    5  N   UNL     1      42.181 -13.765   4.733  1.00  0.00    -0.192 N 
HETATM    6  N   UNL     1      42.027 -17.066   5.885  1.00  0.00    -0.140 NA
HETATM    7  C   UNL     1      42.692 -16.419   6.853  1.00  0.00     0.166 A 
HETATM    8  N   UNL     1      42.882 -15.070   6.642  1.00  0.00    -0.046 NA
HETATM    9  C   UNL     1      41.496 -13.732   3.523  1.00  0.00     0.037 C 
HETATM   10  C   UNL     1      41.419 -12.374   2.869  1.00  0.00     0.070 C 
HETATM   11  H   UNL     1      42.540 -12.887   5.101  1.00  0.00     0.184 HD
ENDROOT
BRANCH   1  12
HETATM   12  C   UNL     1      40.155 -14.957   1.764  1.00  0.00     0.256 C 
HETATM   13  N   UNL     1      40.770 -14.466   0.636  1.00  0.00    -0.323 N 
HETATM   14  H   UNL     1      41.556 -13.850   0.794  1.00  0.00     0.169 HD
HETATM   15  O   UNL     1      38.982 -15.294   1.848  1.00  0.00    -0.267 OA
BRANCH  13  16
HETATM   16  C   UNL     1      40.352 -14.580  -0.712  1.00  0.00     0.041 A 
HETATM   17  C   UNL     1      39.303 -13.866  -1.324  1.00  0.00    -0.035 A 
HETATM   18  C   UNL     1      38.399 -12.886  -0.627  1.00  0.00     0.050 C 
HETATM   19  C   UNL     1      39.028 -14.100  -2.688  1.00  0.00     0.009 A 
HETATM   20  C   UNL     1      39.730 -15.057  -3.419  1.00  0.00     0.001 A 
HETATM   21  C   UNL     1      40.722 -15.800  -2.799  1.00  0.00     0.002 A 
HETATM   22  C   UNL     1      41.026 -15.565  -1.457  1.00  0.00     0.030 A 
ENDBRANCH  13  16
ENDBRANCH   1  12
BRANCH   2  23
HETATM   23  C   UNL     1      42.261 -17.106   2.843  1.00  0.00    -0.025 A 
HETATM   24  C   UNL     1      42.063 -18.490   2.691  1.00  0.00     0.052 A 
HETATM   25  C   UNL     1      42.960 -19.246   1.942  1.00  0.00     0.117 A 
HETATM   26  F   UNL     1      42.755 -20.562   1.808  1.00  0.00    -0.206 F 
HETATM   27  C   UNL     1      44.061 -18.658   1.333  1.00  0.00     0.042 A 
HETATM   28  C   UNL     1      44.269 -17.288   1.471  1.00  0.00     0.004 A 
HETATM   29  C   UNL     1      43.376 -16.516   2.219  1.00  0.00     0.010 A 
ENDBRANCH   2  23
BRANCH   7  30
HETATM   30  C   UNL     1      43.303 -17.109   8.016  1.00  0.00     0.085 C 
BRANCH  30  31
HETATM   31  C   UNL     1      44.126 -18.336   7.611  1.00  0.00     0.034 C 
BRANCH  31  32
HETATM   32  C   UNL     1      45.209 -18.068   6.567  1.00  0.00     0.164 C 
BRANCH  32  33
HETATM   33  O   UNL     1      44.790 -18.471   5.271  1.00  0.00    -0.401 OA
HETATM   34  H   UNL     1      44.084 -17.848   5.002  1.00  0.00     0.209 HD
ENDBRANCH  32  33
ENDBRANCH  31  32
ENDBRANCH  30  31
ENDBRANCH   7  30
TORSDOF 7
ENDMDL
MODEL 3
REMARK VINA RESULT:      -8.1      2.689      7.804
REMARK  7 active torsions:
REMARK  status: ('A' for Active; 'I' for Inactive)
REMARK    1  A    between atoms: C_3  and  N_4 
REMARK       I    between atoms: N_4  and  C_5 
REMARK    2  A    between atoms: C_5  and  C_6 
REMARK    3  A    between atoms: C_7  and  C_8 
REMARK    4  A    between atoms: C_19  and  C_20 
REMARK    5  A    between atoms: C_20  and  C_21 
REMARK    6  A    between atoms: C_21  and  C_22 
REMARK    7  A    between atoms: C_22  and  O_23 
ROOT
HETATM    1  C   UNL     1      42.649 -15.406   5.761  1.00  0.00     0.062 C 
HETATM    2  C   UNL     1      42.226 -16.771   5.206  1.00  0.00     0.202 C 
HETATM    3  N   UNL     1      43.018 -17.850   5.812  1.00  0.00    -0.083 N 
HETATM    4  C   UNL     1      44.176 -17.642   6.509  1.00  0.00     0.726 A 
HETATM    5  N   UNL     1      44.566 -16.383   6.777  1.00  0.00    -0.192 N 
HETATM    6  N   UNL     1      42.763 -19.166   5.659  1.00  0.00    -0.140 NA
HETATM    7  C   UNL     1      43.848 -19.699   6.238  1.00  0.00     0.166 A 
HETATM    8  N   UNL     1      44.736 -18.793   6.779  1.00  0.00    -0.046 NA
HETATM    9  C   UNL     1      43.810 -15.262   6.455  1.00  0.00     0.037 C 
HETATM   10  C   UNL     1      44.405 -13.943   6.885  1.00  0.00     0.070 C 
HETATM   11  H   UNL     1      45.427 -16.243   7.300  1.00  0.00     0.184 HD
ENDROOT
BRANCH   1  12
HETATM   12  C   UNL     1      41.703 -14.290   5.448  1.00  0.00     0.256 C 
HETATM   13  N   UNL     1      42.253 -13.283   4.690  1.00  0.00    -0.323 N 
HETATM   14  H   UNL     1      43.263 -13.237   4.683  1.00  0.00     0.169 HD
HETATM   15  O   UNL     1      40.600 -14.265   5.978  1.00  0.00    -0.267 OA
BRANCH  13  16
HETATM   16  C   UNL     1      41.593 -12.208   4.048  1.00  0.00     0.041 A 
HETATM   17  C   UNL     1      41.168 -12.172   2.705  1.00  0.00    -0.035 A 
HETATM   18  C   UNL     1      41.391 -13.265   1.696  1.00  0.00     0.050 C 
HETATM   19  C   UNL     1      40.514 -11.015   2.232  1.00  0.00     0.009 A 
HETATM   20  C   UNL     1      40.336  -9.895   3.042  1.00  0.00     0.001 A 
HETATM   21  C   UNL     1      40.808  -9.911   4.345  1.00  0.00     0.002 A 
HETATM   22  C   UNL     1      41.434 -11.056   4.840  1.00  0.00     0.030 A 
ENDBRANCH  13  16
ENDBRANCH   1  12
BRANCH   2  23
HETATM   23  C   UNL     1      42.346 -16.877   3.684  1.00  0.00    -0.025 A 
HETATM   24  C   UNL     1      43.596 -16.969   3.048  1.00  0.00     0.052 A 
HETATM   25  C   UNL     1      43.668 -17.075   1.662  1.00  0.00     0.117 A 
HETATM   26  F   UNL     1      44.868 -17.160   1.072  1.00  0.00    -0.206 F 
HETATM   27  C   UNL     1      42.520 -17.095   0.882  1.00  0.00     0.042 A 
HETATM   28  C   UNL     1      41.273 -17.010   1.498  1.00  0.00     0.004 A 
HETATM   29  C   UNL     1      41.185 -16.903   2.889  1.00  0.00     0.010 A 
ENDBRANCH   2  23
BRANCH   7  30
HETATM   30  C   UNL     1      44.158 -21.149   6.196  1.00  0.00     0.085 C 
BRANCH  30  31
HETATM   31  C   UNL     1      45.019 -21.536   4.990  1.00  0.00     0.034 C 
BRANCH  31  32
HETATM   32  C   UNL     1      44.633 -22.855   4.321  1.00  0.00     0.164 C 
BRANCH  32  33
HETATM   33  O   UNL     1      44.583 -22.723   2.908  1.00  0.00    -0.401 OA
HETATM   34  H   UNL     1      45.417 -23.106   2.565  1.00  0.00     0.209 HD
ENDBRANCH  32  33
ENDBRANCH  31  32
ENDBRANCH  30  31
ENDBRANCH   7  30
TORSDOF 7
ENDMDL
MODEL 4
REMARK VINA RESULT:      -7.9      2.487      4.144
REMARK  7 active torsions:
REMARK  status: ('A' for Active; 'I' for Inactive)
REMARK    1  A    between atoms: C_3  and  N_4 
REMARK       I    between atoms: N_4  and  C_5 
REMARK    2  A    between atoms: C_5  and  C_6 
REMARK    3  A    between atoms: C_7  and  C_8 
REMARK    4  A    between atoms: C_19  and  C_20 
REMARK    5  A    between atoms: C_20  and  C_21 
REMARK    6  A    between atoms: C_21  and  C_22 
REMARK    7  A    between atoms: C_22  and  O_23 
ROOT
HETATM    1  C   UNL     1      43.434 -16.719   5.441  1.00  0.00     0.062 C 
HETATM    2  C   UNL     1      43.347 -15.778   4.233  1.00  0.00     0.202 C 
HETATM    3  N   UNL     1      42.806 -14.471   4.628  1.00  0.00    -0.083 N 
HETATM    4  C   UNL     1      42.169 -14.239   5.815  1.00  0.00     0.726 A 
HETATM    5  N   UNL     1      42.132 -15.212   6.743  1.00  0.00    -0.192 N 
HETATM    6  N   UNL     1      42.774 -13.383   3.830  1.00  0.00    -0.140 NA
HETATM    7  C   UNL     1      42.042 -12.546   4.578  1.00  0.00     0.166 A 
HETATM    8  N   UNL     1      41.657 -13.035   5.809  1.00  0.00    -0.046 NA
HETATM    9  C   UNL     1      42.784 -16.432   6.600  1.00  0.00     0.037 C 
HETATM   10  C   UNL     1      42.656 -17.367   7.778  1.00  0.00     0.070 C 
HETATM   11  H   UNL     1      41.658 -15.025   7.623  1.00  0.00     0.184 HD
ENDROOT
BRANCH   1  12
HETATM   12  C   UNL     1      44.255 -17.948   5.210  1.00  0.00     0.256 C 
HETATM   13  N   UNL     1      43.528 -19.038   4.792  1.00  0.00    -0.323 N 
HETATM   14  H   UNL     1      42.533 -19.002   4.973  1.00  0.00     0.169 HD
HETATM   15  O   UNL     1      45.436 -17.957   5.529  1.00  0.00    -0.267 OA
BRANCH  13  16
HETATM   16  C   UNL     1      44.005 -20.270   4.286  1.00  0.00     0.041 A 
HETATM   17  C   UNL     1      43.992 -20.681   2.938  1.00  0.00    -0.035 A 
HETATM   18  C   UNL     1      43.412 -19.891   1.797  1.00  0.00     0.050 C 
HETATM   19  C   UNL     1      44.521 -21.947   2.609  1.00  0.00     0.009 A 
HETATM   20  C   UNL     1      44.998 -22.815   3.590  1.00  0.00     0.001 A 
HETATM   21  C   UNL     1      44.955 -22.433   4.922  1.00  0.00     0.002 A 
HETATM   22  C   UNL     1      44.460 -21.174   5.265  1.00  0.00     0.030 A 
ENDBRANCH  13  16
ENDBRANCH   1  12
BRANCH   2  23
HETATM   23  C   UNL     1      42.495 -16.329   3.088  1.00  0.00    -0.025 A 
HETATM   24  C   UNL     1      42.963 -16.346   1.762  1.00  0.00     0.052 A 
HETATM   25  C   UNL     1      42.166 -16.864   0.746  1.00  0.00     0.117 A 
HETATM   26  F   UNL     1      42.628 -16.872  -0.511  1.00  0.00    -0.206 F 
HETATM   27  C   UNL     1      40.903 -17.374   1.014  1.00  0.00     0.042 A 
HETATM   28  C   UNL     1      40.426 -17.369   2.323  1.00  0.00     0.004 A 
HETATM   29  C   UNL     1      41.216 -16.852   3.353  1.00  0.00     0.010 A 
ENDBRANCH   2  23
BRANCH   7  30
HETATM   30  C   UNL     1      41.555 -11.234   4.086  1.00  0.00     0.085 C 
BRANCH  30  31
HETATM   31  C   UNL     1      40.308 -10.748   4.830  1.00  0.00     0.034 C 
BRANCH  31  32
HETATM   32  C   UNL     1      39.044 -11.566   4.569  1.00  0.00     0.164 C 
BRANCH  32  33
HETATM   33  O   UNL     1      38.607 -12.233   5.744  1.00  0.00    -0.401 OA
HETATM   34  H   UNL     1      38.712 -13.191   5.574  1.00  0.00     0.209 HD
ENDBRANCH  32  33
ENDBRANCH  31  32
ENDBRANCH  30  31
ENDBRANCH   7  30
TORSDOF 7
ENDMDL
MODEL 5
REMARK VINA RESULT:      -7.9      2.929      5.558
REMARK  7 active torsions:
REMARK  status: ('A' for Active; 'I' for Inactive)
REMARK    1  A    between atoms: C_3  and  N_4 
REMARK       I    between atoms: N_4  and  C_5 
REMARK    2  A    between atoms: C_5  and  C_6 
REMARK    3  A    between atoms: C_7  and  C_8 
REMARK    4  A    between atoms: C_19  and  C_20 
REMARK    5  A    between atoms: C_20  and  C_21 
REMARK    6  A    between atoms: C_21  and  C_22 
REMARK    7  A    between atoms: C_22  and  O_23 
ROOT
HETATM    1  C   UNL     1      41.875 -16.604   2.414  1.00  0.00     0.062 C 
HETATM    2  C   UNL     1      40.646 -15.694   2.526  1.00  0.00     0.202 C 
HETATM    3  N   UNL     1      40.269 -15.161   1.210  1.00  0.00    -0.083 N 
HETATM    4  C   UNL     1      41.084 -15.202   0.113  1.00  0.00     0.726 A 
HETATM    5  N   UNL     1      42.248 -15.871   0.182  1.00  0.00    -0.192 N 
HETATM    6  N   UNL     1      39.135 -14.476   0.958  1.00  0.00    -0.140 NA
HETATM    7  C   UNL     1      39.360 -14.074  -0.301  1.00  0.00     0.166 A 
HETATM    8  N   UNL     1      40.546 -14.507  -0.857  1.00  0.00    -0.046 NA
HETATM    9  C   UNL     1      42.644 -16.607   1.293  1.00  0.00     0.037 C 
HETATM   10  C   UNL     1      43.964 -17.324   1.149  1.00  0.00     0.070 C 
HETATM   11  H   UNL     1      42.843 -15.897  -0.643  1.00  0.00     0.184 HD
ENDROOT
BRANCH   1  12
HETATM   12  C   UNL     1      42.141 -17.436   3.629  1.00  0.00     0.256 C 
HETATM   13  N   UNL     1      43.176 -16.973   4.409  1.00  0.00    -0.323 N 
HETATM   14  H   UNL     1      43.823 -16.342   3.957  1.00  0.00     0.169 HD
HETATM   15  O   UNL     1      41.557 -18.500   3.775  1.00  0.00    -0.267 OA
BRANCH  13  16
HETATM   16  C   UNL     1      43.545 -17.386   5.712  1.00  0.00     0.041 A 
HETATM   17  C   UNL     1      44.328 -18.510   6.041  1.00  0.00    -0.035 A 
HETATM   18  C   UNL     1      44.869 -19.508   5.054  1.00  0.00     0.050 C 
HETATM   19  C   UNL     1      44.608 -18.768   7.400  1.00  0.00     0.009 A 
HETATM   20  C   UNL     1      44.081 -17.973   8.416  1.00  0.00     0.001 A 
HETATM   21  C   UNL     1      43.262 -16.902   8.092  1.00  0.00     0.002 A 
HETATM   22  C   UNL     1      42.995 -16.616   6.753  1.00  0.00     0.030 A 
ENDBRANCH  13  16
ENDBRANCH   1  12
BRANCH   2  23
HETATM   23  C   UNL     1      40.840 -14.519   3.487  1.00  0.00    -0.025 A 
HETATM   24  C   UNL     1      40.028 -14.354   4.623  1.00  0.00     0.052 A 
HETATM   25  C   UNL     1      40.239 -13.279   5.482  1.00  0.00     0.117 A 
HETATM   26  F   UNL     1      39.457 -13.137   6.560  1.00  0.00    -0.206 F 
HETATM   27  C   UNL     1      41.247 -12.355   5.242  1.00  0.00     0.042 A 
HETATM   28  C   UNL     1      42.063 -12.507   4.123  1.00  0.00     0.004 A 
HETATM   29  C   UNL     1      41.863 -13.581   3.252  1.00  0.00     0.010 A 
ENDBRANCH   2  23
BRANCH   7  30
HETATM   30  C   UNL     1      38.476 -13.123  -1.019  1.00  0.00     0.085 C 
BRANCH  30  31
HETATM   31  C   UNL     1      38.470 -13.350  -2.534  1.00  0.00     0.034 C 
BRANCH  31  32
HETATM   32  C   UNL     1      37.738 -14.611  -2.992  1.00  0.00     0.164 C 
BRANCH  32  33
HETATM   33  O   UNL     1      38.638 -15.694  -3.175  1.00  0.00    -0.401 OA
HETATM   34  H   UNL     1      38.903 -15.988  -2.280  1.00  0.00     0.209 HD
ENDBRANCH  32  33
ENDBRANCH  31  32
ENDBRANCH  30  31
ENDBRANCH   7  30
TORSDOF 7
ENDMDL
MODEL 6
REMARK VINA RESULT:      -7.8      2.479      4.034
REMARK  7 active torsions:
REMARK  status: ('A' for Active; 'I' for Inactive)
REMARK    1  A    between atoms: C_3  and  N_4 
REMARK       I    between atoms: N_4  and  C_5 
REMARK    2  A    between atoms: C_5  and  C_6 
REMARK    3  A    between atoms: C_7  and  C_8 
REMARK    4  A    between atoms: C_19  and  C_20 
REMARK    5  A    between atoms: C_20  and  C_21 
REMARK    6  A    between atoms: C_21  and  C_22 
REMARK    7  A    between atoms: C_22  and  O_23 
ROOT
HETATM    1  C   UNL     1      41.315 -15.759   4.348  1.00  0.00     0.062 C 
HETATM    2  C   UNL     1      41.571 -14.469   3.559  1.00  0.00     0.202 C 
HETATM    3  N   UNL     1      41.458 -13.292   4.432  1.00  0.00    -0.083 N 
HETATM    4  C   UNL     1      40.886 -13.320   5.673  1.00  0.00     0.726 A 
HETATM    5  N   UNL     1      40.511 -14.499   6.199  1.00  0.00    -0.192 N 
HETATM    6  N   UNL     1      41.799 -12.037   4.073  1.00  0.00    -0.140 NA
HETATM    7  C   UNL     1      41.343 -11.344   5.125  1.00  0.00     0.166 A 
HETATM    8  N   UNL     1      40.782 -12.099   6.133  1.00  0.00    -0.046 NA
HETATM    9  C   UNL     1      40.749 -15.723   5.583  1.00  0.00     0.037 C 
HETATM   10  C   UNL     1      40.291 -16.932   6.363  1.00  0.00     0.070 C 
HETATM   11  H   UNL     1      40.091 -14.506   7.126  1.00  0.00     0.184 HD
ENDROOT
BRANCH   1  12
HETATM   12  C   UNL     1      41.712 -17.011   3.631  1.00  0.00     0.256 C 
HETATM   13  N   UNL     1      42.959 -17.481   3.973  1.00  0.00    -0.323 N 
HETATM   14  H   UNL     1      43.580 -16.812   4.408  1.00  0.00     0.169 HD
HETATM   15  O   UNL     1      41.011 -17.439   2.725  1.00  0.00    -0.267 OA
BRANCH  13  16
HETATM   16  C   UNL     1      43.544 -18.730   3.655  1.00  0.00     0.041 A 
HETATM   17  C   UNL     1      44.409 -19.480   4.474  1.00  0.00    -0.035 A 
HETATM   18  C   UNL     1      44.909 -19.052   5.827  1.00  0.00     0.050 C 
HETATM   19  C   UNL     1      44.894 -20.716   3.997  1.00  0.00     0.009 A 
HETATM   20  C   UNL     1      44.583 -21.177   2.719  1.00  0.00     0.001 A 
HETATM   21  C   UNL     1      43.779 -20.409   1.892  1.00  0.00     0.002 A 
HETATM   22  C   UNL     1      43.269 -19.196   2.355  1.00  0.00     0.030 A 
ENDBRANCH  13  16
ENDBRANCH   1  12
BRANCH   2  23
HETATM   23  C   UNL     1      40.629 -14.281   2.368  1.00  0.00    -0.025 A 
HETATM   24  C   UNL     1      41.116 -14.007   1.078  1.00  0.00     0.052 A 
HETATM   25  C   UNL     1      40.231 -13.853   0.015  1.00  0.00     0.117 A 
HETATM   26  F   UNL     1      40.713 -13.591  -1.206  1.00  0.00    -0.206 F 
HETATM   27  C   UNL     1      38.860 -13.966   0.200  1.00  0.00     0.042 A 
HETATM   28  C   UNL     1      38.361 -14.241   1.471  1.00  0.00     0.004 A 
HETATM   29  C   UNL     1      39.238 -14.400   2.548  1.00  0.00     0.010 A 
ENDBRANCH   2  23
BRANCH   7  30
HETATM   30  C   UNL     1      41.313  -9.861   5.168  1.00  0.00     0.085 C 
BRANCH  30  31
HETATM   31  C   UNL     1      41.258  -9.311   6.597  1.00  0.00     0.034 C 
BRANCH  31  32
HETATM   32  C   UNL     1      39.902  -8.746   7.016  1.00  0.00     0.164 C 
BRANCH  32  33
HETATM   33  O   UNL     1      38.872  -9.713   6.873  1.00  0.00    -0.401 OA
HETATM   34  H   UNL     1      38.429  -9.522   6.021  1.00  0.00     0.209 HD
ENDBRANCH  32  33
ENDBRANCH  31  32
ENDBRANCH  30  31
ENDBRANCH   7  30
TORSDOF 7
ENDMDL
MODEL 7
REMARK VINA RESULT:      -7.7      4.747      7.580
REMARK  7 active torsions:
REMARK  status: ('A' for Active; 'I' for Inactive)
REMARK    1  A    between atoms: C_3  and  N_4 
REMARK       I    between atoms: N_4  and  C_5 
REMARK    2  A    between atoms: C_5  and  C_6 
REMARK    3  A    between atoms: C_7  and  C_8 
REMARK    4  A    between atoms: C_19  and  C_20 
REMARK    5  A    between atoms: C_20  and  C_21 
REMARK    6  A    between atoms: C_21  and  C_22 
REMARK    7  A    between atoms: C_22  and  O_23 
ROOT
HETATM    1  C   UNL     1      41.722 -13.910   0.691  1.00  0.00     0.062 C 
HETATM    2  C   UNL     1      41.858 -13.783  -0.831  1.00  0.00     0.202 C 
HETATM    3  N   UNL     1      42.232 -12.414  -1.210  1.00  0.00    -0.083 N 
HETATM    4  C   UNL     1      42.145 -11.342  -0.365  1.00  0.00     0.726 A 
HETATM    5  N   UNL     1      41.821 -11.544   0.924  1.00  0.00    -0.192 N 
HETATM    6  N   UNL     1      42.595 -12.035  -2.453  1.00  0.00    -0.140 NA
HETATM    7  C   UNL     1      42.649 -10.704  -2.302  1.00  0.00     0.166 A 
HETATM    8  N   UNL     1      42.386 -10.241  -1.030  1.00  0.00    -0.046 NA
HETATM    9  C   UNL     1      41.647 -12.806   1.481  1.00  0.00     0.037 C 
HETATM   10  C   UNL     1      41.333 -12.816   2.958  1.00  0.00     0.070 C 
HETATM   11  H   UNL     1      41.763 -10.739   1.543  1.00  0.00     0.184 HD
ENDROOT
BRANCH   1  12
HETATM   12  C   UNL     1      41.655 -15.319   1.190  1.00  0.00     0.256 C 
HETATM   13  N   UNL     1      42.884 -15.880   1.451  1.00  0.00    -0.323 N 
HETATM   14  H   UNL     1      43.677 -15.433   1.011  1.00  0.00     0.169 HD
HETATM   15  O   UNL     1      40.584 -15.910   1.198  1.00  0.00    -0.267 OA
BRANCH  13  16
HETATM   16  C   UNL     1      43.170 -17.091   2.124  1.00  0.00     0.041 A 
HETATM   17  C   UNL     1      43.174 -17.292   3.518  1.00  0.00    -0.035 A 
HETATM   18  C   UNL     1      42.922 -16.224   4.548  1.00  0.00     0.050 C 
HETATM   19  C   UNL     1      43.475 -18.576   4.019  1.00  0.00     0.009 A 
HETATM   20  C   UNL     1      43.824 -19.626   3.171  1.00  0.00     0.001 A 
HETATM   21  C   UNL     1      43.877 -19.411   1.802  1.00  0.00     0.002 A 
HETATM   22  C   UNL     1      43.557 -18.154   1.286  1.00  0.00     0.030 A 
ENDBRANCH  13  16
ENDBRANCH   1  12
BRANCH   2  23
HETATM   23  C   UNL     1      40.589 -14.167  -1.594  1.00  0.00    -0.025 A 
HETATM   24  C   UNL     1      40.618 -15.079  -2.664  1.00  0.00     0.052 A 
HETATM   25  C   UNL     1      39.442 -15.414  -3.329  1.00  0.00     0.117 A 
HETATM   26  F   UNL     1      39.489 -16.284  -4.346  1.00  0.00    -0.206 F 
HETATM   27  C   UNL     1      38.224 -14.862  -2.956  1.00  0.00     0.042 A 
HETATM   28  C   UNL     1      38.177 -13.960  -1.896  1.00  0.00     0.004 A 
HETATM   29  C   UNL     1      39.350 -13.615  -1.218  1.00  0.00     0.010 A 
ENDBRANCH   2  23
BRANCH   7  30
HETATM   30  C   UNL     1      42.847  -9.768  -3.436  1.00  0.00     0.085 C 
BRANCH  30  31
HETATM   31  C   UNL     1      42.430 -10.370  -4.781  1.00  0.00     0.034 C 
BRANCH  31  32
HETATM   32  C   UNL     1      40.923 -10.393  -5.035  1.00  0.00     0.164 C 
BRANCH  32  33
HETATM   33  O   UNL     1      40.350 -11.631  -4.638  1.00  0.00    -0.401 OA
HETATM   34  H   UNL     1      39.541 -11.411  -4.132  1.00  0.00     0.209 HD
ENDBRANCH  32  33
ENDBRANCH  31  32
ENDBRANCH  30  31
ENDBRANCH   7  30
TORSDOF 7
ENDMDL
MODEL 8
REMARK VINA RESULT:      -7.7      2.641      4.380
REMARK  7 active torsions:
REMARK  status: ('A' for Active; 'I' for Inactive)
REMARK    1  A    between atoms: C_3  and  N_4 
REMARK       I    between atoms: N_4  and  C_5 
REMARK    2  A    between atoms: C_5  and  C_6 
REMARK    3  A    between atoms: C_7  and  C_8 
REMARK    4  A    between atoms: C_19  and  C_20 
REMARK    5  A    between atoms: C_20  and  C_21 
REMARK    6  A    between atoms: C_21  and  C_22 
REMARK    7  A    between atoms: C_22  and  O_23 
ROOT
HETATM    1  C   UNL     1      41.580 -15.053   4.994  1.00  0.00     0.062 C 
HETATM    2  C   UNL     1      41.516 -13.765   4.163  1.00  0.00     0.202 C 
HETATM    3  N   UNL     1      40.653 -12.769   4.809  1.00  0.00    -0.083 N 
HETATM    4  C   UNL     1      39.779 -13.062   5.820  1.00  0.00     0.726 A 
HETATM    5  N   UNL     1      39.780 -14.297   6.353  1.00  0.00    -0.192 N 
HETATM    6  N   UNL     1      40.537 -11.484   4.414  1.00  0.00    -0.140 NA
HETATM    7  C   UNL     1      39.524 -11.074   5.190  1.00  0.00     0.166 A 
HETATM    8  N   UNL     1      39.036 -12.015   6.073  1.00  0.00    -0.046 NA
HETATM    9  C   UNL     1      40.688 -15.286   5.992  1.00  0.00     0.037 C 
HETATM   10  C   UNL     1      40.550 -16.587   6.745  1.00  0.00     0.070 C 
HETATM   11  H   UNL     1      39.128 -14.500   7.107  1.00  0.00     0.184 HD
ENDROOT
BRANCH   1  12
HETATM   12  C   UNL     1      42.668 -15.997   4.589  1.00  0.00     0.256 C 
HETATM   13  N   UNL     1      42.219 -17.239   4.205  1.00  0.00    -0.323 N 
HETATM   14  H   UNL     1      41.289 -17.488   4.514  1.00  0.00     0.169 HD
HETATM   15  O   UNL     1      43.838 -15.680   4.753  1.00  0.00    -0.267 OA
BRANCH  13  16
HETATM   16  C   UNL     1      42.943 -18.277   3.572  1.00  0.00     0.041 A 
HETATM   17  C   UNL     1      42.924 -18.591   2.199  1.00  0.00    -0.035 A 
HETATM   18  C   UNL     1      42.079 -17.900   1.164  1.00  0.00     0.050 C 
HETATM   19  C   UNL     1      43.720 -19.660   1.736  1.00  0.00     0.009 A 
HETATM   20  C   UNL     1      44.471 -20.442   2.611  1.00  0.00     0.001 A 
HETATM   21  C   UNL     1      44.442 -20.169   3.970  1.00  0.00     0.002 A 
HETATM   22  C   UNL     1      43.681 -19.099   4.444  1.00  0.00     0.030 A 
ENDBRANCH  13  16
ENDBRANCH   1  12
BRANCH   2  23
HETATM   23  C   UNL     1      41.018 -13.984   2.733  1.00  0.00    -0.025 A 
HETATM   24  C   UNL     1      41.835 -13.722   1.619  1.00  0.00     0.052 A 
HETATM   25  C   UNL     1      41.352 -13.942   0.332  1.00  0.00     0.117 A 
HETATM   26  F   UNL     1      42.144 -13.687  -0.718  1.00  0.00    -0.206 F 
HETATM   27  C   UNL     1      40.067 -14.422   0.119  1.00  0.00     0.042 A 
HETATM   28  C   UNL     1      39.247 -14.690   1.212  1.00  0.00     0.004 A 
HETATM   29  C   UNL     1      39.718 -14.475   2.510  1.00  0.00     0.010 A 
ENDBRANCH   2  23
BRANCH   7  30
HETATM   30  C   UNL     1      38.870  -9.751   5.038  1.00  0.00     0.085 C 
BRANCH  30  31
HETATM   31  C   UNL     1      39.663  -8.800   4.136  1.00  0.00     0.034 C 
BRANCH  31  32
HETATM   32  C   UNL     1      40.831  -8.091   4.820  1.00  0.00     0.164 C 
BRANCH  32  33
HETATM   33  O   UNL     1      42.070  -8.700   4.489  1.00  0.00    -0.401 OA
HETATM   34  H   UNL     1      42.417  -9.089   5.318  1.00  0.00     0.209 HD
ENDBRANCH  32  33
ENDBRANCH  31  32
ENDBRANCH  30  31
ENDBRANCH   7  30
TORSDOF 7
ENDMDL
MODEL 9
REMARK VINA RESULT:      -7.7      3.058      5.991
REMARK  7 active torsions:
REMARK  status: ('A' for Active; 'I' for Inactive)
REMARK    1  A    between atoms: C_3  and  N_4 
REMARK       I    between atoms: N_4  and  C_5 
REMARK    2  A    between atoms: C_5  and  C_6 
REMARK    3  A    between atoms: C_7  and  C_8 
REMARK    4  A    between atoms: C_19  and  C_20 
REMARK    5  A    between atoms: C_20  and  C_21 
REMARK    6  A    between atoms: C_21  and  C_22 
REMARK    7  A    between atoms: C_22  and  O_23 
ROOT
HETATM    1  C   UNL     1      41.883 -14.138   4.237  1.00  0.00     0.062 C 
HETATM    2  C   UNL     1      42.599 -14.122   2.881  1.00  0.00     0.202 C 
HETATM    3  N   UNL     1      41.934 -13.201   1.950  1.00  0.00    -0.083 N 
HETATM    4  C   UNL     1      40.681 -12.692   2.150  1.00  0.00     0.726 A 
HETATM    5  N   UNL     1      40.051 -12.933   3.314  1.00  0.00    -0.192 N 
HETATM    6  N   UNL     1      42.427 -12.839   0.747  1.00  0.00    -0.140 NA
HETATM    7  C   UNL     1      41.386 -12.161   0.244  1.00  0.00     0.166 A 
HETATM    8  N   UNL     1      40.296 -12.043   1.081  1.00  0.00    -0.046 NA
HETATM    9  C   UNL     1      40.638 -13.609   4.377  1.00  0.00     0.037 C 
HETATM   10  C   UNL     1      39.778 -13.733   5.611  1.00  0.00     0.070 C 
HETATM   11  H   UNL     1      39.120 -12.546   3.452  1.00  0.00     0.184 HD
ENDROOT
BRANCH   1  12
HETATM   12  C   UNL     1      42.657 -14.793   5.337  1.00  0.00     0.256 C 
HETATM   13  N   UNL     1      42.324 -16.110   5.550  1.00  0.00    -0.323 N 
HETATM   14  H   UNL     1      41.427 -16.404   5.186  1.00  0.00     0.169 HD
HETATM   15  O   UNL     1      43.395 -14.120   6.043  1.00  0.00    -0.267 OA
BRANCH  13  16
HETATM   16  C   UNL     1      42.995 -17.067   6.348  1.00  0.00     0.041 A 
HETATM   17  C   UNL     1      43.543 -18.287   5.905  1.00  0.00    -0.035 A 
HETATM   18  C   UNL     1      43.461 -18.813   4.498  1.00  0.00     0.050 C 
HETATM   19  C   UNL     1      44.189 -19.121   6.843  1.00  0.00     0.009 A 
HETATM   20  C   UNL     1      44.243 -18.792   8.196  1.00  0.00     0.001 A 
HETATM   21  C   UNL     1      43.651 -17.619   8.639  1.00  0.00     0.002 A 
HETATM   22  C   UNL     1      43.030 -16.769   7.723  1.00  0.00     0.030 A 
ENDBRANCH  13  16
ENDBRANCH   1  12
BRANCH   2  23
HETATM   23  C   UNL     1      42.689 -15.498   2.219  1.00  0.00    -0.025 A 
HETATM   24  C   UNL     1      41.537 -16.213   1.844  1.00  0.00     0.052 A 
HETATM   25  C   UNL     1      41.656 -17.458   1.234  1.00  0.00     0.117 A 
HETATM   26  F   UNL     1      40.548 -18.124   0.884  1.00  0.00    -0.206 F 
HETATM   27  C   UNL     1      42.900 -18.020   0.983  1.00  0.00     0.042 A 
HETATM   28  C   UNL     1      44.051 -17.323   1.345  1.00  0.00     0.004 A 
HETATM   29  C   UNL     1      43.947 -16.071   1.958  1.00  0.00     0.010 A 
ENDBRANCH   2  23
BRANCH   7  30
HETATM   30  C   UNL     1      41.335 -11.676  -1.157  1.00  0.00     0.085 C 
BRANCH  30  31
HETATM   31  C   UNL     1      40.845 -12.747  -2.137  1.00  0.00     0.034 C 
BRANCH  31  32
HETATM   32  C   UNL     1      41.713 -12.923  -3.382  1.00  0.00     0.164 C 
BRANCH  32  33
HETATM   33  O   UNL     1      41.787 -14.286  -3.773  1.00  0.00    -0.401 OA
HETATM   34  H   UNL     1      42.305 -14.745  -3.080  1.00  0.00     0.209 HD
ENDBRANCH  32  33
ENDBRANCH  31  32
ENDBRANCH  30  31
ENDBRANCH   7  30
TORSDOF 7
ENDMDL
MODEL 10
REMARK VINA RESULT:      -7.6      3.020      7.287
REMARK  7 active torsions:
REMARK  status: ('A' for Active; 'I' for Inactive)
REMARK    1  A    between atoms: C_3  and  N_4 
REMARK       I    between atoms: N_4  and  C_5 
REMARK    2  A    between atoms: C_5  and  C_6 
REMARK    3  A    between atoms: C_7  and  C_8 
REMARK    4  A    between atoms: C_19  and  C_20 
REMARK    5  A    between atoms: C_20  and  C_21 
REMARK    6  A    between atoms: C_21  and  C_22 
REMARK    7  A    between atoms: C_22  and  O_23 
ROOT
HETATM    1  C   UNL     1      41.315 -14.914   5.221  1.00  0.00     0.062 C 
HETATM    2  C   UNL     1      41.405 -16.418   4.933  1.00  0.00     0.202 C 
HETATM    3  N   UNL     1      42.393 -17.059   5.811  1.00  0.00    -0.083 N 
HETATM    4  C   UNL     1      43.323 -16.371   6.539  1.00  0.00     0.726 A 
HETATM    5  N   UNL     1      43.274 -15.027   6.567  1.00  0.00    -0.192 N 
HETATM    6  N   UNL     1      42.571 -18.393   5.918  1.00  0.00    -0.140 NA
HETATM    7  C   UNL     1      43.673 -18.437   6.679  1.00  0.00     0.166 A 
HETATM    8  N   UNL     1      44.161 -17.213   7.087  1.00  0.00    -0.046 NA
HETATM    9  C   UNL     1      42.268 -14.284   5.959  1.00  0.00     0.037 C 
HETATM   10  C   UNL     1      42.370 -12.791   6.149  1.00  0.00     0.070 C 
HETATM   11  H   UNL     1      43.969 -14.527   7.115  1.00  0.00     0.184 HD
ENDROOT
BRANCH   1  12
HETATM   12  C   UNL     1      40.129 -14.237   4.609  1.00  0.00     0.256 C 
HETATM   13  N   UNL     1      40.301 -13.891   3.289  1.00  0.00    -0.323 N 
HETATM   14  H   UNL     1      41.258 -13.840   2.966  1.00  0.00     0.169 HD
HETATM   15  O   UNL     1      39.184 -13.915   5.315  1.00  0.00    -0.267 OA
BRANCH  13  16
HETATM   16  C   UNL     1      39.327 -13.442   2.366  1.00  0.00     0.041 A 
HETATM   17  C   UNL     1      38.907 -12.111   2.176  1.00  0.00    -0.035 A 
HETATM   18  C   UNL     1      39.391 -10.928   2.971  1.00  0.00     0.050 C 
HETATM   19  C   UNL     1      37.926 -11.841   1.198  1.00  0.00     0.009 A 
HETATM   20  C   UNL     1      37.327 -12.864   0.465  1.00  0.00     0.001 A 
HETATM   21  C   UNL     1      37.699 -14.179   0.695  1.00  0.00     0.002 A 
HETATM   22  C   UNL     1      38.687 -14.464   1.639  1.00  0.00     0.030 A 
ENDBRANCH  13  16
ENDBRANCH   1  12
BRANCH   2  23
HETATM   23  C   UNL     1      41.765 -16.742   3.481  1.00  0.00    -0.025 A 
HETATM   24  C   UNL     1      43.085 -16.637   3.007  1.00  0.00     0.052 A 
HETATM   25  C   UNL     1      43.378 -16.950   1.684  1.00  0.00     0.117 A 
HETATM   26  F   UNL     1      44.641 -16.845   1.249  1.00  0.00    -0.206 F 
HETATM   27  C   UNL     1      42.386 -17.371   0.808  1.00  0.00     0.042 A 
HETATM   28  C   UNL     1      41.075 -17.483   1.263  1.00  0.00     0.004 A 
HETATM   29  C   UNL     1      40.765 -17.173   2.590  1.00  0.00     0.010 A 
ENDBRANCH   2  23
BRANCH   7  30
HETATM   30  C   UNL     1      44.409 -19.693   6.966  1.00  0.00     0.085 C 
BRANCH  30  31
HETATM   31  C   UNL     1      43.910 -20.876   6.131  1.00  0.00     0.034 C 
BRANCH  31  32
HETATM   32  C   UNL     1      44.846 -21.306   5.003  1.00  0.00     0.164 C 
BRANCH  32  33
HETATM   33  O   UNL     1      45.340 -22.621   5.214  1.00  0.00    -0.401 OA
HETATM   34  H   UNL     1      45.327 -22.770   6.181  1.00  0.00     0.209 HD
ENDBRANCH  32  33
ENDBRANCH  31  32
ENDBRANCH  30  31
ENDBRANCH   7  30
TORSDOF 7
ENDMDL
