MODEL 1
REMARK VINA RESULT:      -7.7      0.000      0.000
REMARK  6 active torsions:
REMARK  status: ('A' for Active; 'I' for Inactive)
REMARK    1  A    between atoms: C_2  and  N_3 
REMARK    2  A    between atoms: C_2  and  C_17 
REMARK       I    between atoms: N_3  and  C_4 
REMARK    3  A    between atoms: C_4  and  C_5 
REMARK    4  A    between atoms: C_6  and  O_7 
REMARK    5  A    between atoms: O_7  and  C_8 
REMARK    6  A    between atoms: C_8  and  C_9 
ROOT
HETATM    1  N   UNL     1      43.458 -16.344   5.725  1.00  0.00    -0.346 N 
HETATM    2  C   UNL     1      43.819 -15.023   5.868  1.00  0.00     0.256 C 
HETATM    3  O   UNL     1      44.733 -14.654   6.594  1.00  0.00    -0.267 OA
HETATM    4  H   UNL     1      42.693 -16.623   5.123  1.00  0.00     0.163 HD
ENDROOT
BRANCH   1   5
HETATM    5  C   UNL     1      44.084 -17.389   6.511  1.00  0.00     0.150 C 
HETATM    6  C   UNL     1      43.262 -17.696   7.760  1.00  0.00     0.040 C 
BRANCH   5   7
HETATM    7  C   UNL     1      44.201 -18.590   5.625  1.00  0.00     0.127 A 
HETATM    8  N   UNL     1      44.129 -18.621   4.307  1.00  0.00    -0.231 NA
HETATM    9  C   UNL     1      44.300 -19.939   3.960  1.00  0.00     0.085 A 
HETATM   10  C   UNL     1      44.518 -20.726   5.086  1.00  0.00     0.062 A 
HETATM   11  C   UNL     1      44.285 -20.543   2.695  1.00  0.00     0.034 A 
HETATM   12  N   UNL     1      44.458 -19.843   6.131  1.00  0.00    -0.341 N 
HETATM   13  C   UNL     1      44.738 -22.103   5.029  1.00  0.00     0.032 A 
HETATM   14  H   UNL     1      44.586 -20.069   7.107  1.00  0.00     0.167 HD
HETATM   15  C   UNL     1      44.721 -22.689   3.758  1.00  0.00     0.002 A 
HETATM   16  C   UNL     1      44.496 -21.927   2.610  1.00  0.00     0.002 A 
ENDBRANCH   5   7
ENDBRANCH   1   5
BRANCH   2  17
HETATM   17  C   UNL     1      43.015 -14.050   5.097  1.00  0.00     0.084 A 
HETATM   18  C   UNL     1      42.896 -14.147   3.713  1.00  0.00     0.180 A 
HETATM   19  N   UNL     1      42.181 -13.265   2.968  1.00  0.00    -0.236 NA
HETATM   20  C   UNL     1      41.591 -12.241   3.621  1.00  0.00     0.119 A 
HETATM   21  C   UNL     1      41.667 -12.055   4.992  1.00  0.00     0.020 A 
HETATM   22  C   UNL     1      42.391 -12.976   5.742  1.00  0.00     0.023 A 
BRANCH  18  23
HETATM   23  O   UNL     1      43.452 -15.233   3.072  1.00  0.00    -0.328 OA
BRANCH  23  24
HETATM   24  C   UNL     1      42.506 -15.994   2.310  1.00  0.00     0.248 C 
BRANCH  24  25
HETATM   25  C   UNL     1      43.251 -16.802   1.262  1.00  0.00     0.377 C 
HETATM   26  F   UNL     1      44.557 -16.924   1.621  1.00  0.00    -0.212 F 
HETATM   27  F   UNL     1      42.754 -18.065   1.203  1.00  0.00    -0.212 F 
ENDBRANCH  24  25
ENDBRANCH  23  24
ENDBRANCH  18  23
ENDBRANCH   2  17
TORSDOF 6
ENDMDL
MODEL 2
REMARK VINA RESULT:      -7.7      0.367      1.219
REMARK  6 active torsions:
REMARK  status: ('A' for Active; 'I' for Inactive)
REMARK    1  A    between atoms: C_2  and  N_3 
REMARK    2  A    between atoms: C_2  and  C_17 
REMARK       I    between atoms: N_3  and  C_4 
REMARK    3  A    between atoms: C_4  and  C_5 
REMARK    4  A    between atoms: C_6  and  O_7 
REMARK    5  A    between atoms: O_7  and  C_8 
REMARK    6  A    between atoms: C_8  and  C_9 
ROOT
HETATM    1  N   UNL     1      43.434 -16.283   5.600  1.00  0.00    -0.346 N 
HETATM    2  C   UNL     1      43.753 -14.945   5.642  1.00  0.00     0.256 C 
HETATM    3  O   UNL     1      44.593 -14.481   6.403  1.00  0.00    -0.267 OA
HETATM    4  H   UNL     1      42.730 -16.642   4.966  1.00  0.00     0.163 HD
ENDROOT
BRANCH   1   5
HETATM    5  C   UNL     1      44.011 -17.229   6.535  1.00  0.00     0.150 C 
HETATM    6  C   UNL     1      43.115 -17.400   7.759  1.00  0.00     0.040 C 
BRANCH   5   7
HETATM    7  C   UNL     1      44.182 -18.521   5.799  1.00  0.00     0.127 A 
HETATM    8  N   UNL     1      44.375 -19.718   6.321  1.00  0.00    -0.231 NA
HETATM    9  C   UNL     1      44.466 -20.575   5.251  1.00  0.00     0.085 A 
HETATM   10  C   UNL     1      44.289 -19.895   4.051  1.00  0.00     0.062 A 
HETATM   11  C   UNL     1      44.698 -21.958   5.225  1.00  0.00     0.034 A 
HETATM   12  N   UNL     1      44.102 -18.591   4.428  1.00  0.00    -0.341 N 
HETATM   13  C   UNL     1      44.317 -20.519   2.803  1.00  0.00     0.032 A 
HETATM   14  H   UNL     1      43.929 -17.813   3.808  1.00  0.00     0.167 HD
HETATM   15  C   UNL     1      44.548 -21.900   2.797  1.00  0.00     0.002 A 
HETATM   16  C   UNL     1      44.738 -22.609   3.985  1.00  0.00     0.002 A 
ENDBRANCH   5   7
ENDBRANCH   1   5
BRANCH   2  17
HETATM   17  C   UNL     1      42.998 -14.075   4.714  1.00  0.00     0.084 A 
HETATM   18  C   UNL     1      42.915 -14.368   3.355  1.00  0.00     0.180 A 
HETATM   19  N   UNL     1      42.246 -13.588   2.469  1.00  0.00    -0.236 NA
HETATM   20  C   UNL     1      41.668 -12.465   2.948  1.00  0.00     0.119 A 
HETATM   21  C   UNL     1      41.711 -12.084   4.280  1.00  0.00     0.020 A 
HETATM   22  C   UNL     1      42.388 -12.904   5.178  1.00  0.00     0.023 A 
BRANCH  18  23
HETATM   23  O   UNL     1      43.456 -15.549   2.896  1.00  0.00    -0.328 OA
BRANCH  23  24
HETATM   24  C   UNL     1      42.571 -16.294   2.050  1.00  0.00     0.248 C 
BRANCH  24  25
HETATM   25  C   UNL     1      43.395 -17.113   1.071  1.00  0.00     0.377 C 
HETATM   26  F   UNL     1      44.697 -17.120   1.462  1.00  0.00    -0.212 F 
HETATM   27  F   UNL     1      42.988 -18.409   1.085  1.00  0.00    -0.212 F 
ENDBRANCH  24  25
ENDBRANCH  23  24
ENDBRANCH  18  23
ENDBRANCH   2  17
TORSDOF 6
ENDMDL
MODEL 3
REMARK VINA RESULT:      -7.6      2.412      6.924
REMARK  6 active torsions:
REMARK  status: ('A' for Active; 'I' for Inactive)
REMARK    1  A    between atoms: C_2  and  N_3 
REMARK    2  A    between atoms: C_2  and  C_17 
REMARK       I    between atoms: N_3  and  C_4 
REMARK    3  A    between atoms: C_4  and  C_5 
REMARK    4  A    between atoms: C_6  and  O_7 
REMARK    5  A    between atoms: O_7  and  C_8 
REMARK    6  A    between atoms: C_8  and  C_9 
ROOT
HETATM    1  N   UNL     1      42.549 -17.746   3.094  1.00  0.00    -0.346 N 
HETATM    2  C   UNL     1      43.609 -18.283   2.398  1.00  0.00     0.256 C 
HETATM    3  O   UNL     1      44.259 -17.649   1.576  1.00  0.00    -0.267 OA
HETATM    4  H   UNL     1      42.023 -18.294   3.765  1.00  0.00     0.163 HD
ENDROOT
BRANCH   1   5
HETATM    5  C   UNL     1      42.066 -16.407   2.824  1.00  0.00     0.150 C 
HETATM    6  C   UNL     1      40.548 -16.396   2.674  1.00  0.00     0.040 C 
BRANCH   5   7
HETATM    7  C   UNL     1      42.509 -15.545   3.966  1.00  0.00     0.127 A 
HETATM    8  N   UNL     1      42.003 -14.381   4.332  1.00  0.00    -0.231 NA
HETATM    9  C   UNL     1      42.735 -13.990   5.426  1.00  0.00     0.085 A 
HETATM   10  C   UNL     1      43.683 -14.951   5.761  1.00  0.00     0.062 A 
HETATM   11  C   UNL     1      42.645 -12.821   6.196  1.00  0.00     0.034 A 
HETATM   12  N   UNL     1      43.513 -15.933   4.821  1.00  0.00    -0.341 N 
HETATM   13  C   UNL     1      44.558 -14.823   6.842  1.00  0.00     0.032 A 
HETATM   14  H   UNL     1      44.032 -16.798   4.767  1.00  0.00     0.167 HD
HETATM   15  C   UNL     1      44.452 -13.651   7.599  1.00  0.00     0.002 A 
HETATM   16  C   UNL     1      43.516 -12.664   7.282  1.00  0.00     0.002 A 
ENDBRANCH   5   7
ENDBRANCH   1   5
BRANCH   2  17
HETATM   17  C   UNL     1      43.915 -19.701   2.687  1.00  0.00     0.084 A 
HETATM   18  C   UNL     1      44.485 -20.085   3.898  1.00  0.00     0.180 A 
HETATM   19  N   UNL     1      44.797 -21.372   4.195  1.00  0.00    -0.236 NA
HETATM   20  C   UNL     1      44.559 -22.300   3.243  1.00  0.00     0.119 A 
HETATM   21  C   UNL     1      44.009 -22.010   2.004  1.00  0.00     0.020 A 
HETATM   22  C   UNL     1      43.682 -20.687   1.722  1.00  0.00     0.023 A 
BRANCH  18  23
HETATM   23  O   UNL     1      44.663 -19.134   4.880  1.00  0.00    -0.328 OA
BRANCH  23  24
HETATM   24  C   UNL     1      43.869 -19.366   6.051  1.00  0.00     0.248 C 
BRANCH  24  25
HETATM   25  C   UNL     1      44.513 -18.659   7.232  1.00  0.00     0.377 C 
HETATM   26  F   UNL     1      45.565 -17.914   6.802  1.00  0.00    -0.212 F 
HETATM   27  F   UNL     1      43.634 -17.789   7.793  1.00  0.00    -0.212 F 
ENDBRANCH  24  25
ENDBRANCH  23  24
ENDBRANCH  18  23
ENDBRANCH   2  17
TORSDOF 6
ENDMDL
MODEL 4
REMARK VINA RESULT:      -7.6      2.266      7.078
REMARK  6 active torsions:
REMARK  status: ('A' for Active; 'I' for Inactive)
REMARK    1  A    between atoms: C_2  and  N_3 
REMARK    2  A    between atoms: C_2  and  C_17 
REMARK       I    between atoms: N_3  and  C_4 
REMARK    3  A    between atoms: C_4  and  C_5 
REMARK    4  A    between atoms: C_6  and  O_7 
REMARK    5  A    between atoms: O_7  and  C_8 
REMARK    6  A    between atoms: C_8  and  C_9 
ROOT
HETATM    1  N   UNL     1      42.433 -18.168   2.387  1.00  0.00    -0.346 N 
HETATM    2  C   UNL     1      43.738 -18.577   2.239  1.00  0.00     0.256 C 
HETATM    3  O   UNL     1      44.569 -17.946   1.597  1.00  0.00    -0.267 OA
HETATM    4  H   UNL     1      41.763 -18.711   2.918  1.00  0.00     0.163 HD
ENDROOT
BRANCH   1   5
HETATM    5  C   UNL     1      41.924 -16.996   1.701  1.00  0.00     0.150 C 
HETATM    6  C   UNL     1      40.626 -17.317   0.965  1.00  0.00     0.040 C 
BRANCH   5   7
HETATM    7  C   UNL     1      41.716 -15.939   2.740  1.00  0.00     0.127 A 
HETATM    8  N   UNL     1      42.509 -14.920   3.013  1.00  0.00    -0.231 NA
HETATM    9  C   UNL     1      41.891 -14.234   4.031  1.00  0.00     0.085 A 
HETATM   10  C   UNL     1      40.677 -14.825   4.363  1.00  0.00     0.062 A 
HETATM   11  C   UNL     1      42.308 -13.090   4.725  1.00  0.00     0.034 A 
HETATM   12  N   UNL     1      40.585 -15.902   3.522  1.00  0.00    -0.341 N 
HETATM   13  C   UNL     1      39.828 -14.330   5.355  1.00  0.00     0.032 A 
HETATM   14  H   UNL     1      39.817 -16.557   3.478  1.00  0.00     0.167 HD
HETATM   15  C   UNL     1      40.259 -13.186   6.036  1.00  0.00     0.002 A 
HETATM   16  C   UNL     1      41.478 -12.576   5.732  1.00  0.00     0.002 A 
ENDBRANCH   5   7
ENDBRANCH   1   5
BRANCH   2  17
HETATM   17  C   UNL     1      44.089 -19.856   2.894  1.00  0.00     0.084 A 
HETATM   18  C   UNL     1      44.521 -19.896   4.217  1.00  0.00     0.180 A 
HETATM   19  N   UNL     1      44.867 -21.046   4.849  1.00  0.00    -0.236 NA
HETATM   20  C   UNL     1      44.809 -22.188   4.129  1.00  0.00     0.119 A 
HETATM   21  C   UNL     1      44.407 -22.243   2.804  1.00  0.00     0.020 A 
HETATM   22  C   UNL     1      44.041 -21.057   2.176  1.00  0.00     0.023 A 
BRANCH  18  23
HETATM   23  O   UNL     1      44.514 -18.731   4.954  1.00  0.00    -0.328 OA
BRANCH  23  24
HETATM   24  C   UNL     1      43.804 -18.842   6.194  1.00  0.00     0.248 C 
BRANCH  24  25
HETATM   25  C   UNL     1      42.691 -17.808   6.220  1.00  0.00     0.377 C 
HETATM   26  F   UNL     1      43.145 -16.633   5.711  1.00  0.00    -0.212 F 
HETATM   27  F   UNL     1      41.668 -18.201   5.418  1.00  0.00    -0.212 F 
ENDBRANCH  24  25
ENDBRANCH  23  24
ENDBRANCH  18  23
ENDBRANCH   2  17
TORSDOF 6
ENDMDL
MODEL 5
REMARK VINA RESULT:      -7.3      3.545      7.375
REMARK  6 active torsions:
REMARK  status: ('A' for Active; 'I' for Inactive)
REMARK    1  A    between atoms: C_2  and  N_3 
REMARK    2  A    between atoms: C_2  and  C_17 
REMARK       I    between atoms: N_3  and  C_4 
REMARK    3  A    between atoms: C_4  and  C_5 
REMARK    4  A    between atoms: C_6  and  O_7 
REMARK    5  A    between atoms: O_7  and  C_8 
REMARK    6  A    between atoms: C_8  and  C_9 
ROOT
HETATM    1  N   UNL     1      42.691 -16.288   2.539  1.00  0.00    -0.346 N 
HETATM    2  C   UNL     1      42.158 -17.410   3.132  1.00  0.00     0.256 C 
HETATM    3  O   UNL     1      41.036 -17.438   3.623  1.00  0.00    -0.267 OA
HETATM    4  H   UNL     1      43.625 -16.289   2.146  1.00  0.00     0.163 HD
ENDROOT
BRANCH   1   5
HETATM    5  C   UNL     1      41.988 -15.021   2.545  1.00  0.00     0.150 C 
HETATM    6  C   UNL     1      42.949 -13.866   2.807  1.00  0.00     0.040 C 
BRANCH   5   7
HETATM    7  C   UNL     1      41.322 -14.886   1.212  1.00  0.00     0.127 A 
HETATM    8  N   UNL     1      40.249 -14.173   0.922  1.00  0.00    -0.231 NA
HETATM    9  C   UNL     1      40.032 -14.363  -0.421  1.00  0.00     0.085 A 
HETATM   10  C   UNL     1      41.012 -15.179  -0.974  1.00  0.00     0.062 A 
HETATM   11  C   UNL     1      39.012 -13.865  -1.245  1.00  0.00     0.034 A 
HETATM   12  N   UNL     1      41.826 -15.491   0.084  1.00  0.00    -0.341 N 
HETATM   13  C   UNL     1      41.050 -15.528  -2.324  1.00  0.00     0.032 A 
HETATM   14  H   UNL     1      42.656 -16.064   0.045  1.00  0.00     0.167 HD
HETATM   15  C   UNL     1      40.025 -15.021  -3.132  1.00  0.00     0.002 A 
HETATM   16  C   UNL     1      39.021 -14.206  -2.604  1.00  0.00     0.002 A 
ENDBRANCH   5   7
ENDBRANCH   1   5
BRANCH   2  17
HETATM   17  C   UNL     1      43.036 -18.600   3.163  1.00  0.00     0.084 A 
HETATM   18  C   UNL     1      43.889 -18.841   4.236  1.00  0.00     0.180 A 
HETATM   19  N   UNL     1      44.721 -19.912   4.295  1.00  0.00    -0.236 NA
HETATM   20  C   UNL     1      44.722 -20.752   3.237  1.00  0.00     0.119 A 
HETATM   21  C   UNL     1      43.920 -20.584   2.120  1.00  0.00     0.020 A 
HETATM   22  C   UNL     1      43.063 -19.490   2.082  1.00  0.00     0.023 A 
BRANCH  18  23
HETATM   23  O   UNL     1      43.828 -18.010   5.333  1.00  0.00    -0.328 OA
BRANCH  23  24
HETATM   24  C   UNL     1      44.757 -18.358   6.368  1.00  0.00     0.248 C 
BRANCH  24  25
HETATM   25  C   UNL     1      43.983 -18.768   7.609  1.00  0.00     0.377 C 
HETATM   26  F   UNL     1      42.842 -18.036   7.701  1.00  0.00    -0.212 F 
HETATM   27  F   UNL     1      43.595 -20.066   7.512  1.00  0.00    -0.212 F 
ENDBRANCH  24  25
ENDBRANCH  23  24
ENDBRANCH  18  23
ENDBRANCH   2  17
TORSDOF 6
ENDMDL
MODEL 6
REMARK VINA RESULT:      -7.3      2.661      3.998
REMARK  6 active torsions:
REMARK  status: ('A' for Active; 'I' for Inactive)
REMARK    1  A    between atoms: C_2  and  N_3 
REMARK    2  A    between atoms: C_2  and  C_17 
REMARK       I    between atoms: N_3  and  C_4 
REMARK    3  A    between atoms: C_4  and  C_5 
REMARK    4  A    between atoms: C_6  and  O_7 
REMARK    5  A    between atoms: O_7  and  C_8 
REMARK    6  A    between atoms: C_8  and  C_9 
ROOT
HETATM    1  N   UNL     1      42.235 -16.937   2.657  1.00  0.00    -0.346 N 
HETATM    2  C   UNL     1      40.923 -16.536   2.758  1.00  0.00     0.256 C 
HETATM    3  O   UNL     1      40.022 -17.018   2.082  1.00  0.00    -0.267 OA
HETATM    4  H   UNL     1      42.964 -16.517   3.223  1.00  0.00     0.163 HD
ENDROOT
BRANCH   1   5
HETATM    5  C   UNL     1      42.659 -17.901   1.661  1.00  0.00     0.150 C 
HETATM    6  C   UNL     1      43.688 -17.289   0.715  1.00  0.00     0.040 C 
BRANCH   5   7
HETATM    7  C   UNL     1      43.226 -19.072   2.401  1.00  0.00     0.127 A 
HETATM    8  N   UNL     1      43.517 -20.263   1.910  1.00  0.00    -0.231 NA
HETATM    9  C   UNL     1      44.011 -20.986   2.968  1.00  0.00     0.085 A 
HETATM   10  C   UNL     1      44.058 -20.212   4.122  1.00  0.00     0.062 A 
HETATM   11  C   UNL     1      44.446 -22.318   3.019  1.00  0.00     0.034 A 
HETATM   12  N   UNL     1      43.561 -18.997   3.733  1.00  0.00    -0.341 N 
HETATM   13  C   UNL     1      44.531 -20.687   5.347  1.00  0.00     0.032 A 
HETATM   14  H   UNL     1      43.460 -18.181   4.320  1.00  0.00     0.167 HD
HETATM   15  C   UNL     1      44.963 -22.018   5.379  1.00  0.00     0.002 A 
HETATM   16  C   UNL     1      44.920 -22.823   4.238  1.00  0.00     0.002 A 
ENDBRANCH   5   7
ENDBRANCH   1   5
BRANCH   2  17
HETATM   17  C   UNL     1      40.653 -15.456   3.733  1.00  0.00     0.084 A 
HETATM   18  C   UNL     1      41.008 -15.587   5.073  1.00  0.00     0.180 A 
HETATM   19  N   UNL     1      40.764 -14.627   6.001  1.00  0.00    -0.236 NA
HETATM   20  C   UNL     1      40.120 -13.515   5.584  1.00  0.00     0.119 A 
HETATM   21  C   UNL     1      39.715 -13.304   4.276  1.00  0.00     0.020 A 
HETATM   22  C   UNL     1      39.987 -14.292   3.334  1.00  0.00     0.023 A 
BRANCH  18  23
HETATM   23  O   UNL     1      41.720 -16.700   5.466  1.00  0.00    -0.328 OA
BRANCH  23  24
HETATM   24  C   UNL     1      42.865 -16.392   6.271  1.00  0.00     0.248 C 
BRANCH  24  25
HETATM   25  C   UNL     1      43.237 -17.616   7.090  1.00  0.00     0.377 C 
HETATM   26  F   UNL     1      44.581 -17.809   7.043  1.00  0.00    -0.212 F 
HETATM   27  F   UNL     1      42.928 -17.415   8.398  1.00  0.00    -0.212 F 
ENDBRANCH  24  25
ENDBRANCH  23  24
ENDBRANCH  18  23
ENDBRANCH   2  17
TORSDOF 6
ENDMDL
MODEL 7
REMARK VINA RESULT:      -7.1      2.425      2.836
REMARK  6 active torsions:
REMARK  status: ('A' for Active; 'I' for Inactive)
REMARK    1  A    between atoms: C_2  and  N_3 
REMARK    2  A    between atoms: C_2  and  C_17 
REMARK       I    between atoms: N_3  and  C_4 
REMARK    3  A    between atoms: C_4  and  C_5 
REMARK    4  A    between atoms: C_6  and  O_7 
REMARK    5  A    between atoms: O_7  and  C_8 
REMARK    6  A    between atoms: C_8  and  C_9 
ROOT
HETATM    1  N   UNL     1      40.688 -15.615   4.558  1.00  0.00    -0.346 N 
HETATM    2  C   UNL     1      40.911 -14.279   4.315  1.00  0.00     0.256 C 
HETATM    3  O   UNL     1      41.816 -13.645   4.845  1.00  0.00    -0.267 OA
HETATM    4  H   UNL     1      39.929 -16.116   4.113  1.00  0.00     0.163 HD
ENDROOT
BRANCH   1   5
HETATM    5  C   UNL     1      41.460 -16.345   5.545  1.00  0.00     0.150 C 
HETATM    6  C   UNL     1      40.551 -16.928   6.623  1.00  0.00     0.040 C 
BRANCH   5   7
HETATM    7  C   UNL     1      42.198 -17.421   4.812  1.00  0.00     0.127 A 
HETATM    8  N   UNL     1      42.020 -17.803   3.561  1.00  0.00    -0.231 NA
HETATM    9  C   UNL     1      42.931 -18.809   3.350  1.00  0.00     0.085 A 
HETATM   10  C   UNL     1      43.708 -19.024   4.483  1.00  0.00     0.062 A 
HETATM   11  C   UNL     1      43.157 -19.590   2.208  1.00  0.00     0.034 A 
HETATM   12  N   UNL     1      43.227 -18.122   5.396  1.00  0.00    -0.341 N 
HETATM   13  C   UNL     1      44.724 -19.978   4.549  1.00  0.00     0.032 A 
HETATM   14  H   UNL     1      43.571 -17.989   6.337  1.00  0.00     0.167 HD
HETATM   15  C   UNL     1      44.937 -20.747   3.399  1.00  0.00     0.002 A 
HETATM   16  C   UNL     1      44.167 -20.562   2.248  1.00  0.00     0.002 A 
ENDBRANCH   5   7
ENDBRANCH   1   5
BRANCH   2  17
HETATM   17  C   UNL     1      39.971 -13.630   3.376  1.00  0.00     0.084 A 
HETATM   18  C   UNL     1      39.731 -14.161   2.112  1.00  0.00     0.180 A 
HETATM   19  N   UNL     1      38.888 -13.588   1.215  1.00  0.00    -0.236 NA
HETATM   20  C   UNL     1      38.289 -12.434   1.582  1.00  0.00     0.119 A 
HETATM   21  C   UNL     1      38.478 -11.824   2.811  1.00  0.00     0.020 A 
HETATM   22  C   UNL     1      39.334 -12.433   3.724  1.00  0.00     0.023 A 
BRANCH  18  23
HETATM   23  O   UNL     1      40.302 -15.370   1.779  1.00  0.00    -0.328 OA
BRANCH  23  24
HETATM   24  C   UNL     1      41.361 -15.259   0.820  1.00  0.00     0.248 C 
BRANCH  24  25
HETATM   25  C   UNL     1      41.553 -16.603   0.138  1.00  0.00     0.377 C 
HETATM   26  F   UNL     1      42.828 -17.034   0.325  1.00  0.00    -0.212 F 
HETATM   27  F   UNL     1      40.747 -17.537   0.707  1.00  0.00    -0.212 F 
ENDBRANCH  24  25
ENDBRANCH  23  24
ENDBRANCH  18  23
ENDBRANCH   2  17
TORSDOF 6
ENDMDL
MODEL 8
REMARK VINA RESULT:      -7.0      4.919      8.731
REMARK  6 active torsions:
REMARK  status: ('A' for Active; 'I' for Inactive)
REMARK    1  A    between atoms: C_2  and  N_3 
REMARK    2  A    between atoms: C_2  and  C_17 
REMARK       I    between atoms: N_3  and  C_4 
REMARK    3  A    between atoms: C_4  and  C_5 
REMARK    4  A    between atoms: C_6  and  O_7 
REMARK    5  A    between atoms: O_7  and  C_8 
REMARK    6  A    between atoms: C_8  and  C_9 
ROOT
HETATM    1  N   UNL     1      41.583 -12.255   6.860  1.00  0.00    -0.346 N 
HETATM    2  C   UNL     1      41.795 -12.584   5.541  1.00  0.00     0.256 C 
HETATM    3  O   UNL     1      41.819 -11.754   4.640  1.00  0.00    -0.267 OA
HETATM    4  H   UNL     1      41.561 -12.961   7.587  1.00  0.00     0.163 HD
ENDROOT
BRANCH   1   5
HETATM    5  C   UNL     1      41.274 -10.897   7.262  1.00  0.00     0.150 C 
HETATM    6  C   UNL     1      39.779 -10.619   7.134  1.00  0.00     0.040 C 
BRANCH   5   7
HETATM    7  C   UNL     1      41.739 -10.744   8.677  1.00  0.00     0.127 A 
HETATM    8  N   UNL     1      42.850 -10.168   9.095  1.00  0.00    -0.231 NA
HETATM    9  C   UNL     1      42.827 -10.271  10.464  1.00  0.00     0.085 A 
HETATM   10  C   UNL     1      41.659 -10.891  10.897  1.00  0.00     0.062 A 
HETATM   11  C   UNL     1      43.771  -9.854  11.413  1.00  0.00     0.034 A 
HETATM   12  N   UNL     1      40.981 -11.175   9.741  1.00  0.00    -0.341 N 
HETATM   13  C   UNL     1      41.362 -11.116  12.242  1.00  0.00     0.032 A 
HETATM   14  H   UNL     1      40.076 -11.620   9.678  1.00  0.00     0.167 HD
HETATM   15  C   UNL     1      42.315 -10.692  13.175  1.00  0.00     0.002 A 
HETATM   16  C   UNL     1      43.501 -10.074  12.771  1.00  0.00     0.002 A 
ENDBRANCH   5   7
ENDBRANCH   1   5
BRANCH   2  17
HETATM   17  C   UNL     1      41.976 -14.024   5.258  1.00  0.00     0.084 A 
HETATM   18  C   UNL     1      43.214 -14.642   5.420  1.00  0.00     0.180 A 
HETATM   19  N   UNL     1      43.425 -15.957   5.157  1.00  0.00    -0.236 NA
HETATM   20  C   UNL     1      42.377 -16.669   4.690  1.00  0.00     0.119 A 
HETATM   21  C   UNL     1      41.115 -16.137   4.483  1.00  0.00     0.020 A 
HETATM   22  C   UNL     1      40.911 -14.791   4.772  1.00  0.00     0.023 A 
BRANCH  18  23
HETATM   23  O   UNL     1      44.254 -13.915   5.957  1.00  0.00    -0.328 OA
BRANCH  23  24
HETATM   24  C   UNL     1      44.547 -14.253   7.319  1.00  0.00     0.248 C 
BRANCH  24  25
HETATM   25  C   UNL     1      44.875 -12.982   8.083  1.00  0.00     0.377 C 
HETATM   26  F   UNL     1      44.397 -13.074   9.352  1.00  0.00    -0.212 F 
HETATM   27  F   UNL     1      46.221 -12.836   8.194  1.00  0.00    -0.212 F 
ENDBRANCH  24  25
ENDBRANCH  23  24
ENDBRANCH  18  23
ENDBRANCH   2  17
TORSDOF 6
ENDMDL
MODEL 9
REMARK VINA RESULT:      -6.8      4.068      5.500
REMARK  6 active torsions:
REMARK  status: ('A' for Active; 'I' for Inactive)
REMARK    1  A    between atoms: C_2  and  N_3 
REMARK    2  A    between atoms: C_2  and  C_17 
REMARK       I    between atoms: N_3  and  C_4 
REMARK    3  A    between atoms: C_4  and  C_5 
REMARK    4  A    between atoms: C_6  and  O_7 
REMARK    5  A    between atoms: O_7  and  C_8 
REMARK    6  A    between atoms: C_8  and  C_9 
ROOT
HETATM    1  N   UNL     1      41.699 -14.619   1.218  1.00  0.00    -0.346 N 
HETATM    2  C   UNL     1      41.924 -13.387   0.648  1.00  0.00     0.256 C 
HETATM    3  O   UNL     1      42.287 -12.409   1.291  1.00  0.00    -0.267 OA
HETATM    4  H   UNL     1      41.392 -15.412   0.666  1.00  0.00     0.163 HD
ENDROOT
BRANCH   1   5
HETATM    5  C   UNL     1      41.784 -14.818   2.652  1.00  0.00     0.150 C 
HETATM    6  C   UNL     1      40.399 -14.780   3.289  1.00  0.00     0.040 C 
BRANCH   5   7
HETATM    7  C   UNL     1      42.450 -16.141   2.869  1.00  0.00     0.127 A 
HETATM    8  N   UNL     1      43.028 -16.573   3.975  1.00  0.00    -0.231 NA
HETATM    9  C   UNL     1      43.482 -17.836   3.685  1.00  0.00     0.085 A 
HETATM   10  C   UNL     1      43.143 -18.201   2.386  1.00  0.00     0.062 A 
HETATM   11  C   UNL     1      44.194 -18.740   4.485  1.00  0.00     0.034 A 
HETATM   12  N   UNL     1      42.480 -17.108   1.892  1.00  0.00    -0.341 N 
HETATM   13  C   UNL     1      43.466 -19.438   1.827  1.00  0.00     0.032 A 
HETATM   14  H   UNL     1      42.077 -17.026   0.969  1.00  0.00     0.167 HD
HETATM   15  C   UNL     1      44.175 -20.329   2.641  1.00  0.00     0.002 A 
HETATM   16  C   UNL     1      44.538 -19.988   3.946  1.00  0.00     0.002 A 
ENDBRANCH   5   7
ENDBRANCH   1   5
BRANCH   2  17
HETATM   17  C   UNL     1      41.681 -13.298  -0.808  1.00  0.00     0.084 A 
HETATM   18  C   UNL     1      40.525 -13.821  -1.381  1.00  0.00     0.180 A 
HETATM   19  N   UNL     1      40.272 -13.774  -2.714  1.00  0.00    -0.236 NA
HETATM   20  C   UNL     1      41.215 -13.213  -3.502  1.00  0.00     0.119 A 
HETATM   21  C   UNL     1      42.402 -12.681  -3.023  1.00  0.00     0.020 A 
HETATM   22  C   UNL     1      42.638 -12.724  -1.653  1.00  0.00     0.023 A 
BRANCH  18  23
HETATM   23  O   UNL     1      39.547 -14.332  -0.556  1.00  0.00    -0.328 OA
BRANCH  23  24
HETATM   24  C   UNL     1      38.266 -13.715  -0.735  1.00  0.00     0.248 C 
BRANCH  24  25
HETATM   25  C   UNL     1      37.602 -13.550   0.621  1.00  0.00     0.377 C 
HETATM   26  F   UNL     1      37.399 -14.770   1.184  1.00  0.00    -0.212 F 
HETATM   27  F   UNL     1      38.424 -12.874   1.465  1.00  0.00    -0.212 F 
ENDBRANCH  24  25
ENDBRANCH  23  24
ENDBRANCH  18  23
ENDBRANCH   2  17
TORSDOF 6
ENDMDL
MODEL 10
REMARK VINA RESULT:      -6.8      2.583      4.386
REMARK  6 active torsions:
REMARK  status: ('A' for Active; 'I' for Inactive)
REMARK    1  A    between atoms: C_2  and  N_3 
REMARK    2  A    between atoms: C_2  and  C_17 
REMARK       I    between atoms: N_3  and  C_4 
REMARK    3  A    between atoms: C_4  and  C_5 
REMARK    4  A    between atoms: C_6  and  O_7 
REMARK    5  A    between atoms: O_7  and  C_8 
REMARK    6  A    between atoms: C_8  and  C_9 
ROOT
HETATM    1  N   UNL     1      41.145 -14.401   3.092  1.00  0.00    -0.346 N 
HETATM    2  C   UNL     1      42.021 -13.859   2.179  1.00  0.00     0.256 C 
HETATM    3  O   UNL     1      43.015 -13.221   2.503  1.00  0.00    -0.267 OA
HETATM    4  H   UNL     1      40.325 -14.919   2.798  1.00  0.00     0.163 HD
ENDROOT
BRANCH   1   5
HETATM    5  C   UNL     1      41.291 -14.164   4.515  1.00  0.00     0.150 C 
HETATM    6  C   UNL     1      39.929 -14.118   5.201  1.00  0.00     0.040 C 
BRANCH   5   7
HETATM    7  C   UNL     1      42.138 -15.273   5.056  1.00  0.00     0.127 A 
HETATM    8  N   UNL     1      43.248 -15.159   5.763  1.00  0.00    -0.231 NA
HETATM    9  C   UNL     1      43.649 -16.446   6.028  1.00  0.00     0.085 A 
HETATM   10  C   UNL     1      42.747 -17.366   5.506  1.00  0.00     0.062 A 
HETATM   11  C   UNL     1      44.778 -16.910   6.717  1.00  0.00     0.034 A 
HETATM   12  N   UNL     1      41.791 -16.594   4.899  1.00  0.00    -0.341 N 
HETATM   13  C   UNL     1      42.896 -18.748   5.638  1.00  0.00     0.032 A 
HETATM   14  H   UNL     1      40.968 -16.935   4.423  1.00  0.00     0.167 HD
HETATM   15  C   UNL     1      44.029 -19.193   6.330  1.00  0.00     0.002 A 
HETATM   16  C   UNL     1      44.957 -18.293   6.859  1.00  0.00     0.002 A 
ENDBRANCH   5   7
ENDBRANCH   1   5
BRANCH   2  17
HETATM   17  C   UNL     1      41.683 -14.076   0.756  1.00  0.00     0.084 A 
HETATM   18  C   UNL     1      41.475 -15.357   0.250  1.00  0.00     0.180 A 
HETATM   19  N   UNL     1      41.179 -15.599  -1.053  1.00  0.00    -0.236 NA
HETATM   20  C   UNL     1      41.116 -14.533  -1.880  1.00  0.00     0.119 A 
HETATM   21  C   UNL     1      41.323 -13.226  -1.470  1.00  0.00     0.020 A 
HETATM   22  C   UNL     1      41.611 -12.994  -0.129  1.00  0.00     0.023 A 
BRANCH  18  23
HETATM   23  O   UNL     1      41.481 -16.425   1.120  1.00  0.00    -0.328 OA
BRANCH  23  24
HETATM   24  C   UNL     1      42.503 -17.389   0.837  1.00  0.00     0.248 C 
BRANCH  24  25
HETATM   25  C   UNL     1      43.621 -17.238   1.853  1.00  0.00     0.377 C 
HETATM   26  F   UNL     1      43.795 -18.408   2.521  1.00  0.00    -0.212 F 
HETATM   27  F   UNL     1      44.797 -16.982   1.222  1.00  0.00    -0.212 F 
ENDBRANCH  24  25
ENDBRANCH  23  24
ENDBRANCH  18  23
ENDBRANCH   2  17
TORSDOF 6
ENDMDL
