MODEL 1
REMARK VINA RESULT:      -8.9      0.000      0.000
REMARK  9 active torsions:
REMARK  status: ('A' for Active; 'I' for Inactive)
REMARK    1  A    between atoms: C_6  and  N_7 
REMARK       I    between atoms: N_7  and  C_8 
REMARK    2  A    between atoms: C_8  and  C_9 
REMARK    3  A    between atoms: C_9  and  N_10 
REMARK       I    between atoms: N_10  and  C_11 
REMARK    4  A    between atoms: C_11  and  C_12 
REMARK    5  A    between atoms: C_12  and  S_13 
REMARK    6  A    between atoms: S_13  and  C_14 
REMARK    7  A    between atoms: N_15  and  C_16 
REMARK    8  A    between atoms: C_22  and  C_23 
REMARK    9  A    between atoms: C_23  and  N_24 
ROOT
HETATM    1  C   UNL     1      39.343 -13.088   2.961  1.00  0.00     0.185 C 
ENDROOT
BRANCH   1   2
HETATM    2  C   UNL     1      40.027 -13.847   4.086  1.00  0.00     0.227 C 
HETATM    3  N   UNL     1      41.351 -14.147   3.858  1.00  0.00    -0.352 N 
HETATM    4  H   UNL     1      41.757 -13.979   2.944  1.00  0.00     0.162 HD
HETATM    5  O   UNL     1      39.445 -14.238   5.097  1.00  0.00    -0.273 OA
BRANCH   3   6
HETATM    6  C   UNL     1      42.181 -14.831   4.842  1.00  0.00     0.225 C 
BRANCH   6   7
HETATM    7  C   UNL     1      42.277 -16.349   4.629  1.00  0.00     0.239 C 
HETATM    8  N   UNL     1      43.422 -16.733   3.945  1.00  0.00    -0.325 N 
HETATM    9  H   UNL     1      43.842 -15.969   3.417  1.00  0.00     0.169 HD
HETATM   10  O   UNL     1      41.330 -17.078   4.909  1.00  0.00    -0.271 OA
BRANCH   8  11
HETATM   11  C   UNL     1      43.724 -18.049   3.525  1.00  0.00     0.046 A 
HETATM   12  C   UNL     1      43.412 -18.399   2.188  1.00  0.00    -0.034 A 
HETATM   13  C   UNL     1      43.654 -19.708   1.738  1.00  0.00     0.015 A 
HETATM   14  C   UNL     1      42.758 -17.429   1.240  1.00  0.00     0.050 C 
HETATM   15  C   UNL     1      44.200 -20.673   2.586  1.00  0.00    -0.061 A 
HETATM   16  C   UNL     1      44.443 -22.073   2.104  1.00  0.00     0.048 C 
HETATM   17  C   UNL     1      44.563 -20.302   3.881  1.00  0.00     0.015 A 
HETATM   18  C   UNL     1      44.356 -18.994   4.360  1.00  0.00    -0.034 A 
HETATM   19  C   UNL     1      44.859 -18.697   5.747  1.00  0.00     0.050 C 
ENDBRANCH   8  11
ENDBRANCH   6   7
ENDBRANCH   3   6
ENDBRANCH   1   2
BRANCH   1  20
HETATM   20  S   UNL     1      39.497 -14.026   1.413  1.00  0.00    -0.081 SA
BRANCH  20  21
HETATM   21  C   UNL     1      40.753 -13.141   0.612  1.00  0.00     0.196 A 
HETATM   22  N   UNL     1      41.118 -13.301  -0.713  1.00  0.00    -0.274 N 
HETATM   23  C   UNL     1      42.238 -12.492  -0.846  1.00  0.00     0.161 A 
HETATM   24  N   UNL     1      42.534 -11.934   0.311  1.00  0.00    -0.132 NA
HETATM   25  N   UNL     1      41.608 -12.348   1.220  1.00  0.00    -0.122 NA
BRANCH  22  26
HETATM   26  C   UNL     1      40.490 -14.035  -1.747  1.00  0.00     0.043 A 
HETATM   27  C   UNL     1      40.990 -15.284  -2.130  1.00  0.00     0.030 A 
HETATM   28  C   UNL     1      40.330 -16.020  -3.115  1.00  0.00     0.002 A 
HETATM   29  C   UNL     1      39.184 -15.509  -3.723  1.00  0.00     0.000 A 
HETATM   30  C   UNL     1      38.690 -14.260  -3.350  1.00  0.00     0.002 A 
HETATM   31  C   UNL     1      39.338 -13.520  -2.360  1.00  0.00     0.030 A 
ENDBRANCH  22  26
BRANCH  23  32
HETATM   32  C   UNL     1      42.908 -12.119  -2.117  1.00  0.00     0.315 C 
BRANCH  32  33
HETATM   33  N   UNL     1      42.111 -11.052  -2.836  1.00  0.00    -0.064 N 
HETATM   34  H   UNL     1      41.187 -11.060  -2.372  1.00  0.00     0.280 HD
HETATM   35  C   UNL     1      41.849 -11.350  -4.301  1.00  0.00     0.235 C 
HETATM   36  C   UNL     1      42.484 -10.187  -5.038  1.00  0.00     0.029 C 
HETATM   37  C   UNL     1      42.334  -9.031  -4.070  1.00  0.00     0.029 C 
HETATM   38  C   UNL     1      42.684  -9.664  -2.737  1.00  0.00     0.235 C 
ENDBRANCH  32  33
ENDBRANCH  23  32
ENDBRANCH  20  21
ENDBRANCH   1  20
TORSDOF 9
ENDMDL
MODEL 2
REMARK VINA RESULT:      -8.9      0.222      1.692
REMARK  9 active torsions:
REMARK  status: ('A' for Active; 'I' for Inactive)
REMARK    1  A    between atoms: C_6  and  N_7 
REMARK       I    between atoms: N_7  and  C_8 
REMARK    2  A    between atoms: C_8  and  C_9 
REMARK    3  A    between atoms: C_9  and  N_10 
REMARK       I    between atoms: N_10  and  C_11 
REMARK    4  A    between atoms: C_11  and  C_12 
REMARK    5  A    between atoms: C_12  and  S_13 
REMARK    6  A    between atoms: S_13  and  C_14 
REMARK    7  A    between atoms: N_15  and  C_16 
REMARK    8  A    between atoms: C_22  and  C_23 
REMARK    9  A    between atoms: C_23  and  N_24 
ROOT
HETATM    1  C   UNL     1      39.488 -12.925   3.152  1.00  0.00     0.185 C 
ENDROOT
BRANCH   1   2
HETATM    2  C   UNL     1      40.095 -13.791   4.243  1.00  0.00     0.227 C 
HETATM    3  N   UNL     1      41.418 -14.118   4.053  1.00  0.00    -0.352 N 
HETATM    4  H   UNL     1      41.872 -13.894   3.174  1.00  0.00     0.162 HD
HETATM    5  O   UNL     1      39.453 -14.239   5.194  1.00  0.00    -0.273 OA
BRANCH   3   6
HETATM    6  C   UNL     1      42.179 -14.903   5.017  1.00  0.00     0.225 C 
BRANCH   6   7
HETATM    7  C   UNL     1      42.200 -16.409   4.715  1.00  0.00     0.239 C 
HETATM    8  N   UNL     1      43.314 -16.805   3.988  1.00  0.00    -0.325 N 
HETATM    9  H   UNL     1      43.760 -16.032   3.497  1.00  0.00     0.169 HD
HETATM   10  O   UNL     1      41.225 -17.109   4.972  1.00  0.00    -0.271 OA
BRANCH   8  11
HETATM   11  C   UNL     1      43.547 -18.107   3.487  1.00  0.00     0.046 A 
HETATM   12  C   UNL     1      44.311 -18.991   4.289  1.00  0.00    -0.034 A 
HETATM   13  C   UNL     1      44.606 -20.280   3.814  1.00  0.00     0.015 A 
HETATM   14  C   UNL     1      44.885 -18.572   5.617  1.00  0.00     0.050 C 
HETATM   15  C   UNL     1      44.157 -20.709   2.564  1.00  0.00    -0.061 A 
HETATM   16  C   UNL     1      44.487 -22.081   2.056  1.00  0.00     0.048 C 
HETATM   17  C   UNL     1      43.353 -19.854   1.809  1.00  0.00     0.015 A 
HETATM   18  C   UNL     1      43.018 -18.563   2.262  1.00  0.00    -0.034 A 
HETATM   19  C   UNL     1      42.081 -17.766   1.394  1.00  0.00     0.050 C 
ENDBRANCH   8  11
ENDBRANCH   6   7
ENDBRANCH   3   6
ENDBRANCH   1   2
BRANCH   1  20
HETATM   20  S   UNL     1      39.526 -13.822   1.573  1.00  0.00    -0.081 SA
BRANCH  20  21
HETATM   21  C   UNL     1      40.778 -12.966   0.734  1.00  0.00     0.196 A 
HETATM   22  N   UNL     1      41.138 -13.174  -0.585  1.00  0.00    -0.274 N 
HETATM   23  C   UNL     1      42.257 -12.370  -0.753  1.00  0.00     0.161 A 
HETATM   24  N   UNL     1      42.557 -11.770   0.382  1.00  0.00    -0.132 NA
HETATM   25  N   UNL     1      41.635 -12.151   1.310  1.00  0.00    -0.122 NA
BRANCH  22  26
HETATM   26  C   UNL     1      40.506 -13.946  -1.589  1.00  0.00     0.043 A 
HETATM   27  C   UNL     1      39.346 -13.478  -2.214  1.00  0.00     0.030 A 
HETATM   28  C   UNL     1      38.764 -14.225  -3.239  1.00  0.00     0.002 A 
HETATM   29  C   UNL     1      39.329 -15.438  -3.632  1.00  0.00     0.000 A 
HETATM   30  C   UNL     1      40.480 -15.911  -3.004  1.00  0.00     0.002 A 
HETATM   31  C   UNL     1      41.075 -15.167  -1.984  1.00  0.00     0.030 A 
ENDBRANCH  22  26
BRANCH  23  32
HETATM   32  C   UNL     1      42.921 -12.043  -2.039  1.00  0.00     0.315 C 
BRANCH  32  33
HETATM   33  N   UNL     1      42.124 -10.997  -2.790  1.00  0.00    -0.064 N 
HETATM   34  H   UNL     1      41.198 -10.995  -2.328  1.00  0.00     0.280 HD
HETATM   35  C   UNL     1      41.867 -11.336  -4.246  1.00  0.00     0.235 C 
HETATM   36  C   UNL     1      42.503 -10.192  -5.014  1.00  0.00     0.029 C 
HETATM   37  C   UNL     1      42.348  -9.011  -4.077  1.00  0.00     0.029 C 
HETATM   38  C   UNL     1      42.695  -9.606  -2.727  1.00  0.00     0.235 C 
ENDBRANCH  32  33
ENDBRANCH  23  32
ENDBRANCH  20  21
ENDBRANCH   1  20
TORSDOF 9
ENDMDL
MODEL 3
REMARK VINA RESULT:      -8.9      4.847      8.059
REMARK  9 active torsions:
REMARK  status: ('A' for Active; 'I' for Inactive)
REMARK    1  A    between atoms: C_6  and  N_7 
REMARK       I    between atoms: N_7  and  C_8 
REMARK    2  A    between atoms: C_8  and  C_9 
REMARK    3  A    between atoms: C_9  and  N_10 
REMARK       I    between atoms: N_10  and  C_11 
REMARK    4  A    between atoms: C_11  and  C_12 
REMARK    5  A    between atoms: C_12  and  S_13 
REMARK    6  A    between atoms: S_13  and  C_14 
REMARK    7  A    between atoms: N_15  and  C_16 
REMARK    8  A    between atoms: C_22  and  C_23 
REMARK    9  A    between atoms: C_23  and  N_24 
ROOT
HETATM    1  C   UNL     1      43.275 -14.942   5.912  1.00  0.00     0.185 C 
ENDROOT
BRANCH   1   2
HETATM    2  C   UNL     1      42.908 -13.498   5.617  1.00  0.00     0.227 C 
HETATM    3  N   UNL     1      42.150 -12.884   6.589  1.00  0.00    -0.352 N 
HETATM    4  H   UNL     1      41.774 -13.430   7.356  1.00  0.00     0.162 HD
HETATM    5  O   UNL     1      43.190 -12.924   4.565  1.00  0.00    -0.273 OA
BRANCH   3   6
HETATM    6  C   UNL     1      41.741 -11.488   6.499  1.00  0.00     0.225 C 
BRANCH   6   7
HETATM    7  C   UNL     1      42.117 -10.647   7.728  1.00  0.00     0.239 C 
HETATM    8  N   UNL     1      42.359 -11.412   8.860  1.00  0.00    -0.325 N 
HETATM    9  H   UNL     1      41.949 -12.344   8.804  1.00  0.00     0.169 HD
HETATM   10  O   UNL     1      42.031  -9.423   7.695  1.00  0.00    -0.271 OA
BRANCH   8  11
HETATM   11  C   UNL     1      42.628 -10.904  10.152  1.00  0.00     0.046 A 
HETATM   12  C   UNL     1      41.530 -10.729  11.030  1.00  0.00    -0.034 A 
HETATM   13  C   UNL     1      41.742 -10.186  12.309  1.00  0.00     0.015 A 
HETATM   14  C   UNL     1      40.117 -11.043  10.614  1.00  0.00     0.050 C 
HETATM   15  C   UNL     1      43.019  -9.816  12.732  1.00  0.00    -0.061 A 
HETATM   16  C   UNL     1      43.237  -9.224  14.093  1.00  0.00     0.048 C 
HETATM   17  C   UNL     1      44.103 -10.051  11.885  1.00  0.00     0.015 A 
HETATM   18  C   UNL     1      43.932 -10.613  10.606  1.00  0.00    -0.034 A 
HETATM   19  C   UNL     1      45.184 -10.888   9.817  1.00  0.00     0.050 C 
ENDBRANCH   8  11
ENDBRANCH   6   7
ENDBRANCH   3   6
ENDBRANCH   1   2
BRANCH   1  20
HETATM   20  S   UNL     1      41.762 -15.936   6.068  1.00  0.00    -0.081 SA
BRANCH  20  21
HETATM   21  C   UNL     1      40.882 -15.423   4.666  1.00  0.00     0.196 A 
HETATM   22  N   UNL     1      41.210 -15.743   3.360  1.00  0.00    -0.274 N 
HETATM   23  C   UNL     1      40.314 -15.001   2.604  1.00  0.00     0.161 A 
HETATM   24  N   UNL     1      39.549 -14.273   3.394  1.00  0.00    -0.132 NA
HETATM   25  N   UNL     1      39.913 -14.535   4.680  1.00  0.00    -0.122 NA
BRANCH  22  26
HETATM   26  C   UNL     1      42.164 -16.660   2.861  1.00  0.00     0.043 A 
HETATM   27  C   UNL     1      41.952 -18.038   2.984  1.00  0.00     0.030 A 
HETATM   28  C   UNL     1      42.876 -18.931   2.440  1.00  0.00     0.002 A 
HETATM   29  C   UNL     1      44.012 -18.454   1.785  1.00  0.00     0.000 A 
HETATM   30  C   UNL     1      44.231 -17.082   1.671  1.00  0.00     0.002 A 
HETATM   31  C   UNL     1      43.308 -16.181   2.204  1.00  0.00     0.030 A 
ENDBRANCH  22  26
BRANCH  23  32
HETATM   32  C   UNL     1      40.076 -15.129   1.145  1.00  0.00     0.315 C 
BRANCH  32  33
HETATM   33  N   UNL     1      40.368 -13.818   0.448  1.00  0.00    -0.064 N 
HETATM   34  H   UNL     1      39.585 -13.198   0.720  1.00  0.00     0.280 HD
HETATM   35  C   UNL     1      40.335 -13.895  -1.067  1.00  0.00     0.235 C 
HETATM   36  C   UNL     1      41.726 -13.467  -1.493  1.00  0.00     0.029 C 
HETATM   37  C   UNL     1      42.138 -12.486  -0.415  1.00  0.00     0.029 C 
HETATM   38  C   UNL     1      41.661 -13.163   0.854  1.00  0.00     0.235 C 
ENDBRANCH  32  33
ENDBRANCH  23  32
ENDBRANCH  20  21
ENDBRANCH   1  20
TORSDOF 9
ENDMDL
MODEL 4
REMARK VINA RESULT:      -8.6      6.756     10.800
REMARK  9 active torsions:
REMARK  status: ('A' for Active; 'I' for Inactive)
REMARK    1  A    between atoms: C_6  and  N_7 
REMARK       I    between atoms: N_7  and  C_8 
REMARK    2  A    between atoms: C_8  and  C_9 
REMARK    3  A    between atoms: C_9  and  N_10 
REMARK       I    between atoms: N_10  and  C_11 
REMARK    4  A    between atoms: C_11  and  C_12 
REMARK    5  A    between atoms: C_12  and  S_13 
REMARK    6  A    between atoms: S_13  and  C_14 
REMARK    7  A    between atoms: N_15  and  C_16 
REMARK    8  A    between atoms: C_22  and  C_23 
REMARK    9  A    between atoms: C_23  and  N_24 
ROOT
HETATM    1  C   UNL     1      39.807 -11.462   8.008  1.00  0.00     0.185 C 
ENDROOT
BRANCH   1   2
HETATM    2  C   UNL     1      39.454 -12.169   6.710  1.00  0.00     0.227 C 
HETATM    3  N   UNL     1      39.978 -13.436   6.582  1.00  0.00    -0.352 N 
HETATM    4  H   UNL     1      40.652 -13.775   7.259  1.00  0.00     0.162 HD
HETATM    5  O   UNL     1      38.814 -11.644   5.800  1.00  0.00    -0.273 OA
BRANCH   3   6
HETATM    6  C   UNL     1      39.710 -14.282   5.426  1.00  0.00     0.225 C 
BRANCH   6   7
HETATM    7  C   UNL     1      40.950 -15.004   4.879  1.00  0.00     0.239 C 
HETATM    8  N   UNL     1      40.722 -16.343   4.599  1.00  0.00    -0.325 N 
HETATM    9  H   UNL     1      39.907 -16.717   5.084  1.00  0.00     0.169 HD
HETATM   10  O   UNL     1      42.043 -14.445   4.872  1.00  0.00    -0.271 OA
BRANCH   8  11
HETATM   11  C   UNL     1      41.703 -17.272   4.179  1.00  0.00     0.046 A 
HETATM   12  C   UNL     1      41.814 -17.526   2.790  1.00  0.00    -0.034 A 
HETATM   13  C   UNL     1      42.744 -18.473   2.328  1.00  0.00     0.015 A 
HETATM   14  C   UNL     1      40.915 -16.862   1.781  1.00  0.00     0.050 C 
HETATM   15  C   UNL     1      43.565 -19.171   3.217  1.00  0.00    -0.061 A 
HETATM   16  C   UNL     1      44.546 -20.191   2.720  1.00  0.00     0.048 C 
HETATM   17  C   UNL     1      43.492 -18.868   4.577  1.00  0.00     0.015 A 
HETATM   18  C   UNL     1      42.589 -17.909   5.073  1.00  0.00    -0.034 A 
HETATM   19  C   UNL     1      42.659 -17.616   6.549  1.00  0.00     0.050 C 
ENDBRANCH   8  11
ENDBRANCH   6   7
ENDBRANCH   3   6
ENDBRANCH   1   2
BRANCH   1  20
HETATM   20  S   UNL     1      41.405 -10.617   7.825  1.00  0.00    -0.081 SA
BRANCH  20  21
HETATM   21  C   UNL     1      41.377  -9.553   9.192  1.00  0.00     0.196 A 
HETATM   22  N   UNL     1      42.161  -9.692  10.324  1.00  0.00    -0.274 N 
HETATM   23  C   UNL     1      41.687  -8.704  11.176  1.00  0.00     0.161 A 
HETATM   24  N   UNL     1      40.682  -8.064  10.612  1.00  0.00    -0.132 NA
HETATM   25  N   UNL     1      40.487  -8.603   9.376  1.00  0.00    -0.122 NA
BRANCH  22  26
HETATM   26  C   UNL     1      43.249 -10.559  10.576  1.00  0.00     0.043 A 
HETATM   27  C   UNL     1      43.078 -11.694  11.375  1.00  0.00     0.030 A 
HETATM   28  C   UNL     1      44.148 -12.569  11.572  1.00  0.00     0.002 A 
HETATM   29  C   UNL     1      45.385 -12.309  10.984  1.00  0.00     0.000 A 
HETATM   30  C   UNL     1      45.561 -11.173  10.195  1.00  0.00     0.002 A 
HETATM   31  C   UNL     1      44.495 -10.296   9.985  1.00  0.00     0.030 A 
ENDBRANCH  22  26
BRANCH  23  32
HETATM   32  C   UNL     1      42.314  -8.262  12.447  1.00  0.00     0.315 C 
BRANCH  32  33
HETATM   33  N   UNL     1      41.525  -8.783  13.629  1.00  0.00    -0.064 N 
HETATM   34  H   UNL     1      40.657  -9.164  13.216  1.00  0.00     0.280 HD
HETATM   35  C   UNL     1      41.088  -7.709  14.608  1.00  0.00     0.235 C 
HETATM   36  C   UNL     1      41.725  -8.119  15.922  1.00  0.00     0.029 C 
HETATM   37  C   UNL     1      41.763  -9.631  15.837  1.00  0.00     0.029 C 
HETATM   38  C   UNL     1      42.206  -9.876  14.409  1.00  0.00     0.235 C 
ENDBRANCH  32  33
ENDBRANCH  23  32
ENDBRANCH  20  21
ENDBRANCH   1  20
TORSDOF 9
ENDMDL
MODEL 5
REMARK VINA RESULT:      -8.6      1.797      4.024
REMARK  9 active torsions:
REMARK  status: ('A' for Active; 'I' for Inactive)
REMARK    1  A    between atoms: C_6  and  N_7 
REMARK       I    between atoms: N_7  and  C_8 
REMARK    2  A    between atoms: C_8  and  C_9 
REMARK    3  A    between atoms: C_9  and  N_10 
REMARK       I    between atoms: N_10  and  C_11 
REMARK    4  A    between atoms: C_11  and  C_12 
REMARK    5  A    between atoms: C_12  and  S_13 
REMARK    6  A    between atoms: S_13  and  C_14 
REMARK    7  A    between atoms: N_15  and  C_16 
REMARK    8  A    between atoms: C_22  and  C_23 
REMARK    9  A    between atoms: C_23  and  N_24 
ROOT
HETATM    1  C   UNL     1      42.281 -12.773   2.117  1.00  0.00     0.185 C 
ENDROOT
BRANCH   1   2
HETATM    2  C   UNL     1      42.837 -13.585   3.275  1.00  0.00     0.227 C 
HETATM    3  N   UNL     1      41.886 -14.144   4.098  1.00  0.00    -0.352 N 
HETATM    4  H   UNL     1      40.910 -13.893   3.985  1.00  0.00     0.162 HD
HETATM    5  O   UNL     1      44.039 -13.687   3.520  1.00  0.00    -0.273 OA
BRANCH   3   6
HETATM    6  C   UNL     1      42.231 -14.991   5.232  1.00  0.00     0.225 C 
BRANCH   6   7
HETATM    7  C   UNL     1      42.263 -16.491   4.904  1.00  0.00     0.239 C 
HETATM    8  N   UNL     1      43.342 -16.853   4.111  1.00  0.00    -0.325 N 
HETATM    9  H   UNL     1      43.747 -16.064   3.609  1.00  0.00     0.169 HD
HETATM   10  O   UNL     1      41.316 -17.214   5.201  1.00  0.00    -0.271 OA
BRANCH   8  11
HETATM   11  C   UNL     1      43.571 -18.142   3.575  1.00  0.00     0.046 A 
HETATM   12  C   UNL     1      44.363 -19.037   4.336  1.00  0.00    -0.034 A 
HETATM   13  C   UNL     1      44.655 -20.314   3.826  1.00  0.00     0.015 A 
HETATM   14  C   UNL     1      44.970 -18.643   5.657  1.00  0.00     0.050 C 
HETATM   15  C   UNL     1      44.175 -20.718   2.578  1.00  0.00    -0.061 A 
HETATM   16  C   UNL     1      44.501 -22.076   2.032  1.00  0.00     0.048 C 
HETATM   17  C   UNL     1      43.344 -19.854   1.865  1.00  0.00     0.015 A 
HETATM   18  C   UNL     1      43.012 -18.576   2.355  1.00  0.00    -0.034 A 
HETATM   19  C   UNL     1      42.047 -17.767   1.530  1.00  0.00     0.050 C 
ENDBRANCH   8  11
ENDBRANCH   6   7
ENDBRANCH   3   6
ENDBRANCH   1   2
BRANCH   1  20
HETATM   20  S   UNL     1      40.679 -12.058   2.590  1.00  0.00    -0.081 SA
BRANCH  20  21
HETATM   21  C   UNL     1      39.627 -12.805   1.432  1.00  0.00     0.196 A 
HETATM   22  N   UNL     1      39.529 -12.447   0.100  1.00  0.00    -0.274 N 
HETATM   23  C   UNL     1      38.476 -13.218  -0.372  1.00  0.00     0.161 A 
HETATM   24  N   UNL     1      37.969 -13.940   0.608  1.00  0.00    -0.132 NA
HETATM   25  N   UNL     1      38.687 -13.673   1.734  1.00  0.00    -0.122 NA
BRANCH  22  26
HETATM   26  C   UNL     1      40.332 -11.572  -0.668  1.00  0.00     0.043 A 
HETATM   27  C   UNL     1      40.006 -10.215  -0.764  1.00  0.00     0.030 A 
HETATM   28  C   UNL     1      40.837  -9.353  -1.482  1.00  0.00     0.002 A 
HETATM   29  C   UNL     1      41.981  -9.843  -2.111  1.00  0.00     0.000 A 
HETATM   30  C   UNL     1      42.302 -11.197  -2.026  1.00  0.00     0.002 A 
HETATM   31  C   UNL     1      41.482 -12.065  -1.303  1.00  0.00     0.030 A 
ENDBRANCH  22  26
BRANCH  23  32
HETATM   32  C   UNL     1      38.080 -13.393  -1.792  1.00  0.00     0.315 C 
BRANCH  32  33
HETATM   33  N   UNL     1      38.412 -14.794  -2.260  1.00  0.00    -0.064 N 
HETATM   34  H   UNL     1      38.056 -15.410  -1.509  1.00  0.00     0.280 HD
HETATM   35  C   UNL     1      39.899 -15.079  -2.369  1.00  0.00     0.235 C 
HETATM   36  C   UNL     1      40.103 -15.447  -3.826  1.00  0.00     0.029 C 
HETATM   37  C   UNL     1      38.791 -16.098  -4.212  1.00  0.00     0.029 C 
HETATM   38  C   UNL     1      37.764 -15.195  -3.557  1.00  0.00     0.235 C 
ENDBRANCH  32  33
ENDBRANCH  23  32
ENDBRANCH  20  21
ENDBRANCH   1  20
TORSDOF 9
ENDMDL
MODEL 6
REMARK VINA RESULT:      -8.6      1.292      3.639
REMARK  9 active torsions:
REMARK  status: ('A' for Active; 'I' for Inactive)
REMARK    1  A    between atoms: C_6  and  N_7 
REMARK       I    between atoms: N_7  and  C_8 
REMARK    2  A    between atoms: C_8  and  C_9 
REMARK    3  A    between atoms: C_9  and  N_10 
REMARK       I    between atoms: N_10  and  C_11 
REMARK    4  A    between atoms: C_11  and  C_12 
REMARK    5  A    between atoms: C_12  and  S_13 
REMARK    6  A    between atoms: S_13  and  C_14 
REMARK    7  A    between atoms: N_15  and  C_16 
REMARK    8  A    between atoms: C_22  and  C_23 
REMARK    9  A    between atoms: C_23  and  N_24 
ROOT
HETATM    1  C   UNL     1      39.883 -12.992   2.931  1.00  0.00     0.185 C 
ENDROOT
BRANCH   1   2
HETATM    2  C   UNL     1      40.284 -13.832   4.132  1.00  0.00     0.227 C 
HETATM    3  N   UNL     1      41.557 -14.354   4.073  1.00  0.00    -0.352 N 
HETATM    4  H   UNL     1      42.096 -14.275   3.217  1.00  0.00     0.162 HD
HETATM    5  O   UNL     1      39.523 -14.101   5.061  1.00  0.00    -0.273 OA
BRANCH   3   6
HETATM    6  C   UNL     1      42.130 -15.148   5.152  1.00  0.00     0.225 C 
BRANCH   6   7
HETATM    7  C   UNL     1      42.200 -16.653   4.851  1.00  0.00     0.239 C 
HETATM    8  N   UNL     1      43.290 -17.003   4.068  1.00  0.00    -0.325 N 
HETATM    9  H   UNL     1      43.678 -16.213   3.554  1.00  0.00     0.169 HD
HETATM   10  O   UNL     1      41.269 -17.393   5.158  1.00  0.00    -0.271 OA
BRANCH   8  11
HETATM   11  C   UNL     1      43.552 -18.296   3.557  1.00  0.00     0.046 A 
HETATM   12  C   UNL     1      44.384 -19.148   4.323  1.00  0.00    -0.034 A 
HETATM   13  C   UNL     1      44.708 -20.425   3.836  1.00  0.00     0.015 A 
HETATM   14  C   UNL     1      44.998 -18.706   5.625  1.00  0.00     0.050 C 
HETATM   15  C   UNL     1      44.222 -20.872   2.606  1.00  0.00    -0.061 A 
HETATM   16  C   UNL     1      44.583 -22.231   2.083  1.00  0.00     0.048 C 
HETATM   17  C   UNL     1      43.353 -20.050   1.887  1.00  0.00     0.015 A 
HETATM   18  C   UNL     1      42.988 -18.773   2.355  1.00  0.00    -0.034 A 
HETATM   19  C   UNL     1      41.984 -18.014   1.529  1.00  0.00     0.050 C 
ENDBRANCH   8  11
ENDBRANCH   6   7
ENDBRANCH   3   6
ENDBRANCH   1   2
BRANCH   1  20
HETATM   20  S   UNL     1      41.374 -12.389   2.085  1.00  0.00    -0.081 SA
BRANCH  20  21
HETATM   21  C   UNL     1      41.354 -13.356   0.647  1.00  0.00     0.196 A 
HETATM   22  N   UNL     1      41.483 -12.868  -0.641  1.00  0.00    -0.274 N 
HETATM   23  C   UNL     1      41.266 -13.983  -1.439  1.00  0.00     0.161 A 
HETATM   24  N   UNL     1      40.992 -15.031  -0.688  1.00  0.00    -0.132 NA
HETATM   25  N   UNL     1      41.041 -14.633   0.614  1.00  0.00    -0.122 NA
BRANCH  22  26
HETATM   26  C   UNL     1      41.830 -11.573  -1.092  1.00  0.00     0.043 A 
HETATM   27  C   UNL     1      43.170 -11.239  -1.316  1.00  0.00     0.030 A 
HETATM   28  C   UNL     1      43.493  -9.975  -1.812  1.00  0.00     0.002 A 
HETATM   29  C   UNL     1      42.488  -9.045  -2.073  1.00  0.00     0.000 A 
HETATM   30  C   UNL     1      41.153  -9.372  -1.841  1.00  0.00     0.002 A 
HETATM   31  C   UNL     1      40.818 -10.636  -1.353  1.00  0.00     0.030 A 
ENDBRANCH  22  26
BRANCH  23  32
HETATM   32  C   UNL     1      41.500 -14.077  -2.901  1.00  0.00     0.315 C 
BRANCH  32  33
HETATM   33  N   UNL     1      40.180 -14.167  -3.638  1.00  0.00    -0.064 N 
HETATM   34  H   UNL     1      40.382 -13.792  -4.581  1.00  0.00     0.280 HD
HETATM   35  C   UNL     1      39.084 -13.290  -3.063  1.00  0.00     0.235 C 
HETATM   36  C   UNL     1      37.983 -14.265  -2.690  1.00  0.00     0.029 C 
HETATM   37  C   UNL     1      38.133 -15.373  -3.712  1.00  0.00     0.029 C 
HETATM   38  C   UNL     1      39.635 -15.562  -3.784  1.00  0.00     0.235 C 
ENDBRANCH  32  33
ENDBRANCH  23  32
ENDBRANCH  20  21
ENDBRANCH   1  20
TORSDOF 9
ENDMDL
MODEL 7
REMARK VINA RESULT:      -8.4      4.767      8.044
REMARK  9 active torsions:
REMARK  status: ('A' for Active; 'I' for Inactive)
REMARK    1  A    between atoms: C_6  and  N_7 
REMARK       I    between atoms: N_7  and  C_8 
REMARK    2  A    between atoms: C_8  and  C_9 
REMARK    3  A    between atoms: C_9  and  N_10 
REMARK       I    between atoms: N_10  and  C_11 
REMARK    4  A    between atoms: C_11  and  C_12 
REMARK    5  A    between atoms: C_12  and  S_13 
REMARK    6  A    between atoms: S_13  and  C_14 
REMARK    7  A    between atoms: N_15  and  C_16 
REMARK    8  A    between atoms: C_22  and  C_23 
REMARK    9  A    between atoms: C_23  and  N_24 
ROOT
HETATM    1  C   UNL     1      43.073 -15.057   5.880  1.00  0.00     0.185 C 
ENDROOT
BRANCH   1   2
HETATM    2  C   UNL     1      42.808 -13.602   5.529  1.00  0.00     0.227 C 
HETATM    3  N   UNL     1      42.043 -12.918   6.446  1.00  0.00    -0.352 N 
HETATM    4  H   UNL     1      41.597 -13.419   7.207  1.00  0.00     0.162 HD
HETATM    5  O   UNL     1      43.176 -13.076   4.479  1.00  0.00    -0.273 OA
BRANCH   3   6
HETATM    6  C   UNL     1      41.723 -11.503   6.300  1.00  0.00     0.225 C 
BRANCH   6   7
HETATM    7  C   UNL     1      42.070 -10.654   7.532  1.00  0.00     0.239 C 
HETATM    8  N   UNL     1      42.172 -11.401   8.698  1.00  0.00    -0.325 N 
HETATM    9  H   UNL     1      41.699 -12.301   8.634  1.00  0.00     0.169 HD
HETATM   10  O   UNL     1      42.078  -9.429   7.462  1.00  0.00    -0.271 OA
BRANCH   8  11
HETATM   11  C   UNL     1      42.383 -10.874   9.994  1.00  0.00     0.046 A 
HETATM   12  C   UNL     1      43.721 -10.758  10.445  1.00  0.00    -0.034 A 
HETATM   13  C   UNL     1      43.978 -10.282  11.741  1.00  0.00     0.015 A 
HETATM   14  C   UNL     1      44.889 -11.197   9.602  1.00  0.00     0.050 C 
HETATM   15  C   UNL     1      42.936  -9.917  12.596  1.00  0.00    -0.061 A 
HETATM   16  C   UNL     1      43.216  -9.423  13.984  1.00  0.00     0.048 C 
HETATM   17  C   UNL     1      41.625  -9.975  12.121  1.00  0.00     0.015 A 
HETATM   18  C   UNL     1      41.331 -10.426  10.820  1.00  0.00    -0.034 A 
HETATM   19  C   UNL     1      39.887 -10.370  10.397  1.00  0.00     0.050 C 
ENDBRANCH   8  11
ENDBRANCH   6   7
ENDBRANCH   3   6
ENDBRANCH   1   2
BRANCH   1  20
HETATM   20  S   UNL     1      41.509 -15.980   5.867  1.00  0.00    -0.081 SA
BRANCH  20  21
HETATM   21  C   UNL     1      40.786 -15.391   4.406  1.00  0.00     0.196 A 
HETATM   22  N   UNL     1      41.212 -15.702   3.127  1.00  0.00    -0.274 N 
HETATM   23  C   UNL     1      40.428 -14.895   2.314  1.00  0.00     0.161 A 
HETATM   24  N   UNL     1      39.636 -14.142   3.052  1.00  0.00    -0.132 NA
HETATM   25  N   UNL     1      39.869 -14.450   4.358  1.00  0.00    -0.122 NA
BRANCH  22  26
HETATM   26  C   UNL     1      42.156 -16.660   2.691  1.00  0.00     0.043 A 
HETATM   27  C   UNL     1      41.840 -18.022   2.706  1.00  0.00     0.030 A 
HETATM   28  C   UNL     1      42.761 -18.952   2.223  1.00  0.00     0.002 A 
HETATM   29  C   UNL     1      43.998 -18.528   1.737  1.00  0.00     0.000 A 
HETATM   30  C   UNL     1      44.320 -17.171   1.731  1.00  0.00     0.002 A 
HETATM   31  C   UNL     1      43.401 -16.233   2.203  1.00  0.00     0.030 A 
ENDBRANCH  22  26
BRANCH  23  32
HETATM   32  C   UNL     1      40.315 -14.980   0.837  1.00  0.00     0.315 C 
BRANCH  32  33
HETATM   33  N   UNL     1      40.977 -13.782   0.190  1.00  0.00    -0.064 N 
HETATM   34  H   UNL     1      41.447 -14.165  -0.647  1.00  0.00     0.280 HD
HETATM   35  C   UNL     1      42.068 -13.145   1.031  1.00  0.00     0.235 C 
HETATM   36  C   UNL     1      41.596 -11.717   1.235  1.00  0.00     0.029 C 
HETATM   37  C   UNL     1      40.816 -11.420  -0.030  1.00  0.00     0.029 C 
HETATM   38  C   UNL     1      40.029 -12.698  -0.246  1.00  0.00     0.235 C 
ENDBRANCH  32  33
ENDBRANCH  23  32
ENDBRANCH  20  21
ENDBRANCH   1  20
TORSDOF 9
ENDMDL
MODEL 8
REMARK VINA RESULT:      -8.3      2.926      8.146
REMARK  9 active torsions:
REMARK  status: ('A' for Active; 'I' for Inactive)
REMARK    1  A    between atoms: C_6  and  N_7 
REMARK       I    between atoms: N_7  and  C_8 
REMARK    2  A    between atoms: C_8  and  C_9 
REMARK    3  A    between atoms: C_9  and  N_10 
REMARK       I    between atoms: N_10  and  C_11 
REMARK    4  A    between atoms: C_11  and  C_12 
REMARK    5  A    between atoms: C_12  and  S_13 
REMARK    6  A    between atoms: S_13  and  C_14 
REMARK    7  A    between atoms: N_15  and  C_16 
REMARK    8  A    between atoms: C_22  and  C_23 
REMARK    9  A    between atoms: C_23  and  N_24 
ROOT
HETATM    1  C   UNL     1      42.409 -12.914   6.008  1.00  0.00     0.185 C 
ENDROOT
BRANCH   1   2
HETATM    2  C   UNL     1      41.367 -12.016   5.362  1.00  0.00     0.227 C 
HETATM    3  N   UNL     1      40.177 -12.639   5.058  1.00  0.00    -0.352 N 
HETATM    4  H   UNL     1      40.097 -13.645   5.148  1.00  0.00     0.162 HD
HETATM    5  O   UNL     1      41.574 -10.842   5.056  1.00  0.00    -0.273 OA
BRANCH   3   6
HETATM    6  C   UNL     1      39.047 -11.927   4.475  1.00  0.00     0.225 C 
BRANCH   6   7
HETATM    7  C   UNL     1      39.012 -11.962   2.940  1.00  0.00     0.239 C 
HETATM    8  N   UNL     1      39.495 -13.150   2.411  1.00  0.00    -0.325 N 
HETATM    9  H   UNL     1      40.083 -13.665   3.065  1.00  0.00     0.169 HD
HETATM   10  O   UNL     1      38.732 -10.952   2.301  1.00  0.00    -0.271 OA
BRANCH   8  11
HETATM   11  C   UNL     1      39.671 -13.423   1.034  1.00  0.00     0.046 A 
HETATM   12  C   UNL     1      40.976 -13.287   0.500  1.00  0.00    -0.034 A 
HETATM   13  C   UNL     1      41.192 -13.505  -0.872  1.00  0.00     0.015 A 
HETATM   14  C   UNL     1      42.142 -12.844   1.343  1.00  0.00     0.050 C 
HETATM   15  C   UNL     1      40.141 -13.856  -1.720  1.00  0.00    -0.061 A 
HETATM   16  C   UNL     1      40.374 -14.074  -3.186  1.00  0.00     0.048 C 
HETATM   17  C   UNL     1      38.871 -14.050  -1.174  1.00  0.00     0.015 A 
HETATM   18  C   UNL     1      38.622 -13.862   0.199  1.00  0.00    -0.034 A 
HETATM   19  C   UNL     1      37.230 -14.176   0.681  1.00  0.00     0.050 C 
ENDBRANCH   8  11
ENDBRANCH   6   7
ENDBRANCH   3   6
ENDBRANCH   1   2
BRANCH   1  20
HETATM   20  S   UNL     1      43.377 -13.749   4.718  1.00  0.00    -0.081 SA
BRANCH  20  21
HETATM   21  C   UNL     1      43.401 -15.374   5.319  1.00  0.00     0.196 A 
HETATM   22  N   UNL     1      42.859 -16.470   4.672  1.00  0.00    -0.274 N 
HETATM   23  C   UNL     1      42.997 -17.499   5.593  1.00  0.00     0.161 A 
HETATM   24  N   UNL     1      43.536 -17.042   6.705  1.00  0.00    -0.132 NA
HETATM   25  N   UNL     1      43.780 -15.712   6.532  1.00  0.00    -0.122 NA
BRANCH  22  26
HETATM   26  C   UNL     1      42.348 -16.589   3.358  1.00  0.00     0.043 A 
HETATM   27  C   UNL     1      43.218 -16.702   2.269  1.00  0.00     0.030 A 
HETATM   28  C   UNL     1      42.700 -16.871   0.984  1.00  0.00     0.002 A 
HETATM   29  C   UNL     1      41.321 -16.917   0.784  1.00  0.00     0.000 A 
HETATM   30  C   UNL     1      40.451 -16.794   1.867  1.00  0.00     0.002 A 
HETATM   31  C   UNL     1      40.960 -16.633   3.156  1.00  0.00     0.030 A 
ENDBRANCH  22  26
BRANCH  23  32
HETATM   32  C   UNL     1      42.778 -18.945   5.336  1.00  0.00     0.315 C 
BRANCH  32  33
HETATM   33  N   UNL     1      44.105 -19.654   5.171  1.00  0.00    -0.064 N 
HETATM   34  H   UNL     1      44.800 -19.006   5.579  1.00  0.00     0.280 HD
HETATM   35  C   UNL     1      44.523 -19.864   3.727  1.00  0.00     0.235 C 
HETATM   36  C   UNL     1      44.656 -21.369   3.591  1.00  0.00     0.029 C 
HETATM   37  C   UNL     1      45.087 -21.811   4.975  1.00  0.00     0.029 C 
HETATM   38  C   UNL     1      44.206 -20.976   5.883  1.00  0.00     0.235 C 
ENDBRANCH  32  33
ENDBRANCH  23  32
ENDBRANCH  20  21
ENDBRANCH   1  20
TORSDOF 9
ENDMDL
MODEL 9
REMARK VINA RESULT:      -8.1      2.125      3.500
REMARK  9 active torsions:
REMARK  status: ('A' for Active; 'I' for Inactive)
REMARK    1  A    between atoms: C_6  and  N_7 
REMARK       I    between atoms: N_7  and  C_8 
REMARK    2  A    between atoms: C_8  and  C_9 
REMARK    3  A    between atoms: C_9  and  N_10 
REMARK       I    between atoms: N_10  and  C_11 
REMARK    4  A    between atoms: C_11  and  C_12 
REMARK    5  A    between atoms: C_12  and  S_13 
REMARK    6  A    between atoms: S_13  and  C_14 
REMARK    7  A    between atoms: N_15  and  C_16 
REMARK    8  A    between atoms: C_22  and  C_23 
REMARK    9  A    between atoms: C_23  and  N_24 
ROOT
HETATM    1  C   UNL     1      39.558 -12.804   4.031  1.00  0.00     0.185 C 
ENDROOT
BRANCH   1   2
HETATM    2  C   UNL     1      40.472 -13.430   5.072  1.00  0.00     0.227 C 
HETATM    3  N   UNL     1      41.426 -14.283   4.565  1.00  0.00    -0.352 N 
HETATM    4  H   UNL     1      41.396 -14.550   3.587  1.00  0.00     0.162 HD
HETATM    5  O   UNL     1      40.340 -13.260   6.284  1.00  0.00    -0.273 OA
BRANCH   3   6
HETATM    6  C   UNL     1      42.417 -14.940   5.407  1.00  0.00     0.225 C 
BRANCH   6   7
HETATM    7  C   UNL     1      42.397 -16.473   5.315  1.00  0.00     0.239 C 
HETATM    8  N   UNL     1      43.665 -17.036   5.300  1.00  0.00    -0.325 N 
HETATM    9  H   UNL     1      44.389 -16.372   5.028  1.00  0.00     0.169 HD
HETATM   10  O   UNL     1      41.344 -17.070   5.110  1.00  0.00    -0.271 OA
BRANCH   8  11
HETATM   11  C   UNL     1      43.951 -18.410   5.125  1.00  0.00     0.046 A 
HETATM   12  C   UNL     1      43.951 -19.232   6.278  1.00  0.00    -0.034 A 
HETATM   13  C   UNL     1      44.272 -20.595   6.159  1.00  0.00     0.015 A 
HETATM   14  C   UNL     1      43.684 -18.681   7.653  1.00  0.00     0.050 C 
HETATM   15  C   UNL     1      44.591 -21.156   4.922  1.00  0.00    -0.061 A 
HETATM   16  C   UNL     1      44.947 -22.608   4.803  1.00  0.00     0.048 C 
HETATM   17  C   UNL     1      44.527 -20.352   3.783  1.00  0.00     0.015 A 
HETATM   18  C   UNL     1      44.187 -18.988   3.860  1.00  0.00    -0.034 A 
HETATM   19  C   UNL     1      44.076 -18.246   2.555  1.00  0.00     0.050 C 
ENDBRANCH   8  11
ENDBRANCH   6   7
ENDBRANCH   3   6
ENDBRANCH   1   2
BRANCH   1  20
HETATM   20  S   UNL     1      40.559 -11.962   2.771  1.00  0.00    -0.081 SA
BRANCH  20  21
HETATM   21  C   UNL     1      39.572 -12.177   1.363  1.00  0.00     0.196 A 
HETATM   22  N   UNL     1      39.523 -13.326   0.595  1.00  0.00    -0.274 N 
HETATM   23  C   UNL     1      38.716 -12.972  -0.478  1.00  0.00     0.161 A 
HETATM   24  N   UNL     1      38.353 -11.709  -0.373  1.00  0.00    -0.132 NA
HETATM   25  N   UNL     1      38.896 -11.215   0.775  1.00  0.00    -0.122 NA
BRANCH  22  26
HETATM   26  C   UNL     1      40.075 -14.606   0.836  1.00  0.00     0.043 A 
HETATM   27  C   UNL     1      39.458 -15.485   1.733  1.00  0.00     0.030 A 
HETATM   28  C   UNL     1      39.984 -16.763   1.921  1.00  0.00     0.002 A 
HETATM   29  C   UNL     1      41.126 -17.161   1.227  1.00  0.00     0.000 A 
HETATM   30  C   UNL     1      41.749 -16.284   0.341  1.00  0.00     0.002 A 
HETATM   31  C   UNL     1      41.226 -15.006   0.139  1.00  0.00     0.030 A 
ENDBRANCH  22  26
BRANCH  23  32
HETATM   32  C   UNL     1      38.152 -13.891  -1.497  1.00  0.00     0.315 C 
BRANCH  32  33
HETATM   33  N   UNL     1      38.968 -13.825  -2.771  1.00  0.00    -0.064 N 
HETATM   34  H   UNL     1      38.325 -13.418  -3.471  1.00  0.00     0.280 HD
HETATM   35  C   UNL     1      39.381 -15.179  -3.317  1.00  0.00     0.235 C 
HETATM   36  C   UNL     1      40.897 -15.127  -3.337  1.00  0.00     0.029 C 
HETATM   37  C   UNL     1      41.195 -13.662  -3.585  1.00  0.00     0.029 C 
HETATM   38  C   UNL     1      40.196 -12.960  -2.688  1.00  0.00     0.235 C 
ENDBRANCH  32  33
ENDBRANCH  23  32
ENDBRANCH  20  21
ENDBRANCH   1  20
TORSDOF 9
ENDMDL
MODEL 10
REMARK VINA RESULT:      -8.0      5.442      8.512
REMARK  9 active torsions:
REMARK  status: ('A' for Active; 'I' for Inactive)
REMARK    1  A    between atoms: C_6  and  N_7 
REMARK       I    between atoms: N_7  and  C_8 
REMARK    2  A    between atoms: C_8  and  C_9 
REMARK    3  A    between atoms: C_9  and  N_10 
REMARK       I    between atoms: N_10  and  C_11 
REMARK    4  A    between atoms: C_11  and  C_12 
REMARK    5  A    between atoms: C_12  and  S_13 
REMARK    6  A    between atoms: S_13  and  C_14 
REMARK    7  A    between atoms: N_15  and  C_16 
REMARK    8  A    between atoms: C_22  and  C_23 
REMARK    9  A    between atoms: C_23  and  N_24 
ROOT
HETATM    1  C   UNL     1      42.252 -13.742   5.287  1.00  0.00     0.185 C 
ENDROOT
BRANCH   1   2
HETATM    2  C   UNL     1      41.863 -12.305   5.589  1.00  0.00     0.227 C 
HETATM    3  N   UNL     1      42.021 -11.928   6.904  1.00  0.00    -0.352 N 
HETATM    4  H   UNL     1      42.248 -12.624   7.605  1.00  0.00     0.162 HD
HETATM    5  O   UNL     1      41.374 -11.541   4.756  1.00  0.00    -0.273 OA
BRANCH   3   6
HETATM    6  C   UNL     1      41.741 -10.576   7.371  1.00  0.00     0.225 C 
BRANCH   6   7
HETATM    7  C   UNL     1      41.411 -10.488   8.868  1.00  0.00     0.239 C 
HETATM    8  N   UNL     1      42.424  -9.908   9.618  1.00  0.00    -0.325 N 
HETATM    9  H   UNL     1      43.327  -9.930   9.146  1.00  0.00     0.169 HD
HETATM   10  O   UNL     1      40.412 -11.042   9.318  1.00  0.00    -0.271 OA
BRANCH   8  11
HETATM   11  C   UNL     1      42.436  -9.788  11.027  1.00  0.00     0.046 A 
HETATM   12  C   UNL     1      41.710  -8.715  11.599  1.00  0.00    -0.034 A 
HETATM   13  C   UNL     1      41.728  -8.528  12.992  1.00  0.00     0.015 A 
HETATM   14  C   UNL     1      40.966  -7.713  10.756  1.00  0.00     0.050 C 
HETATM   15  C   UNL     1      42.450  -9.384  13.825  1.00  0.00    -0.061 A 
HETATM   16  C   UNL     1      42.477  -9.172  15.310  1.00  0.00     0.048 C 
HETATM   17  C   UNL     1      43.110 -10.475  13.258  1.00  0.00     0.015 A 
HETATM   18  C   UNL     1      43.096 -10.707  11.869  1.00  0.00    -0.034 A 
HETATM   19  C   UNL     1      43.780 -11.958  11.387  1.00  0.00     0.050 C 
ENDBRANCH   8  11
ENDBRANCH   6   7
ENDBRANCH   3   6
ENDBRANCH   1   2
BRANCH   1  20
HETATM   20  S   UNL     1      43.609 -13.765   4.080  1.00  0.00    -0.081 SA
BRANCH  20  21
HETATM   21  C   UNL     1      42.729 -13.880   2.592  1.00  0.00     0.196 A 
HETATM   22  N   UNL     1      42.512 -15.049   1.884  1.00  0.00    -0.274 N 
HETATM   23  C   UNL     1      41.895 -14.619   0.717  1.00  0.00     0.161 A 
HETATM   24  N   UNL     1      41.793 -13.304   0.717  1.00  0.00    -0.132 NA
HETATM   25  N   UNL     1      42.322 -12.847   1.887  1.00  0.00    -0.122 NA
BRANCH  22  26
HETATM   26  C   UNL     1      42.764 -16.392   2.248  1.00  0.00     0.043 A 
HETATM   27  C   UNL     1      43.776 -17.119   1.612  1.00  0.00     0.030 A 
HETATM   28  C   UNL     1      44.049 -18.426   2.018  1.00  0.00     0.002 A 
HETATM   29  C   UNL     1      43.309 -19.011   3.046  1.00  0.00     0.000 A 
HETATM   30  C   UNL     1      42.293 -18.292   3.674  1.00  0.00     0.002 A 
HETATM   31  C   UNL     1      42.019 -16.981   3.281  1.00  0.00     0.030 A 
ENDBRANCH  22  26
BRANCH  23  32
HETATM   32  C   UNL     1      41.247 -15.478  -0.304  1.00  0.00     0.315 C 
BRANCH  32  33
HETATM   33  N   UNL     1      40.890 -14.661  -1.527  1.00  0.00    -0.064 N 
HETATM   34  H   UNL     1      41.549 -13.864  -1.510  1.00  0.00     0.280 HD
HETATM   35  C   UNL     1      39.499 -14.057  -1.488  1.00  0.00     0.235 C 
HETATM   36  C   UNL     1      38.806 -14.635  -2.708  1.00  0.00     0.029 C 
HETATM   37  C   UNL     1      39.936 -14.822  -3.699  1.00  0.00     0.029 C 
HETATM   38  C   UNL     1      41.049 -15.385  -2.837  1.00  0.00     0.235 C 
ENDBRANCH  32  33
ENDBRANCH  23  32
ENDBRANCH  20  21
ENDBRANCH   1  20
TORSDOF 9
ENDMDL
