MODEL 1
REMARK VINA RESULT:      -7.7      0.000      0.000
REMARK  6 active torsions:
REMARK  status: ('A' for Active; 'I' for Inactive)
REMARK    1  A    between atoms: C_2  and  O_3 
REMARK    2  A    between atoms: O_3  and  C_4 
REMARK    3  A    between atoms: C_4  and  C_5 
REMARK    4  A    between atoms: C_6  and  O_7 
REMARK    5  A    between atoms: C_12  and  O_13 
REMARK    6  A    between atoms: C_17  and  C_18 
ROOT
HETATM    1  C   UNL     1      43.833 -17.283   5.809  1.00  0.00     0.133 C 
HETATM    2  C   UNL     1      44.113 -18.034   7.153  1.00  0.00     0.073 C 
HETATM    3  C   UNL     1      43.513 -17.329   8.380  1.00  0.00     0.047 C 
HETATM    4  C   UNL     1      43.649 -19.520   7.138  1.00  0.00     0.097 C 
HETATM    5  C   UNL     1      44.076 -20.156   5.869  1.00  0.00     0.042 A 
HETATM    6  C   UNL     1      44.366 -19.514   4.685  1.00  0.00     0.030 A 
HETATM    7  C   UNL     1      44.797 -20.563   3.853  1.00  0.00     0.190 A 
HETATM    8  N   UNL     1      44.762 -21.756   4.434  1.00  0.00    -0.149 NA
HETATM    9  N   UNL     1      44.325 -21.482   5.676  1.00  0.00    -0.279 N 
HETATM   10  H   UNL     1      44.243 -22.248   6.336  1.00  0.00     0.189 HD
HETATM   11  C   UNL     1      44.299 -18.032   4.520  1.00  0.00     0.074 C 
ENDROOT
BRANCH  11  12
HETATM   12  C   UNL     1      43.490 -17.759   3.258  1.00  0.00    -0.048 A 
HETATM   13  C   UNL     1      42.394 -18.559   2.872  1.00  0.00     0.011 A 
HETATM   14  C   UNL     1      41.670 -18.278   1.714  1.00  0.00     0.043 A 
HETATM   15  C   UNL     1      42.024 -17.186   0.936  1.00  0.00     0.116 A 
HETATM   16  F   UNL     1      41.326 -16.909  -0.173  1.00  0.00    -0.206 F 
HETATM   17  C   UNL     1      43.090 -16.370   1.298  1.00  0.00     0.043 A 
HETATM   18  C   UNL     1      43.819 -16.652   2.456  1.00  0.00     0.011 A 
ENDBRANCH  11  12
BRANCH   1  19
HETATM   19  C   UNL     1      42.390 -16.824   5.740  1.00  0.00     0.267 C 
HETATM   20  O   UNL     1      41.418 -17.557   5.627  1.00  0.00    -0.265 OA
BRANCH  19  21
HETATM   21  O   UNL     1      42.346 -15.467   5.878  1.00  0.00    -0.316 OA
BRANCH  21  22
HETATM   22  C   UNL     1      43.529 -14.729   5.522  1.00  0.00     0.123 C 
HETATM   23  C   UNL     1      44.054 -13.985   6.742  1.00  0.00     0.040 C 
HETATM   24  C   UNL     1      43.122 -13.749   4.427  1.00  0.00     0.040 C 
ENDBRANCH  21  22
ENDBRANCH  19  21
ENDBRANCH   1  19
BRANCH   2  25
HETATM   25  O   UNL     1      45.545 -18.033   7.359  1.00  0.00    -0.389 OA
HETATM   26  H   UNL     1      45.726 -18.145   8.309  1.00  0.00     0.210 HD
ENDBRANCH   2  25
BRANCH   7  27
HETATM   27  O   UNL     1      45.226 -20.530   2.590  1.00  0.00    -0.343 OA
HETATM   28  H   UNL     1      46.137 -20.201   2.567  1.00  0.00     0.219 HD
ENDBRANCH   7  27
TORSDOF 6
ENDMDL
MODEL 2
REMARK VINA RESULT:      -7.3      3.595      5.592
REMARK  6 active torsions:
REMARK  status: ('A' for Active; 'I' for Inactive)
REMARK    1  A    between atoms: C_2  and  O_3 
REMARK    2  A    between atoms: O_3  and  C_4 
REMARK    3  A    between atoms: C_4  and  C_5 
REMARK    4  A    between atoms: C_6  and  O_7 
REMARK    5  A    between atoms: C_12  and  O_13 
REMARK    6  A    between atoms: C_17  and  C_18 
ROOT
HETATM    1  C   UNL     1      43.428 -16.640   3.307  1.00  0.00     0.133 C 
HETATM    2  C   UNL     1      43.551 -17.743   2.205  1.00  0.00     0.073 C 
HETATM    3  C   UNL     1      44.028 -19.099   2.751  1.00  0.00     0.047 C 
HETATM    4  C   UNL     1      42.242 -17.952   1.390  1.00  0.00     0.097 C 
HETATM    5  C   UNL     1      41.682 -16.632   1.012  1.00  0.00     0.042 A 
HETATM    6  C   UNL     1      41.917 -15.429   1.640  1.00  0.00     0.030 A 
HETATM    7  C   UNL     1      41.227 -14.508   0.832  1.00  0.00     0.190 A 
HETATM    8  N   UNL     1      40.593 -15.067  -0.193  1.00  0.00    -0.149 NA
HETATM    9  N   UNL     1      40.894 -16.371  -0.069  1.00  0.00    -0.279 N 
HETATM   10  H   UNL     1      40.542 -17.013  -0.771  1.00  0.00     0.189 HD
HETATM   11  C   UNL     1      42.813 -15.287   2.826  1.00  0.00     0.074 C 
ENDROOT
BRANCH  11  12
HETATM   12  C   UNL     1      42.043 -14.492   3.875  1.00  0.00    -0.048 A 
HETATM   13  C   UNL     1      40.716 -14.804   4.240  1.00  0.00     0.011 A 
HETATM   14  C   UNL     1      40.043 -14.060   5.208  1.00  0.00     0.043 A 
HETATM   15  C   UNL     1      40.692 -13.006   5.832  1.00  0.00     0.116 A 
HETATM   16  F   UNL     1      40.050 -12.294   6.768  1.00  0.00    -0.206 F 
HETATM   17  C   UNL     1      42.004 -12.684   5.505  1.00  0.00     0.043 A 
HETATM   18  C   UNL     1      42.679 -13.425   4.533  1.00  0.00     0.011 A 
ENDBRANCH  11  12
BRANCH   1  19
HETATM   19  C   UNL     1      42.754 -17.191   4.547  1.00  0.00     0.267 C 
HETATM   20  O   UNL     1      41.637 -17.687   4.585  1.00  0.00    -0.265 OA
BRANCH  19  21
HETATM   21  O   UNL     1      43.613 -17.094   5.603  1.00  0.00    -0.316 OA
BRANCH  21  22
HETATM   22  C   UNL     1      43.153 -16.377   6.764  1.00  0.00     0.123 C 
HETATM   23  C   UNL     1      44.165 -15.303   7.135  1.00  0.00     0.040 C 
HETATM   24  C   UNL     1      43.019 -17.401   7.886  1.00  0.00     0.040 C 
ENDBRANCH  21  22
ENDBRANCH  19  21
ENDBRANCH   1  19
BRANCH   2  25
HETATM   25  O   UNL     1      44.573 -17.313   1.274  1.00  0.00    -0.389 OA
HETATM   26  H   UNL     1      44.741 -18.031   0.638  1.00  0.00     0.210 HD
ENDBRANCH   2  25
BRANCH   7  27
HETATM   27  O   UNL     1      41.119 -13.183   0.948  1.00  0.00    -0.343 OA
HETATM   28  H   UNL     1      41.627 -12.884   1.717  1.00  0.00     0.219 HD
ENDBRANCH   7  27
TORSDOF 6
ENDMDL
MODEL 3
REMARK VINA RESULT:      -7.2      3.754      5.579
REMARK  6 active torsions:
REMARK  status: ('A' for Active; 'I' for Inactive)
REMARK    1  A    between atoms: C_2  and  O_3 
REMARK    2  A    between atoms: O_3  and  C_4 
REMARK    3  A    between atoms: C_4  and  C_5 
REMARK    4  A    between atoms: C_6  and  O_7 
REMARK    5  A    between atoms: C_12  and  O_13 
REMARK    6  A    between atoms: C_17  and  C_18 
ROOT
HETATM    1  C   UNL     1      41.919 -14.193   4.963  1.00  0.00     0.133 C 
HETATM    2  C   UNL     1      41.124 -12.846   4.961  1.00  0.00     0.073 C 
HETATM    3  C   UNL     1      41.891 -11.686   5.618  1.00  0.00     0.047 C 
HETATM    4  C   UNL     1      40.653 -12.409   3.543  1.00  0.00     0.097 C 
HETATM    5  C   UNL     1      40.072 -13.575   2.837  1.00  0.00     0.042 A 
HETATM    6  C   UNL     1      40.323 -14.904   3.099  1.00  0.00     0.030 A 
HETATM    7  C   UNL     1      39.457 -15.572   2.215  1.00  0.00     0.190 A 
HETATM    8  N   UNL     1      38.744 -14.756   1.447  1.00  0.00    -0.149 NA
HETATM    9  N   UNL     1      39.130 -13.534   1.852  1.00  0.00    -0.279 N 
HETATM   10  H   UNL     1      38.691 -12.725   1.424  1.00  0.00     0.189 HD
HETATM   11  C   UNL     1      41.242 -15.364   4.182  1.00  0.00     0.074 C 
ENDROOT
BRANCH  11  12
HETATM   12  C   UNL     1      42.186 -16.388   3.561  1.00  0.00    -0.048 A 
HETATM   13  C   UNL     1      42.794 -16.194   2.303  1.00  0.00     0.011 A 
HETATM   14  C   UNL     1      43.658 -17.148   1.767  1.00  0.00     0.043 A 
HETATM   15  C   UNL     1      43.935 -18.299   2.487  1.00  0.00     0.116 A 
HETATM   16  F   UNL     1      44.770 -19.214   1.978  1.00  0.00    -0.206 F 
HETATM   17  C   UNL     1      43.363 -18.512   3.736  1.00  0.00     0.043 A 
HETATM   18  C   UNL     1      42.494 -17.560   4.274  1.00  0.00     0.011 A 
ENDBRANCH  11  12
BRANCH   1  19
HETATM   19  C   UNL     1      43.363 -13.967   4.561  1.00  0.00     0.267 C 
HETATM   20  O   UNL     1      43.738 -13.279   3.624  1.00  0.00    -0.265 OA
BRANCH  19  21
HETATM   21  O   UNL     1      44.178 -14.612   5.445  1.00  0.00    -0.316 OA
BRANCH  21  22
HETATM   22  C   UNL     1      43.803 -14.580   6.835  1.00  0.00     0.123 C 
HETATM   23  C   UNL     1      44.737 -13.650   7.595  1.00  0.00     0.040 C 
HETATM   24  C   UNL     1      43.923 -16.008   7.354  1.00  0.00     0.040 C 
ENDBRANCH  21  22
ENDBRANCH  19  21
ENDBRANCH   1  19
BRANCH   2  25
HETATM   25  O   UNL     1      39.939 -13.040   5.767  1.00  0.00    -0.389 OA
HETATM   26  H   UNL     1      39.646 -12.177   6.110  1.00  0.00     0.210 HD
ENDBRANCH   2  25
BRANCH   7  27
HETATM   27  O   UNL     1      39.256 -16.879   2.041  1.00  0.00    -0.343 OA
HETATM   28  H   UNL     1      39.740 -17.178   1.255  1.00  0.00     0.219 HD
ENDBRANCH   7  27
TORSDOF 6
ENDMDL
MODEL 4
REMARK VINA RESULT:      -7.1      3.886      5.919
REMARK  6 active torsions:
REMARK  status: ('A' for Active; 'I' for Inactive)
REMARK    1  A    between atoms: C_2  and  O_3 
REMARK    2  A    between atoms: O_3  and  C_4 
REMARK    3  A    between atoms: C_4  and  C_5 
REMARK    4  A    between atoms: C_6  and  O_7 
REMARK    5  A    between atoms: C_12  and  O_13 
REMARK    6  A    between atoms: C_17  and  C_18 
ROOT
HETATM    1  C   UNL     1      41.540 -14.159   3.558  1.00  0.00     0.133 C 
HETATM    2  C   UNL     1      41.153 -12.702   3.141  1.00  0.00     0.073 C 
HETATM    3  C   UNL     1      41.523 -11.648   4.197  1.00  0.00     0.047 C 
HETATM    4  C   UNL     1      41.743 -12.276   1.765  1.00  0.00     0.097 C 
HETATM    5  C   UNL     1      41.544 -13.370   0.785  1.00  0.00     0.042 A 
HETATM    6  C   UNL     1      41.356 -14.705   1.069  1.00  0.00     0.030 A 
HETATM    7  C   UNL     1      41.132 -15.271  -0.198  1.00  0.00     0.190 A 
HETATM    8  N   UNL     1      41.195 -14.395  -1.194  1.00  0.00    -0.149 NA
HETATM    9  N   UNL     1      41.439 -13.231  -0.568  1.00  0.00    -0.279 N 
HETATM   10  H   UNL     1      41.501 -12.388  -1.128  1.00  0.00     0.189 HD
HETATM   11  C   UNL     1      41.315 -15.246   2.460  1.00  0.00     0.074 C 
ENDROOT
BRANCH  11  12
HETATM   12  C   UNL     1      42.256 -16.445   2.501  1.00  0.00    -0.048 A 
HETATM   13  C   UNL     1      43.392 -16.545   1.670  1.00  0.00     0.011 A 
HETATM   14  C   UNL     1      44.237 -17.652   1.738  1.00  0.00     0.043 A 
HETATM   15  C   UNL     1      43.964 -18.665   2.645  1.00  0.00     0.116 A 
HETATM   16  F   UNL     1      44.777 -19.726   2.717  1.00  0.00    -0.206 F 
HETATM   17  C   UNL     1      42.860 -18.588   3.486  1.00  0.00     0.043 A 
HETATM   18  C   UNL     1      42.010 -17.481   3.418  1.00  0.00     0.011 A 
ENDBRANCH  11  12
BRANCH   1  19
HETATM   19  C   UNL     1      42.934 -14.196   4.152  1.00  0.00     0.267 C 
HETATM   20  O   UNL     1      43.959 -13.859   3.577  1.00  0.00    -0.265 OA
BRANCH  19  21
HETATM   21  O   UNL     1      42.856 -14.616   5.448  1.00  0.00    -0.316 OA
BRANCH  21  22
HETATM   22  C   UNL     1      43.991 -15.323   5.983  1.00  0.00     0.123 C 
HETATM   23  C   UNL     1      43.514 -16.555   6.740  1.00  0.00     0.040 C 
HETATM   24  C   UNL     1      44.707 -14.358   6.920  1.00  0.00     0.040 C 
ENDBRANCH  21  22
ENDBRANCH  19  21
ENDBRANCH   1  19
BRANCH   2  25
HETATM   25  O   UNL     1      39.712 -12.653   3.025  1.00  0.00    -0.389 OA
HETATM   26  H   UNL     1      39.439 -11.731   2.876  1.00  0.00     0.210 HD
ENDBRANCH   2  25
BRANCH   7  27
HETATM   27  O   UNL     1      40.872 -16.536  -0.535  1.00  0.00    -0.343 OA
HETATM   28  H   UNL     1      40.783 -17.071   0.268  1.00  0.00     0.219 HD
ENDBRANCH   7  27
TORSDOF 6
ENDMDL
MODEL 5
REMARK VINA RESULT:      -7.0      2.795      4.923
REMARK  6 active torsions:
REMARK  status: ('A' for Active; 'I' for Inactive)
REMARK    1  A    between atoms: C_2  and  O_3 
REMARK    2  A    between atoms: O_3  and  C_4 
REMARK    3  A    between atoms: C_4  and  C_5 
REMARK    4  A    between atoms: C_6  and  O_7 
REMARK    5  A    between atoms: C_12  and  O_13 
REMARK    6  A    between atoms: C_17  and  C_18 
ROOT
HETATM    1  C   UNL     1      42.674 -17.894   5.373  1.00  0.00     0.133 C 
HETATM    2  C   UNL     1      43.354 -17.625   6.756  1.00  0.00     0.073 C 
HETATM    3  C   UNL     1      44.340 -18.728   7.174  1.00  0.00     0.047 C 
HETATM    4  C   UNL     1      44.067 -16.244   6.836  1.00  0.00     0.097 C 
HETATM    5  C   UNL     1      43.182 -15.200   6.267  1.00  0.00     0.042 A 
HETATM    6  C   UNL     1      42.155 -15.393   5.370  1.00  0.00     0.030 A 
HETATM    7  C   UNL     1      41.600 -14.107   5.241  1.00  0.00     0.190 A 
HETATM    8  N   UNL     1      42.224 -13.181   5.960  1.00  0.00    -0.149 NA
HETATM    9  N   UNL     1      43.187 -13.876   6.591  1.00  0.00    -0.279 N 
HETATM   10  H   UNL     1      43.791 -13.380   7.238  1.00  0.00     0.189 HD
HETATM   11  C   UNL     1      41.773 -16.735   4.840  1.00  0.00     0.074 C 
ENDROOT
BRANCH  11  12
HETATM   12  C   UNL     1      41.676 -16.606   3.324  1.00  0.00    -0.048 A 
HETATM   13  C   UNL     1      42.497 -15.730   2.584  1.00  0.00     0.011 A 
HETATM   14  C   UNL     1      42.386 -15.641   1.197  1.00  0.00     0.043 A 
HETATM   15  C   UNL     1      41.466 -16.436   0.533  1.00  0.00     0.116 A 
HETATM   16  F   UNL     1      41.363 -16.358  -0.800  1.00  0.00    -0.206 F 
HETATM   17  C   UNL     1      40.653 -17.320   1.233  1.00  0.00     0.043 A 
HETATM   18  C   UNL     1      40.759 -17.409   2.623  1.00  0.00     0.011 A 
ENDBRANCH  11  12
BRANCH   1  19
HETATM   19  C   UNL     1      43.693 -18.370   4.356  1.00  0.00     0.267 C 
HETATM   20  O   UNL     1      44.645 -17.720   3.951  1.00  0.00    -0.265 OA
BRANCH  19  21
HETATM   21  O   UNL     1      43.407 -19.657   4.006  1.00  0.00    -0.316 OA
BRANCH  21  22
HETATM   22  C   UNL     1      44.483 -20.452   3.474  1.00  0.00     0.123 C 
HETATM   23  C   UNL     1      44.015 -21.169   2.216  1.00  0.00     0.040 C 
HETATM   24  C   UNL     1      44.864 -21.455   4.556  1.00  0.00     0.040 C 
ENDBRANCH  21  22
ENDBRANCH  19  21
ENDBRANCH   1  19
BRANCH   2  25
HETATM   25  O   UNL     1      42.312 -17.629   7.759  1.00  0.00    -0.389 OA
HETATM   26  H   UNL     1      41.742 -18.406   7.618  1.00  0.00     0.210 HD
ENDBRANCH   2  25
BRANCH   7  27
HETATM   27  O   UNL     1      40.561 -13.694   4.513  1.00  0.00    -0.343 OA
HETATM   28  H   UNL     1      40.138 -12.942   4.954  1.00  0.00     0.219 HD
ENDBRANCH   7  27
TORSDOF 6
ENDMDL
MODEL 6
REMARK VINA RESULT:      -7.0      1.874      2.104
REMARK  6 active torsions:
REMARK  status: ('A' for Active; 'I' for Inactive)
REMARK    1  A    between atoms: C_2  and  O_3 
REMARK    2  A    between atoms: O_3  and  C_4 
REMARK    3  A    between atoms: C_4  and  C_5 
REMARK    4  A    between atoms: C_6  and  O_7 
REMARK    5  A    between atoms: C_12  and  O_13 
REMARK    6  A    between atoms: C_17  and  C_18 
ROOT
HETATM    1  C   UNL     1      43.203 -16.351   5.597  1.00  0.00     0.133 C 
HETATM    2  C   UNL     1      43.754 -17.329   6.686  1.00  0.00     0.073 C 
HETATM    3  C   UNL     1      43.285 -16.982   8.108  1.00  0.00     0.047 C 
HETATM    4  C   UNL     1      43.436 -18.824   6.393  1.00  0.00     0.097 C 
HETATM    5  C   UNL     1      43.721 -19.117   4.969  1.00  0.00     0.042 A 
HETATM    6  C   UNL     1      43.766 -18.208   3.935  1.00  0.00     0.030 A 
HETATM    7  C   UNL     1      44.162 -18.993   2.838  1.00  0.00     0.190 A 
HETATM    8  N   UNL     1      44.328 -20.278   3.132  1.00  0.00    -0.149 NA
HETATM    9  N   UNL     1      44.062 -20.331   4.449  1.00  0.00    -0.279 N 
HETATM   10  H   UNL     1      44.153 -21.223   4.921  1.00  0.00     0.189 HD
HETATM   11  C   UNL     1      43.536 -16.745   4.122  1.00  0.00     0.074 C 
ENDROOT
BRANCH  11  12
HETATM   12  C   UNL     1      42.521 -16.314   3.069  1.00  0.00    -0.048 A 
HETATM   13  C   UNL     1      41.380 -17.083   2.757  1.00  0.00     0.011 A 
HETATM   14  C   UNL     1      40.467 -16.656   1.792  1.00  0.00     0.043 A 
HETATM   15  C   UNL     1      40.677 -15.451   1.140  1.00  0.00     0.116 A 
HETATM   16  F   UNL     1      39.798 -15.036   0.219  1.00  0.00    -0.206 F 
HETATM   17  C   UNL     1      41.784 -14.665   1.437  1.00  0.00     0.043 A 
HETATM   18  C   UNL     1      42.701 -15.091   2.399  1.00  0.00     0.011 A 
ENDBRANCH  11  12
BRANCH   1  19
HETATM   19  C   UNL     1      41.730 -16.073   5.819  1.00  0.00     0.267 C 
HETATM   20  O   UNL     1      40.869 -16.920   6.003  1.00  0.00    -0.265 OA
BRANCH  19  21
HETATM   21  O   UNL     1      41.527 -14.724   5.833  1.00  0.00    -0.316 OA
BRANCH  21  22
HETATM   22  C   UNL     1      40.165 -14.260   5.796  1.00  0.00     0.123 C 
HETATM   23  C   UNL     1      39.721 -14.093   4.350  1.00  0.00     0.040 C 
HETATM   24  C   UNL     1      40.137 -12.922   6.526  1.00  0.00     0.040 C 
ENDBRANCH  21  22
ENDBRANCH  19  21
ENDBRANCH   1  19
BRANCH   2  25
HETATM   25  O   UNL     1      45.194 -17.191   6.703  1.00  0.00    -0.389 OA
HETATM   26  H   UNL     1      45.501 -17.202   7.627  1.00  0.00     0.210 HD
ENDBRANCH   2  25
BRANCH   7  27
HETATM   27  O   UNL     1      44.387 -18.640   1.571  1.00  0.00    -0.343 OA
HETATM   28  H   UNL     1      43.991 -17.771   1.403  1.00  0.00     0.219 HD
ENDBRANCH   7  27
TORSDOF 6
ENDMDL
MODEL 7
REMARK VINA RESULT:      -7.0      4.070      6.763
REMARK  6 active torsions:
REMARK  status: ('A' for Active; 'I' for Inactive)
REMARK    1  A    between atoms: C_2  and  O_3 
REMARK    2  A    between atoms: O_3  and  C_4 
REMARK    3  A    between atoms: C_4  and  C_5 
REMARK    4  A    between atoms: C_6  and  O_7 
REMARK    5  A    between atoms: C_12  and  O_13 
REMARK    6  A    between atoms: C_17  and  C_18 
ROOT
HETATM    1  C   UNL     1      42.443 -15.225   2.744  1.00  0.00     0.133 C 
HETATM    2  C   UNL     1      41.555 -14.525   1.663  1.00  0.00     0.073 C 
HETATM    3  C   UNL     1      41.428 -15.336   0.362  1.00  0.00     0.047 C 
HETATM    4  C   UNL     1      40.133 -14.154   2.175  1.00  0.00     0.097 C 
HETATM    5  C   UNL     1      40.242 -13.530   3.516  1.00  0.00     0.042 A 
HETATM    6  C   UNL     1      41.278 -13.678   4.410  1.00  0.00     0.030 A 
HETATM    7  C   UNL     1      40.919 -12.813   5.459  1.00  0.00     0.190 A 
HETATM    8  N   UNL     1      39.759 -12.195   5.269  1.00  0.00    -0.149 NA
HETATM    9  N   UNL     1      39.364 -12.643   4.064  1.00  0.00    -0.279 N 
HETATM   10  H   UNL     1      38.498 -12.282   3.678  1.00  0.00     0.189 HD
HETATM   11  C   UNL     1      42.486 -14.510   4.131  1.00  0.00     0.074 C 
ENDROOT
BRANCH  11  12
HETATM   12  C   UNL     1      42.697 -15.411   5.343  1.00  0.00    -0.048 A 
HETATM   13  C   UNL     1      41.666 -16.208   5.883  1.00  0.00     0.011 A 
HETATM   14  C   UNL     1      41.894 -17.026   6.989  1.00  0.00     0.043 A 
HETATM   15  C   UNL     1      43.158 -17.069   7.558  1.00  0.00     0.116 A 
HETATM   16  F   UNL     1      43.381 -17.860   8.615  1.00  0.00    -0.206 F 
HETATM   17  C   UNL     1      44.198 -16.307   7.038  1.00  0.00     0.043 A 
HETATM   18  C   UNL     1      43.971 -15.483   5.933  1.00  0.00     0.011 A 
ENDBRANCH  11  12
BRANCH   1  19
HETATM   19  C   UNL     1      42.104 -16.699   2.846  1.00  0.00     0.267 C 
HETATM   20  O   UNL     1      40.976 -17.163   2.927  1.00  0.00    -0.265 OA
BRANCH  19  21
HETATM   21  O   UNL     1      43.256 -17.428   2.780  1.00  0.00    -0.316 OA
BRANCH  21  22
HETATM   22  C   UNL     1      43.212 -18.779   3.277  1.00  0.00     0.123 C 
HETATM   23  C   UNL     1      44.197 -18.932   4.427  1.00  0.00     0.040 C 
HETATM   24  C   UNL     1      43.596 -19.686   2.114  1.00  0.00     0.040 C 
ENDBRANCH  21  22
ENDBRANCH  19  21
ENDBRANCH   1  19
BRANCH   2  25
HETATM   25  O   UNL     1      42.215 -13.291   1.294  1.00  0.00    -0.389 OA
HETATM   26  H   UNL     1      41.544 -12.656   0.986  1.00  0.00     0.210 HD
ENDBRANCH   2  25
BRANCH   7  27
HETATM   27  O   UNL     1      41.563 -12.532   6.594  1.00  0.00    -0.343 OA
HETATM   28  H   UNL     1      42.204 -11.824   6.434  1.00  0.00     0.219 HD
ENDBRANCH   7  27
TORSDOF 6
ENDMDL
MODEL 8
REMARK VINA RESULT:      -6.9      3.759      6.285
REMARK  6 active torsions:
REMARK  status: ('A' for Active; 'I' for Inactive)
REMARK    1  A    between atoms: C_2  and  O_3 
REMARK    2  A    between atoms: O_3  and  C_4 
REMARK    3  A    between atoms: C_4  and  C_5 
REMARK    4  A    between atoms: C_6  and  O_7 
REMARK    5  A    between atoms: C_12  and  O_13 
REMARK    6  A    between atoms: C_17  and  C_18 
ROOT
HETATM    1  C   UNL     1      42.616 -15.171   3.816  1.00  0.00     0.133 C 
HETATM    2  C   UNL     1      41.982 -13.793   3.435  1.00  0.00     0.073 C 
HETATM    3  C   UNL     1      40.917 -13.899   2.331  1.00  0.00     0.047 C 
HETATM    4  C   UNL     1      41.382 -13.030   4.652  1.00  0.00     0.097 C 
HETATM    5  C   UNL     1      42.339 -13.081   5.783  1.00  0.00     0.042 A 
HETATM    6  C   UNL     1      43.334 -14.013   5.978  1.00  0.00     0.030 A 
HETATM    7  C   UNL     1      43.987 -13.545   7.131  1.00  0.00     0.190 A 
HETATM    8  N   UNL     1      43.450 -12.442   7.639  1.00  0.00    -0.149 NA
HETATM    9  N   UNL     1      42.445 -12.168   6.790  1.00  0.00    -0.279 N 
HETATM   10  H   UNL     1      41.892 -11.333   6.953  1.00  0.00     0.189 HD
HETATM   11  C   UNL     1      43.599 -15.136   5.030  1.00  0.00     0.074 C 
ENDROOT
BRANCH  11  12
HETATM   12  C   UNL     1      43.683 -16.412   5.860  1.00  0.00    -0.048 A 
HETATM   13  C   UNL     1      44.556 -17.471   5.535  1.00  0.00     0.011 A 
HETATM   14  C   UNL     1      44.612 -18.622   6.320  1.00  0.00     0.043 A 
HETATM   15  C   UNL     1      43.809 -18.722   7.446  1.00  0.00     0.116 A 
HETATM   16  F   UNL     1      43.867 -19.823   8.205  1.00  0.00    -0.206 F 
HETATM   17  C   UNL     1      42.950 -17.688   7.800  1.00  0.00     0.043 A 
HETATM   18  C   UNL     1      42.888 -16.535   7.013  1.00  0.00     0.011 A 
ENDBRANCH  11  12
BRANCH   1  19
HETATM   19  C   UNL     1      41.548 -16.238   3.948  1.00  0.00     0.267 C 
HETATM   20  O   UNL     1      40.507 -16.123   4.578  1.00  0.00    -0.265 OA
BRANCH  19  21
HETATM   21  O   UNL     1      41.910 -17.326   3.209  1.00  0.00    -0.316 OA
BRANCH  21  22
HETATM   22  C   UNL     1      42.625 -17.084   1.983  1.00  0.00     0.123 C 
HETATM   23  C   UNL     1      41.672 -17.206   0.803  1.00  0.00     0.040 C 
HETATM   24  C   UNL     1      43.723 -18.138   1.901  1.00  0.00     0.040 C 
ENDBRANCH  21  22
ENDBRANCH  19  21
ENDBRANCH   1  19
BRANCH   2  25
HETATM   25  O   UNL     1      43.036 -12.967   2.887  1.00  0.00    -0.389 OA
HETATM   26  H   UNL     1      42.936 -12.930   1.919  1.00  0.00     0.210 HD
ENDBRANCH   2  25
BRANCH   7  27
HETATM   27  O   UNL     1      45.045 -14.042   7.775  1.00  0.00    -0.343 OA
HETATM   28  H   UNL     1      44.904 -14.985   7.948  1.00  0.00     0.219 HD
ENDBRANCH   7  27
TORSDOF 6
ENDMDL
MODEL 9
REMARK VINA RESULT:      -6.7      2.589      4.206
REMARK  6 active torsions:
REMARK  status: ('A' for Active; 'I' for Inactive)
REMARK    1  A    between atoms: C_2  and  O_3 
REMARK    2  A    between atoms: O_3  and  C_4 
REMARK    3  A    between atoms: C_4  and  C_5 
REMARK    4  A    between atoms: C_6  and  O_7 
REMARK    5  A    between atoms: C_12  and  O_13 
REMARK    6  A    between atoms: C_17  and  C_18 
ROOT
HETATM    1  C   UNL     1      42.182 -15.404   3.806  1.00  0.00     0.133 C 
HETATM    2  C   UNL     1      41.594 -14.533   4.965  1.00  0.00     0.073 C 
HETATM    3  C   UNL     1      40.322 -13.769   4.566  1.00  0.00     0.047 C 
HETATM    4  C   UNL     1      41.319 -15.341   6.266  1.00  0.00     0.097 C 
HETATM    5  C   UNL     1      42.479 -16.217   6.556  1.00  0.00     0.042 A 
HETATM    6  C   UNL     1      43.416 -16.668   5.652  1.00  0.00     0.030 A 
HETATM    7  C   UNL     1      44.326 -17.370   6.461  1.00  0.00     0.190 A 
HETATM    8  N   UNL     1      43.994 -17.391   7.747  1.00  0.00    -0.149 NA
HETATM    9  N   UNL     1      42.861 -16.668   7.785  1.00  0.00    -0.279 N 
HETATM   10  H   UNL     1      42.421 -16.511   8.686  1.00  0.00     0.189 HD
HETATM   11  C   UNL     1      43.392 -16.309   4.203  1.00  0.00     0.074 C 
ENDROOT
BRANCH  11  12
HETATM   12  C   UNL     1      43.542 -17.608   3.419  1.00  0.00    -0.048 A 
HETATM   13  C   UNL     1      43.245 -18.869   3.977  1.00  0.00     0.011 A 
HETATM   14  C   UNL     1      43.388 -20.037   3.230  1.00  0.00     0.043 A 
HETATM   15  C   UNL     1      43.814 -19.958   1.913  1.00  0.00     0.116 A 
HETATM   16  F   UNL     1      43.944 -21.078   1.191  1.00  0.00    -0.206 F 
HETATM   17  C   UNL     1      44.099 -18.729   1.331  1.00  0.00     0.043 A 
HETATM   18  C   UNL     1      43.962 -17.557   2.078  1.00  0.00     0.011 A 
ENDBRANCH  11  12
BRANCH   1  19
HETATM   19  C   UNL     1      41.082 -16.164   3.092  1.00  0.00     0.267 C 
HETATM   20  O   UNL     1      40.570 -17.202   3.482  1.00  0.00    -0.265 OA
BRANCH  19  21
HETATM   21  O   UNL     1      40.718 -15.475   1.972  1.00  0.00    -0.316 OA
BRANCH  21  22
HETATM   22  C   UNL     1      41.746 -15.204   1.000  1.00  0.00     0.123 C 
HETATM   23  C   UNL     1      41.710 -13.731   0.616  1.00  0.00     0.040 C 
HETATM   24  C   UNL     1      41.450 -16.083  -0.209  1.00  0.00     0.040 C 
ENDBRANCH  21  22
ENDBRANCH  19  21
ENDBRANCH   1  19
BRANCH   2  25
HETATM   25  O   UNL     1      42.576 -13.521   5.287  1.00  0.00    -0.389 OA
HETATM   26  H   UNL     1      42.114 -12.720   5.590  1.00  0.00     0.210 HD
ENDBRANCH   2  25
BRANCH   7  27
HETATM   27  O   UNL     1      45.450 -18.007   6.128  1.00  0.00    -0.343 OA
HETATM   28  H   UNL     1      45.461 -18.163   5.171  1.00  0.00     0.219 HD
ENDBRANCH   7  27
TORSDOF 6
ENDMDL
MODEL 10
REMARK VINA RESULT:      -6.6      3.981      6.043
REMARK  6 active torsions:
REMARK  status: ('A' for Active; 'I' for Inactive)
REMARK    1  A    between atoms: C_2  and  O_3 
REMARK    2  A    between atoms: O_3  and  C_4 
REMARK    3  A    between atoms: C_4  and  C_5 
REMARK    4  A    between atoms: C_6  and  O_7 
REMARK    5  A    between atoms: C_12  and  O_13 
REMARK    6  A    between atoms: C_17  and  C_18 
ROOT
HETATM    1  C   UNL     1      41.116 -16.118   4.242  1.00  0.00     0.133 C 
HETATM    2  C   UNL     1      41.139 -15.970   5.799  1.00  0.00     0.073 C 
HETATM    3  C   UNL     1      42.072 -16.976   6.492  1.00  0.00     0.047 C 
HETATM    4  C   UNL     1      41.491 -14.532   6.278  1.00  0.00     0.097 C 
HETATM    5  C   UNL     1      40.719 -13.547   5.484  1.00  0.00     0.042 A 
HETATM    6  C   UNL     1      40.178 -13.741   4.232  1.00  0.00     0.030 A 
HETATM    7  C   UNL     1      39.487 -12.541   3.993  1.00  0.00     0.190 A 
HETATM    8  N   UNL     1      39.595 -11.657   4.979  1.00  0.00    -0.149 NA
HETATM    9  N   UNL     1      40.347 -12.299   5.889  1.00  0.00    -0.279 N 
HETATM   10  H   UNL     1      40.546 -11.828   6.766  1.00  0.00     0.189 HD
HETATM   11  C   UNL     1      40.294 -15.028   3.484  1.00  0.00     0.074 C 
ENDROOT
BRANCH  11  12
HETATM   12  C   UNL     1      40.773 -14.686   2.078  1.00  0.00    -0.048 A 
HETATM   13  C   UNL     1      41.557 -13.546   1.801  1.00  0.00     0.011 A 
HETATM   14  C   UNL     1      41.984 -13.265   0.503  1.00  0.00     0.043 A 
HETATM   15  C   UNL     1      41.646 -14.127  -0.528  1.00  0.00     0.116 A 
HETATM   16  F   UNL     1      42.062 -13.864  -1.774  1.00  0.00    -0.206 F 
HETATM   17  C   UNL     1      40.887 -15.266  -0.284  1.00  0.00     0.043 A 
HETATM   18  C   UNL     1      40.455 -15.548   1.014  1.00  0.00     0.011 A 
ENDBRANCH  11  12
BRANCH   1  19
HETATM   19  C   UNL     1      42.520 -16.288   3.697  1.00  0.00     0.267 C 
HETATM   20  O   UNL     1      43.431 -15.484   3.824  1.00  0.00    -0.265 OA
BRANCH  19  21
HETATM   21  O   UNL     1      42.619 -17.506   3.089  1.00  0.00    -0.316 OA
BRANCH  21  22
HETATM   22  C   UNL     1      43.856 -17.812   2.420  1.00  0.00     0.123 C 
HETATM   23  C   UNL     1      43.723 -17.507   0.935  1.00  0.00     0.040 C 
HETATM   24  C   UNL     1      44.120 -19.297   2.644  1.00  0.00     0.040 C 
ENDBRANCH  21  22
ENDBRANCH  19  21
ENDBRANCH   1  19
BRANCH   2  25
HETATM   25  O   UNL     1      39.808 -16.271   6.282  1.00  0.00    -0.389 OA
HETATM   26  H   UNL     1      39.848 -17.072   6.833  1.00  0.00     0.210 HD
ENDBRANCH   2  25
BRANCH   7  27
HETATM   27  O   UNL     1      38.756 -12.171   2.940  1.00  0.00    -0.343 OA
HETATM   28  H   UNL     1      38.276 -12.938   2.595  1.00  0.00     0.219 HD
ENDBRANCH   7  27
TORSDOF 6
ENDMDL
