MODEL 1
REMARK VINA RESULT:      -9.7      0.000      0.000
REMARK  7 active torsions:
REMARK  status: ('A' for Active; 'I' for Inactive)
REMARK    1  A    between atoms: O_2  and  C_3 
REMARK    2  A    between atoms: C_4  and  C_5 
REMARK    3  A    between atoms: N_10  and  C_12 
REMARK    4  A    between atoms: C_12  and  C_13 
REMARK       I    between atoms: C_13  and  N_14 
REMARK    5  A    between atoms: N_14  and  C_15 
REMARK    6  A    between atoms: C_15  and  C_16 
REMARK    7  A    between atoms: C_16  and  C_17 
ROOT
HETATM    1  C   UNL     1      43.473 -14.154   4.606  1.00  0.00     0.190 C 
HETATM    2  O   UNL     1      43.767 -14.525   3.245  1.00  0.00    -0.339 OA
HETATM    3  C   UNL     1      42.815 -15.261   2.609  1.00  0.00     0.077 A 
HETATM    4  C   UNL     1      41.554 -14.743   2.310  1.00  0.00     0.001 A 
HETATM    5  C   UNL     1      41.199 -13.327   2.637  1.00  0.00     0.276 C 
HETATM    6  N   UNL     1      41.186 -13.006   4.108  1.00  0.00    -0.056 N 
HETATM    7  H   UNL     1      40.703 -13.752   4.626  1.00  0.00     0.280 HD
HETATM    8  C   UNL     1      42.583 -12.891   4.705  1.00  0.00     0.273 C 
HETATM    9  C   UNL     1      43.184 -16.543   2.203  1.00  0.00     0.037 A 
HETATM   10  C   UNL     1      42.269 -17.349   1.534  1.00  0.00     0.003 A 
HETATM   11  C   UNL     1      40.993 -16.865   1.257  1.00  0.00     0.001 A 
HETATM   12  C   UNL     1      40.638 -15.569   1.636  1.00  0.00     0.012 A 
ENDROOT
BRANCH   6  13
HETATM   13  C   UNL     1      40.353 -11.747   4.377  1.00  0.00     0.337 C 
BRANCH  13  14
HETATM   14  C   UNL     1      39.492 -11.859   5.636  1.00  0.00     0.243 C 
HETATM   15  N   UNL     1      40.083 -11.372   6.773  1.00  0.00    -0.359 N 
HETATM   16  H   UNL     1      41.072 -11.120   6.767  1.00  0.00     0.162 HD
HETATM   17  O   UNL     1      38.374 -12.364   5.590  1.00  0.00    -0.272 OA
BRANCH  15  18
HETATM   18  C   UNL     1      39.566 -11.618   8.111  1.00  0.00     0.130 C 
BRANCH  18  19
HETATM   19  C   UNL     1      39.352 -10.309   8.875  1.00  0.00     0.098 C 
BRANCH  19  20
HETATM   20  C   UNL     1      40.044 -10.305  10.226  1.00  0.00     0.109 A 
HETATM   21  N   UNL     1      40.965  -9.433  10.506  1.00  0.00    -0.234 NA
HETATM   22  C   UNL     1      41.571  -9.503  11.776  1.00  0.00     0.074 A 
HETATM   23  C   UNL     1      41.251 -10.492  12.711  1.00  0.00     0.061 A 
HETATM   24  C   UNL     1      42.528  -8.544  12.122  1.00  0.00     0.032 A 
HETATM   25  C   UNL     1      40.231 -11.482  12.327  1.00  0.00     0.259 A 
HETATM   26  C   UNL     1      41.868 -10.538  13.964  1.00  0.00     0.019 A 
HETATM   27  O   UNL     1      39.896 -12.399  13.063  1.00  0.00    -0.267 OA
HETATM   28  N   UNL     1      39.681 -11.312  11.081  1.00  0.00    -0.311 N 
HETATM   29  H   UNL     1      38.977 -11.994  10.833  1.00  0.00     0.170 HD
HETATM   30  C   UNL     1      42.822  -9.576  14.293  1.00  0.00     0.001 A 
HETATM   31  C   UNL     1      43.150  -8.580  13.373  1.00  0.00     0.002 A 
ENDBRANCH  19  20
ENDBRANCH  18  19
ENDBRANCH  15  18
ENDBRANCH  13  14
ENDBRANCH   6  13
BRANCH   1  32
HETATM   32  C   UNL     1      43.165 -15.292   5.587  1.00  0.00     0.006 A 
HETATM   33  C   UNL     1      44.007 -15.516   6.700  1.00  0.00     0.077 A 
HETATM   34  C   UNL     1      43.722 -16.540   7.615  1.00  0.00     0.037 A 
HETATM   35  C   UNL     1      42.622 -17.373   7.424  1.00  0.00     0.003 A 
HETATM   36  C   UNL     1      41.798 -17.185   6.324  1.00  0.00     0.001 A 
HETATM   37  C   UNL     1      42.065 -16.155   5.418  1.00  0.00     0.012 A 
BRANCH  33  38
HETATM   38  O   UNL     1      45.069 -14.661   6.855  1.00  0.00    -0.355 OA
HETATM   39  C   UNL     1      44.857 -13.544   7.717  1.00  0.00     0.210 C 
ENDBRANCH  33  38
ENDBRANCH   1  32
TORSDOF 7
ENDMDL
MODEL 2
REMARK VINA RESULT:      -9.6      2.420      4.860
REMARK  7 active torsions:
REMARK  status: ('A' for Active; 'I' for Inactive)
REMARK    1  A    between atoms: O_2  and  C_3 
REMARK    2  A    between atoms: C_4  and  C_5 
REMARK    3  A    between atoms: N_10  and  C_12 
REMARK    4  A    between atoms: C_12  and  C_13 
REMARK       I    between atoms: C_13  and  N_14 
REMARK    5  A    between atoms: N_14  and  C_15 
REMARK    6  A    between atoms: C_15  and  C_16 
REMARK    7  A    between atoms: C_16  and  C_17 
ROOT
HETATM    1  C   UNL     1      41.340 -16.406   4.553  1.00  0.00     0.190 C 
HETATM    2  O   UNL     1      41.434 -17.515   5.468  1.00  0.00    -0.339 OA
HETATM    3  C   UNL     1      42.689 -17.984   5.706  1.00  0.00     0.077 A 
HETATM    4  C   UNL     1      43.656 -17.220   6.361  1.00  0.00     0.001 A 
HETATM    5  C   UNL     1      43.344 -15.852   6.877  1.00  0.00     0.276 C 
HETATM    6  N   UNL     1      43.000 -14.842   5.815  1.00  0.00    -0.056 N 
HETATM    7  H   UNL     1      43.662 -14.918   5.031  1.00  0.00     0.280 HD
HETATM    8  C   UNL     1      41.606 -15.040   5.233  1.00  0.00     0.273 C 
HETATM    9  C   UNL     1      42.946 -19.302   5.326  1.00  0.00     0.037 A 
HETATM   10  C   UNL     1      44.201 -19.857   5.550  1.00  0.00     0.003 A 
HETATM   11  C   UNL     1      45.191 -19.100   6.170  1.00  0.00     0.001 A 
HETATM   12  C   UNL     1      44.921 -17.793   6.580  1.00  0.00     0.012 A 
ENDROOT
BRANCH   6  13
HETATM   13  C   UNL     1      43.192 -13.416   6.345  1.00  0.00     0.337 C 
BRANCH  13  14
HETATM   14  C   UNL     1      44.395 -13.282   7.279  1.00  0.00     0.243 C 
HETATM   15  N   UNL     1      44.113 -12.707   8.490  1.00  0.00    -0.359 N 
HETATM   16  H   UNL     1      43.205 -12.269   8.648  1.00  0.00     0.162 HD
HETATM   17  O   UNL     1      45.509 -13.661   6.926  1.00  0.00    -0.272 OA
BRANCH  15  18
HETATM   18  C   UNL     1      45.138 -12.242   9.412  1.00  0.00     0.130 C 
BRANCH  18  19
HETATM   19  C   UNL     1      44.604 -12.160  10.844  1.00  0.00     0.098 C 
BRANCH  19  20
HETATM   20  C   UNL     1      43.238 -11.503  10.920  1.00  0.00     0.109 A 
HETATM   21  N   UNL     1      42.894 -10.573  10.081  1.00  0.00    -0.234 NA
HETATM   22  C   UNL     1      41.614 -10.001  10.226  1.00  0.00     0.074 A 
HETATM   23  C   UNL     1      40.737 -10.364  11.253  1.00  0.00     0.061 A 
HETATM   24  C   UNL     1      41.198  -9.035   9.305  1.00  0.00     0.032 A 
HETATM   25  C   UNL     1      41.194 -11.392  12.201  1.00  0.00     0.259 A 
HETATM   26  C   UNL     1      39.473  -9.780  11.372  1.00  0.00     0.019 A 
HETATM   27  O   UNL     1      40.512 -11.764  13.147  1.00  0.00    -0.267 OA
HETATM   28  N   UNL     1      42.443 -11.907  11.959  1.00  0.00    -0.311 N 
HETATM   29  H   UNL     1      42.742 -12.618  12.614  1.00  0.00     0.170 HD
HETATM   30  C   UNL     1      39.073  -8.817  10.447  1.00  0.00     0.001 A 
HETATM   31  C   UNL     1      39.936  -8.446   9.414  1.00  0.00     0.002 A 
ENDBRANCH  19  20
ENDBRANCH  18  19
ENDBRANCH  15  18
ENDBRANCH  13  14
ENDBRANCH   6  13
BRANCH   1  32
HETATM   32  C   UNL     1      41.935 -16.605   3.152  1.00  0.00     0.006 A 
HETATM   33  C   UNL     1      41.085 -16.678   2.025  1.00  0.00     0.077 A 
HETATM   34  C   UNL     1      41.620 -16.839   0.739  1.00  0.00     0.037 A 
HETATM   35  C   UNL     1      42.995 -16.959   0.556  1.00  0.00     0.003 A 
HETATM   36  C   UNL     1      43.844 -16.915   1.653  1.00  0.00     0.001 A 
HETATM   37  C   UNL     1      43.320 -16.737   2.935  1.00  0.00     0.012 A 
BRANCH  33  38
HETATM   38  O   UNL     1      39.739 -16.539   2.254  1.00  0.00    -0.355 OA
HETATM   39  C   UNL     1      39.166 -15.283   1.892  1.00  0.00     0.210 C 
ENDBRANCH  33  38
ENDBRANCH   1  32
TORSDOF 7
ENDMDL
MODEL 3
REMARK VINA RESULT:      -9.6      2.243      4.565
REMARK  7 active torsions:
REMARK  status: ('A' for Active; 'I' for Inactive)
REMARK    1  A    between atoms: O_2  and  C_3 
REMARK    2  A    between atoms: C_4  and  C_5 
REMARK    3  A    between atoms: N_10  and  C_12 
REMARK    4  A    between atoms: C_12  and  C_13 
REMARK       I    between atoms: C_13  and  N_14 
REMARK    5  A    between atoms: N_14  and  C_15 
REMARK    6  A    between atoms: C_15  and  C_16 
REMARK    7  A    between atoms: C_16  and  C_17 
ROOT
HETATM    1  C   UNL     1      40.807 -15.523   4.309  1.00  0.00     0.190 C 
HETATM    2  O   UNL     1      40.725 -16.873   3.812  1.00  0.00    -0.339 OA
HETATM    3  C   UNL     1      41.812 -17.322   3.128  1.00  0.00     0.077 A 
HETATM    4  C   UNL     1      43.052 -17.507   3.742  1.00  0.00     0.001 A 
HETATM    5  C   UNL     1      43.236 -17.261   5.205  1.00  0.00     0.276 C 
HETATM    6  N   UNL     1      43.030 -15.833   5.633  1.00  0.00    -0.056 N 
HETATM    7  H   UNL     1      43.505 -15.197   4.977  1.00  0.00     0.280 HD
HETATM    8  C   UNL     1      41.563 -15.423   5.656  1.00  0.00     0.273 C 
HETATM    9  C   UNL     1      41.612 -17.660   1.789  1.00  0.00     0.037 A 
HETATM   10  C   UNL     1      42.673 -18.141   1.028  1.00  0.00     0.003 A 
HETATM   11  C   UNL     1      43.927 -18.299   1.612  1.00  0.00     0.001 A 
HETATM   12  C   UNL     1      44.115 -17.992   2.961  1.00  0.00     0.012 A 
ENDROOT
BRANCH   6  13
HETATM   13  C   UNL     1      43.709 -15.571   6.983  1.00  0.00     0.337 C 
BRANCH  13  14
HETATM   14  C   UNL     1      44.318 -14.172   7.084  1.00  0.00     0.243 C 
HETATM   15  N   UNL     1      44.276 -13.624   8.339  1.00  0.00    -0.359 N 
HETATM   16  H   UNL     1      43.730 -14.073   9.075  1.00  0.00     0.162 HD
HETATM   17  O   UNL     1      44.783 -13.616   6.092  1.00  0.00    -0.272 OA
BRANCH  15  18
HETATM   18  C   UNL     1      44.548 -12.219   8.608  1.00  0.00     0.130 C 
BRANCH  18  19
HETATM   19  C   UNL     1      44.959 -11.999  10.066  1.00  0.00     0.098 C 
BRANCH  19  20
HETATM   20  C   UNL     1      43.866 -11.338  10.885  1.00  0.00     0.109 A 
HETATM   21  N   UNL     1      44.148 -10.659  11.956  1.00  0.00    -0.234 NA
HETATM   22  C   UNL     1      43.076 -10.087  12.671  1.00  0.00     0.074 A 
HETATM   23  C   UNL     1      41.741 -10.265  12.298  1.00  0.00     0.061 A 
HETATM   24  C   UNL     1      43.356  -9.308  13.797  1.00  0.00     0.032 A 
HETATM   25  C   UNL     1      41.474 -11.079  11.101  1.00  0.00     0.259 A 
HETATM   26  C   UNL     1      40.697  -9.686  13.026  1.00  0.00     0.019 A 
HETATM   27  O   UNL     1      40.341 -11.312  10.703  1.00  0.00    -0.267 OA
HETATM   28  N   UNL     1      42.585 -11.567  10.459  1.00  0.00    -0.311 N 
HETATM   29  H   UNL     1      42.388 -12.119   9.634  1.00  0.00     0.170 HD
HETATM   30  C   UNL     1      40.992  -8.913  14.148  1.00  0.00     0.001 A 
HETATM   31  C   UNL     1      42.320  -8.724  14.532  1.00  0.00     0.002 A 
ENDBRANCH  19  20
ENDBRANCH  18  19
ENDBRANCH  15  18
ENDBRANCH  13  14
ENDBRANCH   6  13
BRANCH   1  32
HETATM   32  C   UNL     1      41.082 -14.418   3.281  1.00  0.00     0.006 A 
HETATM   33  C   UNL     1      40.133 -14.135   2.272  1.00  0.00     0.077 A 
HETATM   34  C   UNL     1      40.366 -13.113   1.341  1.00  0.00     0.037 A 
HETATM   35  C   UNL     1      41.550 -12.381   1.377  1.00  0.00     0.003 A 
HETATM   36  C   UNL     1      42.505 -12.660   2.343  1.00  0.00     0.001 A 
HETATM   37  C   UNL     1      42.273 -13.665   3.286  1.00  0.00     0.012 A 
BRANCH  33  38
HETATM   38  O   UNL     1      38.976 -14.871   2.287  1.00  0.00    -0.355 OA
HETATM   39  C   UNL     1      37.988 -14.512   1.322  1.00  0.00     0.210 C 
ENDBRANCH  33  38
ENDBRANCH   1  32
TORSDOF 7
ENDMDL
MODEL 4
REMARK VINA RESULT:      -9.5      1.599      3.888
REMARK  7 active torsions:
REMARK  status: ('A' for Active; 'I' for Inactive)
REMARK    1  A    between atoms: O_2  and  C_3 
REMARK    2  A    between atoms: C_4  and  C_5 
REMARK    3  A    between atoms: N_10  and  C_12 
REMARK    4  A    between atoms: C_12  and  C_13 
REMARK       I    between atoms: C_13  and  N_14 
REMARK    5  A    between atoms: N_14  and  C_15 
REMARK    6  A    between atoms: C_15  and  C_16 
REMARK    7  A    between atoms: C_16  and  C_17 
ROOT
HETATM    1  C   UNL     1      40.964 -16.057   4.425  1.00  0.00     0.190 C 
HETATM    2  O   UNL     1      41.170 -16.948   5.538  1.00  0.00    -0.339 OA
HETATM    3  C   UNL     1      42.465 -17.188   5.876  1.00  0.00     0.077 A 
HETATM    4  C   UNL     1      43.299 -16.189   6.382  1.00  0.00     0.001 A 
HETATM    5  C   UNL     1      42.790 -14.803   6.620  1.00  0.00     0.276 C 
HETATM    6  N   UNL     1      42.356 -14.070   5.379  1.00  0.00    -0.056 N 
HETATM    7  H   UNL     1      43.051 -14.203   4.632  1.00  0.00     0.280 HD
HETATM    8  C   UNL     1      41.023 -14.564   4.831  1.00  0.00     0.273 C 
HETATM    9  C   UNL     1      42.908 -18.506   5.762  1.00  0.00     0.037 A 
HETATM   10  C   UNL     1      44.216 -18.832   6.103  1.00  0.00     0.003 A 
HETATM   11  C   UNL     1      45.074 -17.843   6.576  1.00  0.00     0.001 A 
HETATM   12  C   UNL     1      44.618 -16.531   6.722  1.00  0.00     0.012 A 
ENDROOT
BRANCH   6  13
HETATM   13  C   UNL     1      42.338 -12.556   5.625  1.00  0.00     0.337 C 
BRANCH  13  14
HETATM   14  C   UNL     1      40.968 -12.039   6.065  1.00  0.00     0.243 C 
HETATM   15  N   UNL     1      40.804 -11.950   7.423  1.00  0.00    -0.359 N 
HETATM   16  H   UNL     1      41.498 -12.360   8.049  1.00  0.00     0.162 HD
HETATM   17  O   UNL     1      40.109 -11.752   5.236  1.00  0.00    -0.272 OA
BRANCH  15  18
HETATM   18  C   UNL     1      39.512 -11.744   8.060  1.00  0.00     0.130 C 
BRANCH  18  19
HETATM   19  C   UNL     1      39.441 -10.379   8.748  1.00  0.00     0.098 C 
BRANCH  19  20
HETATM   20  C   UNL     1      40.115 -10.376  10.108  1.00  0.00     0.109 A 
HETATM   21  N   UNL     1      41.062  -9.531  10.386  1.00  0.00    -0.234 NA
HETATM   22  C   UNL     1      41.649  -9.601  11.665  1.00  0.00     0.074 A 
HETATM   23  C   UNL     1      41.283 -10.564  12.611  1.00  0.00     0.061 A 
HETATM   24  C   UNL     1      42.633  -8.670  12.009  1.00  0.00     0.032 A 
HETATM   25  C   UNL     1      40.236 -11.525  12.229  1.00  0.00     0.259 A 
HETATM   26  C   UNL     1      41.882 -10.611  13.873  1.00  0.00     0.019 A 
HETATM   27  O   UNL     1      39.860 -12.419  12.975  1.00  0.00    -0.267 OA
HETATM   28  N   UNL     1      39.707 -11.356  10.974  1.00  0.00    -0.311 N 
HETATM   29  H   UNL     1      38.983 -12.018  10.727  1.00  0.00     0.170 HD
HETATM   30  C   UNL     1      42.864  -9.677  14.199  1.00  0.00     0.001 A 
HETATM   31  C   UNL     1      43.238  -8.707  13.268  1.00  0.00     0.002 A 
ENDBRANCH  19  20
ENDBRANCH  18  19
ENDBRANCH  15  18
ENDBRANCH  13  14
ENDBRANCH   6  13
BRANCH   1  32
HETATM   32  C   UNL     1      41.632 -16.436   3.096  1.00  0.00     0.006 A 
HETATM   33  C   UNL     1      40.851 -16.585   1.927  1.00  0.00     0.077 A 
HETATM   34  C   UNL     1      41.455 -16.910   0.704  1.00  0.00     0.037 A 
HETATM   35  C   UNL     1      42.829 -17.121   0.628  1.00  0.00     0.003 A 
HETATM   36  C   UNL     1      43.609 -17.004   1.770  1.00  0.00     0.001 A 
HETATM   37  C   UNL     1      43.018 -16.662   2.988  1.00  0.00     0.012 A 
BRANCH  33  38
HETATM   38  O   UNL     1      39.505 -16.351   2.048  1.00  0.00    -0.355 OA
HETATM   39  C   UNL     1      39.043 -15.078   1.599  1.00  0.00     0.210 C 
ENDBRANCH  33  38
ENDBRANCH   1  32
TORSDOF 7
ENDMDL
MODEL 5
REMARK VINA RESULT:      -9.4      1.661      1.945
REMARK  7 active torsions:
REMARK  status: ('A' for Active; 'I' for Inactive)
REMARK    1  A    between atoms: O_2  and  C_3 
REMARK    2  A    between atoms: C_4  and  C_5 
REMARK    3  A    between atoms: N_10  and  C_12 
REMARK    4  A    between atoms: C_12  and  C_13 
REMARK       I    between atoms: C_13  and  N_14 
REMARK    5  A    between atoms: N_14  and  C_15 
REMARK    6  A    between atoms: C_15  and  C_16 
REMARK    7  A    between atoms: C_16  and  C_17 
ROOT
HETATM    1  C   UNL     1      42.979 -13.946   4.549  1.00  0.00     0.190 C 
HETATM    2  O   UNL     1      43.574 -14.280   3.280  1.00  0.00    -0.339 OA
HETATM    3  C   UNL     1      42.947 -15.254   2.567  1.00  0.00     0.077 A 
HETATM    4  C   UNL     1      41.664 -15.080   2.042  1.00  0.00     0.001 A 
HETATM    5  C   UNL     1      40.930 -13.787   2.203  1.00  0.00     0.276 C 
HETATM    6  N   UNL     1      40.597 -13.426   3.626  1.00  0.00    -0.056 N 
HETATM    7  H   UNL     1      40.230 -14.250   4.121  1.00  0.00     0.280 HD
HETATM    8  C   UNL     1      41.806 -12.942   4.416  1.00  0.00     0.273 C 
HETATM    9  C   UNL     1      43.675 -16.417   2.319  1.00  0.00     0.037 A 
HETATM   10  C   UNL     1      43.105 -17.451   1.584  1.00  0.00     0.003 A 
HETATM   11  C   UNL     1      41.814 -17.312   1.082  1.00  0.00     0.001 A 
HETATM   12  C   UNL     1      41.099 -16.132   1.302  1.00  0.00     0.012 A 
ENDROOT
BRANCH   6  13
HETATM   13  C   UNL     1      39.452 -12.407   3.670  1.00  0.00     0.337 C 
BRANCH  13  14
HETATM   14  C   UNL     1      39.182 -11.873   5.077  1.00  0.00     0.243 C 
HETATM   15  N   UNL     1      39.469 -10.544   5.245  1.00  0.00    -0.359 N 
HETATM   16  H   UNL     1      39.973 -10.034   4.518  1.00  0.00     0.162 HD
HETATM   17  O   UNL     1      38.754 -12.614   5.959  1.00  0.00    -0.272 OA
BRANCH  15  18
HETATM   18  C   UNL     1      39.544  -9.900   6.548  1.00  0.00     0.130 C 
BRANCH  18  19
HETATM   19  C   UNL     1      40.861  -9.139   6.720  1.00  0.00     0.098 C 
BRANCH  19  20
HETATM   20  C   UNL     1      41.392  -9.209   8.140  1.00  0.00     0.109 A 
HETATM   21  N   UNL     1      42.359 -10.018   8.455  1.00  0.00    -0.234 NA
HETATM   22  C   UNL     1      42.787 -10.035   9.798  1.00  0.00     0.074 A 
HETATM   23  C   UNL     1      42.185  -9.257  10.792  1.00  0.00     0.061 A 
HETATM   24  C   UNL     1      43.860 -10.857  10.153  1.00  0.00     0.032 A 
HETATM   25  C   UNL     1      41.066  -8.390  10.388  1.00  0.00     0.259 A 
HETATM   26  C   UNL     1      42.631  -9.294  12.116  1.00  0.00     0.019 A 
HETATM   27  O   UNL     1      40.459  -7.688  11.185  1.00  0.00    -0.267 OA
HETATM   28  N   UNL     1      40.743  -8.423   9.055  1.00  0.00    -0.311 N 
HETATM   29  H   UNL     1      39.978  -7.818   8.790  1.00  0.00     0.170 HD
HETATM   30  C   UNL     1      43.700 -10.122  12.455  1.00  0.00     0.001 A 
HETATM   31  C   UNL     1      44.314 -10.901  11.474  1.00  0.00     0.002 A 
ENDBRANCH  19  20
ENDBRANCH  18  19
ENDBRANCH  15  18
ENDBRANCH  13  14
ENDBRANCH   6  13
BRANCH   1  32
HETATM   32  C   UNL     1      42.797 -15.088   5.557  1.00  0.00     0.006 A 
HETATM   33  C   UNL     1      43.791 -15.340   6.530  1.00  0.00     0.077 A 
HETATM   34  C   UNL     1      43.624 -16.368   7.468  1.00  0.00     0.037 A 
HETATM   35  C   UNL     1      42.491 -17.177   7.438  1.00  0.00     0.003 A 
HETATM   36  C   UNL     1      41.516 -16.961   6.475  1.00  0.00     0.001 A 
HETATM   37  C   UNL     1      41.666 -15.927   5.547  1.00  0.00     0.012 A 
BRANCH  33  38
HETATM   38  O   UNL     1      44.882 -14.508   6.531  1.00  0.00    -0.355 OA
HETATM   39  C   UNL     1      44.957 -13.570   7.603  1.00  0.00     0.210 C 
ENDBRANCH  33  38
ENDBRANCH   1  32
TORSDOF 7
ENDMDL
MODEL 6
REMARK VINA RESULT:      -9.4      2.154      4.479
REMARK  7 active torsions:
REMARK  status: ('A' for Active; 'I' for Inactive)
REMARK    1  A    between atoms: O_2  and  C_3 
REMARK    2  A    between atoms: C_4  and  C_5 
REMARK    3  A    between atoms: N_10  and  C_12 
REMARK    4  A    between atoms: C_12  and  C_13 
REMARK       I    between atoms: C_13  and  N_14 
REMARK    5  A    between atoms: N_14  and  C_15 
REMARK    6  A    between atoms: C_15  and  C_16 
REMARK    7  A    between atoms: C_16  and  C_17 
ROOT
HETATM    1  C   UNL     1      39.851 -14.951   1.633  1.00  0.00     0.190 C 
HETATM    2  O   UNL     1      40.243 -16.319   1.404  1.00  0.00    -0.339 OA
HETATM    3  C   UNL     1      41.527 -16.633   1.726  1.00  0.00     0.077 A 
HETATM    4  C   UNL     1      41.988 -16.607   3.044  1.00  0.00     0.001 A 
HETATM    5  C   UNL     1      41.074 -16.274   4.179  1.00  0.00     0.276 C 
HETATM    6  N   UNL     1      40.521 -14.875   4.151  1.00  0.00    -0.056 N 
HETATM    7  H   UNL     1      41.270 -14.205   3.928  1.00  0.00     0.280 HD
HETATM    8  C   UNL     1      39.434 -14.684   3.101  1.00  0.00     0.273 C 
HETATM    9  C   UNL     1      42.349 -17.053   0.682  1.00  0.00     0.037 A 
HETATM   10  C   UNL     1      43.671 -17.405   0.936  1.00  0.00     0.003 A 
HETATM   11  C   UNL     1      44.162 -17.353   2.238  1.00  0.00     0.001 A 
HETATM   12  C   UNL     1      43.326 -16.964   3.287  1.00  0.00     0.012 A 
ENDROOT
BRANCH   6  13
HETATM   13  C   UNL     1      40.035 -14.459   5.545  1.00  0.00     0.337 C 
BRANCH  13  14
HETATM   14  C   UNL     1      40.701 -13.179   6.052  1.00  0.00     0.243 C 
HETATM   15  N   UNL     1      40.065 -12.591   7.114  1.00  0.00    -0.359 N 
HETATM   16  H   UNL     1      39.143 -12.917   7.402  1.00  0.00     0.162 HD
HETATM   17  O   UNL     1      41.714 -12.741   5.512  1.00  0.00    -0.272 OA
BRANCH  15  18
HETATM   18  C   UNL     1      40.363 -11.243   7.577  1.00  0.00     0.130 C 
BRANCH  18  19
HETATM   19  C   UNL     1      39.423 -10.822   8.710  1.00  0.00     0.098 C 
BRANCH  19  20
HETATM   20  C   UNL     1      40.134 -10.715  10.047  1.00  0.00     0.109 A 
HETATM   21  N   UNL     1      41.137  -9.906  10.210  1.00  0.00    -0.234 NA
HETATM   22  C   UNL     1      41.754  -9.874  11.477  1.00  0.00     0.074 A 
HETATM   23  C   UNL     1      41.357 -10.704  12.530  1.00  0.00     0.061 A 
HETATM   24  C   UNL     1      42.801  -8.975  11.695  1.00  0.00     0.032 A 
HETATM   25  C   UNL     1      40.244 -11.633  12.278  1.00  0.00     0.259 A 
HETATM   26  C   UNL     1      41.987 -10.652  13.777  1.00  0.00     0.019 A 
HETATM   27  O   UNL     1      39.836 -12.415  13.125  1.00  0.00    -0.267 OA
HETATM   28  N   UNL     1      39.692 -11.568  11.023  1.00  0.00    -0.311 N 
HETATM   29  H   UNL     1      38.923 -12.206  10.865  1.00  0.00     0.170 HD
HETATM   30  C   UNL     1      43.032  -9.751  13.978  1.00  0.00     0.001 A 
HETATM   31  C   UNL     1      43.438  -8.913  12.938  1.00  0.00     0.002 A 
ENDBRANCH  19  20
ENDBRANCH  18  19
ENDBRANCH  15  18
ENDBRANCH  13  14
ENDBRANCH   6  13
BRANCH   1  32
HETATM   32  C   UNL     1      40.686 -13.863   0.945  1.00  0.00     0.006 A 
HETATM   33  C   UNL     1      40.555 -13.642  -0.445  1.00  0.00     0.077 A 
HETATM   34  C   UNL     1      41.297 -12.635  -1.079  1.00  0.00     0.037 A 
HETATM   35  C   UNL     1      42.197 -11.858  -0.355  1.00  0.00     0.003 A 
HETATM   36  C   UNL     1      42.358 -12.076   1.005  1.00  0.00     0.001 A 
HETATM   37  C   UNL     1      41.609 -13.065   1.648  1.00  0.00     0.012 A 
BRANCH  33  38
HETATM   38  O   UNL     1      39.644 -14.422  -1.113  1.00  0.00    -0.355 OA
HETATM   39  C   UNL     1      40.002 -14.813  -2.437  1.00  0.00     0.210 C 
ENDBRANCH  33  38
ENDBRANCH   1  32
TORSDOF 7
ENDMDL
MODEL 7
REMARK VINA RESULT:      -9.3      5.065      6.898
REMARK  7 active torsions:
REMARK  status: ('A' for Active; 'I' for Inactive)
REMARK    1  A    between atoms: O_2  and  C_3 
REMARK    2  A    between atoms: C_4  and  C_5 
REMARK    3  A    between atoms: N_10  and  C_12 
REMARK    4  A    between atoms: C_12  and  C_13 
REMARK       I    between atoms: C_13  and  N_14 
REMARK    5  A    between atoms: N_14  and  C_15 
REMARK    6  A    between atoms: C_15  and  C_16 
REMARK    7  A    between atoms: C_16  and  C_17 
ROOT
HETATM    1  C   UNL     1      41.885 -13.813  -0.015  1.00  0.00     0.190 C 
HETATM    2  O   UNL     1      42.101 -14.116  -1.407  1.00  0.00    -0.339 OA
HETATM    3  C   UNL     1      40.983 -14.349  -2.146  1.00  0.00     0.077 A 
HETATM    4  C   UNL     1      40.038 -13.352  -2.397  1.00  0.00     0.001 A 
HETATM    5  C   UNL     1      40.234 -11.956  -1.899  1.00  0.00     0.276 C 
HETATM    6  N   UNL     1      40.251 -11.819  -0.400  1.00  0.00    -0.056 N 
HETATM    7  H   UNL     1      39.487 -12.371   0.011  1.00  0.00     0.280 HD
HETATM    8  C   UNL     1      41.544 -12.322   0.229  1.00  0.00     0.273 C 
HETATM    9  C   UNL     1      40.856 -15.620  -2.706  1.00  0.00     0.037 A 
HETATM   10  C   UNL     1      39.746 -15.929  -3.486  1.00  0.00     0.003 A 
HETATM   11  C   UNL     1      38.774 -14.959  -3.719  1.00  0.00     0.001 A 
HETATM   12  C   UNL     1      38.921 -13.677  -3.185  1.00  0.00     0.012 A 
ENDROOT
BRANCH   6  13
HETATM   13  C   UNL     1      39.949 -10.373   0.013  1.00  0.00     0.337 C 
BRANCH  13  14
HETATM   14  C   UNL     1      39.962 -10.171   1.529  1.00  0.00     0.243 C 
HETATM   15  N   UNL     1      39.313 -11.148   2.237  1.00  0.00    -0.359 N 
HETATM   16  H   UNL     1      38.744 -11.840   1.749  1.00  0.00     0.162 HD
HETATM   17  O   UNL     1      40.509  -9.191   2.027  1.00  0.00    -0.272 OA
BRANCH  15  18
HETATM   18  C   UNL     1      38.972 -11.021   3.646  1.00  0.00     0.130 C 
BRANCH  18  19
HETATM   19  C   UNL     1      40.225 -11.032   4.526  1.00  0.00     0.098 C 
BRANCH  19  20
HETATM   20  C   UNL     1      40.919 -12.381   4.534  1.00  0.00     0.109 A 
HETATM   21  N   UNL     1      40.417 -13.391   5.180  1.00  0.00    -0.234 NA
HETATM   22  C   UNL     1      41.128 -14.607   5.152  1.00  0.00     0.074 A 
HETATM   23  C   UNL     1      42.358 -14.746   4.501  1.00  0.00     0.061 A 
HETATM   24  C   UNL     1      40.584 -15.723   5.794  1.00  0.00     0.032 A 
HETATM   25  C   UNL     1      42.903 -13.560   3.822  1.00  0.00     0.259 A 
HETATM   26  C   UNL     1      43.043 -15.965   4.490  1.00  0.00     0.019 A 
HETATM   27  O   UNL     1      43.981 -13.571   3.244  1.00  0.00    -0.267 OA
HETATM   28  N   UNL     1      42.123 -12.432   3.883  1.00  0.00    -0.311 N 
HETATM   29  H   UNL     1      42.505 -11.627   3.406  1.00  0.00     0.170 HD
HETATM   30  C   UNL     1      42.488 -17.068   5.137  1.00  0.00     0.001 A 
HETATM   31  C   UNL     1      41.259 -16.946   5.788  1.00  0.00     0.002 A 
ENDBRANCH  19  20
ENDBRANCH  18  19
ENDBRANCH  15  18
ENDBRANCH  13  14
ENDBRANCH   6  13
BRANCH   1  32
HETATM   32  C   UNL     1      41.102 -14.843   0.809  1.00  0.00     0.006 A 
HETATM   33  C   UNL     1      41.627 -16.141   1.005  1.00  0.00     0.077 A 
HETATM   34  C   UNL     1      40.928 -17.083   1.775  1.00  0.00     0.037 A 
HETATM   35  C   UNL     1      39.693 -16.763   2.332  1.00  0.00     0.003 A 
HETATM   36  C   UNL     1      39.150 -15.503   2.130  1.00  0.00     0.001 A 
HETATM   37  C   UNL     1      39.848 -14.553   1.380  1.00  0.00     0.012 A 
BRANCH  33  38
HETATM   38  O   UNL     1      42.853 -16.404   0.450  1.00  0.00    -0.355 OA
HETATM   39  C   UNL     1      43.639 -17.401   1.101  1.00  0.00     0.210 C 
ENDBRANCH  33  38
ENDBRANCH   1  32
TORSDOF 7
ENDMDL
MODEL 8
REMARK VINA RESULT:      -9.3      5.536      9.692
REMARK  7 active torsions:
REMARK  status: ('A' for Active; 'I' for Inactive)
REMARK    1  A    between atoms: O_2  and  C_3 
REMARK    2  A    between atoms: C_4  and  C_5 
REMARK    3  A    between atoms: N_10  and  C_12 
REMARK    4  A    between atoms: C_12  and  C_13 
REMARK       I    between atoms: C_13  and  N_14 
REMARK    5  A    between atoms: N_14  and  C_15 
REMARK    6  A    between atoms: C_15  and  C_16 
REMARK    7  A    between atoms: C_16  and  C_17 
ROOT
HETATM    1  C   UNL     1      40.751 -13.846  -1.217  1.00  0.00     0.190 C 
HETATM    2  O   UNL     1      41.966 -13.646  -1.966  1.00  0.00    -0.339 OA
HETATM    3  C   UNL     1      42.188 -12.380  -2.412  1.00  0.00     0.077 A 
HETATM    4  C   UNL     1      42.423 -11.316  -1.539  1.00  0.00     0.001 A 
HETATM    5  C   UNL     1      42.486 -11.527  -0.060  1.00  0.00     0.276 C 
HETATM    6  N   UNL     1      41.199 -11.996   0.564  1.00  0.00    -0.056 N 
HETATM    7  H   UNL     1      40.409 -11.452   0.191  1.00  0.00     0.280 HD
HETATM    8  C   UNL     1      40.896 -13.461   0.276  1.00  0.00     0.273 C 
HETATM    9  C   UNL     1      42.243 -12.204  -3.795  1.00  0.00     0.037 A 
HETATM   10  C   UNL     1      42.481 -10.941  -4.325  1.00  0.00     0.003 A 
HETATM   11  C   UNL     1      42.682  -9.859  -3.472  1.00  0.00     0.001 A 
HETATM   12  C   UNL     1      42.661 -10.045  -2.088  1.00  0.00     0.012 A 
ENDROOT
BRANCH   6  13
HETATM   13  C   UNL     1      41.192 -11.705   2.070  1.00  0.00     0.337 C 
BRANCH  13  14
HETATM   14  C   UNL     1      41.869 -12.801   2.893  1.00  0.00     0.243 C 
HETATM   15  N   UNL     1      41.118 -13.273   3.937  1.00  0.00    -0.359 N 
HETATM   16  H   UNL     1      40.259 -12.792   4.207  1.00  0.00     0.162 HD
HETATM   17  O   UNL     1      43.001 -13.188   2.614  1.00  0.00    -0.272 OA
BRANCH  15  18
HETATM   18  C   UNL     1      41.659 -14.110   4.997  1.00  0.00     0.130 C 
BRANCH  18  19
HETATM   19  C   UNL     1      40.908 -15.441   5.096  1.00  0.00     0.098 C 
BRANCH  19  20
HETATM   20  C   UNL     1      41.572 -16.545   4.292  1.00  0.00     0.109 A 
HETATM   21  N   UNL     1      42.468 -17.319   4.828  1.00  0.00    -0.234 NA
HETATM   22  C   UNL     1      43.049 -18.311   4.013  1.00  0.00     0.074 A 
HETATM   23  C   UNL     1      42.731 -18.455   2.658  1.00  0.00     0.061 A 
HETATM   24  C   UNL     1      43.976 -19.191   4.577  1.00  0.00     0.032 A 
HETATM   25  C   UNL     1      41.743 -17.524   2.091  1.00  0.00     0.259 A 
HETATM   26  C   UNL     1      43.324 -19.448   1.873  1.00  0.00     0.019 A 
HETATM   27  O   UNL     1      41.413 -17.552   0.913  1.00  0.00    -0.267 OA
HETATM   28  N   UNL     1      41.214 -16.614   2.972  1.00  0.00    -0.311 N 
HETATM   29  H   UNL     1      40.531 -15.985   2.571  1.00  0.00     0.170 HD
HETATM   30  C   UNL     1      44.249 -20.317   2.450  1.00  0.00     0.001 A 
HETATM   31  C   UNL     1      44.573 -20.188   3.802  1.00  0.00     0.002 A 
ENDBRANCH  19  20
ENDBRANCH  18  19
ENDBRANCH  15  18
ENDBRANCH  13  14
ENDBRANCH   6  13
BRANCH   1  32
HETATM   32  C   UNL     1      39.436 -13.456  -1.904  1.00  0.00     0.006 A 
HETATM   33  C   UNL     1      38.912 -14.262  -2.940  1.00  0.00     0.077 A 
HETATM   34  C   UNL     1      37.700 -13.926  -3.560  1.00  0.00     0.037 A 
HETATM   35  C   UNL     1      37.009 -12.776  -3.185  1.00  0.00     0.003 A 
HETATM   36  C   UNL     1      37.521 -11.959  -2.187  1.00  0.00     0.001 A 
HETATM   37  C   UNL     1      38.718 -12.297  -1.553  1.00  0.00     0.012 A 
BRANCH  33  38
HETATM   38  O   UNL     1      39.619 -15.393  -3.264  1.00  0.00    -0.355 OA
HETATM   39  C   UNL     1      39.005 -16.271  -4.206  1.00  0.00     0.210 C 
ENDBRANCH  33  38
ENDBRANCH   1  32
TORSDOF 7
ENDMDL
MODEL 9
REMARK VINA RESULT:      -9.3      5.058      9.039
REMARK  7 active torsions:
REMARK  status: ('A' for Active; 'I' for Inactive)
REMARK    1  A    between atoms: O_2  and  C_3 
REMARK    2  A    between atoms: C_4  and  C_5 
REMARK    3  A    between atoms: N_10  and  C_12 
REMARK    4  A    between atoms: C_12  and  C_13 
REMARK       I    between atoms: C_13  and  N_14 
REMARK    5  A    between atoms: N_14  and  C_15 
REMARK    6  A    between atoms: C_15  and  C_16 
REMARK    7  A    between atoms: C_16  and  C_17 
ROOT
HETATM    1  C   UNL     1      40.003 -11.231   0.498  1.00  0.00     0.190 C 
HETATM    2  O   UNL     1      39.236 -12.376   0.076  1.00  0.00    -0.339 OA
HETATM    3  C   UNL     1      39.952 -13.491  -0.231  1.00  0.00     0.077 A 
HETATM    4  C   UNL     1      40.679 -14.195   0.731  1.00  0.00     0.001 A 
HETATM    5  C   UNL     1      40.668 -13.779   2.168  1.00  0.00     0.276 C 
HETATM    6  N   UNL     1      41.272 -12.427   2.436  1.00  0.00    -0.056 N 
HETATM    7  H   UNL     1      42.154 -12.327   1.915  1.00  0.00     0.280 HD
HETATM    8  C   UNL     1      40.373 -11.276   2.002  1.00  0.00     0.273 C 
HETATM    9  C   UNL     1      39.870 -13.944  -1.547  1.00  0.00     0.037 A 
HETATM   10  C   UNL     1      40.564 -15.087  -1.933  1.00  0.00     0.003 A 
HETATM   11  C   UNL     1      41.323 -15.784  -0.997  1.00  0.00     0.001 A 
HETATM   12  C   UNL     1      41.375 -15.347   0.328  1.00  0.00     0.012 A 
ENDROOT
BRANCH   6  13
HETATM   13  C   UNL     1      41.678 -12.300   3.909  1.00  0.00     0.337 C 
BRANCH  13  14
HETATM   14  C   UNL     1      42.870 -13.183   4.278  1.00  0.00     0.243 C 
HETATM   15  N   UNL     1      42.847 -13.661   5.562  1.00  0.00    -0.359 N 
HETATM   16  H   UNL     1      42.164 -13.300   6.230  1.00  0.00     0.162 HD
HETATM   17  O   UNL     1      43.761 -13.409   3.463  1.00  0.00    -0.272 OA
BRANCH  15  18
HETATM   18  C   UNL     1      43.993 -14.288   6.203  1.00  0.00     0.130 C 
BRANCH  18  19
HETATM   19  C   UNL     1      43.621 -15.642   6.812  1.00  0.00     0.098 C 
BRANCH  19  20
HETATM   20  C   UNL     1      43.733 -16.780   5.813  1.00  0.00     0.109 A 
HETATM   21  N   UNL     1      43.487 -16.592   4.552  1.00  0.00    -0.234 NA
HETATM   22  C   UNL     1      43.599 -17.702   3.690  1.00  0.00     0.074 A 
HETATM   23  C   UNL     1      43.915 -18.984   4.148  1.00  0.00     0.061 A 
HETATM   24  C   UNL     1      43.390 -17.516   2.320  1.00  0.00     0.032 A 
HETATM   25  C   UNL     1      44.143 -19.150   5.593  1.00  0.00     0.259 A 
HETATM   26  C   UNL     1      44.020 -20.067   3.271  1.00  0.00     0.019 A 
HETATM   27  O   UNL     1      44.403 -20.234   6.097  1.00  0.00    -0.267 OA
HETATM   28  N   UNL     1      44.038 -18.006   6.343  1.00  0.00    -0.311 N 
HETATM   29  H   UNL     1      44.204 -18.132   7.333  1.00  0.00     0.170 HD
HETATM   30  C   UNL     1      43.806 -19.866   1.908  1.00  0.00     0.001 A 
HETATM   31  C   UNL     1      43.493 -18.592   1.434  1.00  0.00     0.002 A 
ENDBRANCH  19  20
ENDBRANCH  18  19
ENDBRANCH  15  18
ENDBRANCH  13  14
ENDBRANCH   6  13
BRANCH   1  32
HETATM   32  C   UNL     1      41.087 -10.725  -0.463  1.00  0.00     0.006 A 
HETATM   33  C   UNL     1      40.723 -10.032  -1.640  1.00  0.00     0.077 A 
HETATM   34  C   UNL     1      41.707  -9.547  -2.514  1.00  0.00     0.037 A 
HETATM   35  C   UNL     1      43.056  -9.767  -2.251  1.00  0.00     0.003 A 
HETATM   36  C   UNL     1      43.432 -10.467  -1.113  1.00  0.00     0.001 A 
HETATM   37  C   UNL     1      42.459 -10.937  -0.228  1.00  0.00     0.012 A 
BRANCH  33  38
HETATM   38  O   UNL     1      39.383  -9.826  -1.848  1.00  0.00    -0.355 OA
HETATM   39  C   UNL     1      38.840 -10.376  -3.048  1.00  0.00     0.210 C 
ENDBRANCH  33  38
ENDBRANCH   1  32
TORSDOF 7
ENDMDL
MODEL 10
REMARK VINA RESULT:      -9.3      6.531      9.865
REMARK  7 active torsions:
REMARK  status: ('A' for Active; 'I' for Inactive)
REMARK    1  A    between atoms: O_2  and  C_3 
REMARK    2  A    between atoms: C_4  and  C_5 
REMARK    3  A    between atoms: N_10  and  C_12 
REMARK    4  A    between atoms: C_12  and  C_13 
REMARK       I    between atoms: C_13  and  N_14 
REMARK    5  A    between atoms: N_14  and  C_15 
REMARK    6  A    between atoms: C_15  and  C_16 
REMARK    7  A    between atoms: C_16  and  C_17 
ROOT
HETATM    1  C   UNL     1      41.323 -12.016   0.554  1.00  0.00     0.190 C 
HETATM    2  O   UNL     1      40.439 -10.880   0.611  1.00  0.00    -0.339 OA
HETATM    3  C   UNL     1      39.148 -11.112   0.249  1.00  0.00     0.077 A 
HETATM    4  C   UNL     1      38.306 -11.941   0.992  1.00  0.00     0.001 A 
HETATM    5  C   UNL     1      38.774 -12.585   2.258  1.00  0.00     0.276 C 
HETATM    6  N   UNL     1      39.897 -13.572   2.084  1.00  0.00    -0.056 N 
HETATM    7  H   UNL     1      39.706 -14.183   1.279  1.00  0.00     0.280 HD
HETATM    8  C   UNL     1      41.241 -12.904   1.820  1.00  0.00     0.273 C 
HETATM    9  C   UNL     1      38.678 -10.421  -0.869  1.00  0.00     0.037 A 
HETATM   10  C   UNL     1      37.364 -10.596  -1.291  1.00  0.00     0.003 A 
HETATM   11  C   UNL     1      36.518 -11.447  -0.584  1.00  0.00     0.001 A 
HETATM   12  C   UNL     1      36.982 -12.110   0.554  1.00  0.00     0.012 A 
ENDROOT
BRANCH   6  13
HETATM   13  C   UNL     1      39.968 -14.525   3.283  1.00  0.00     0.337 C 
BRANCH  13  14
HETATM   14  C   UNL     1      40.728 -15.816   2.975  1.00  0.00     0.243 C 
HETATM   15  N   UNL     1      40.960 -16.033   1.643  1.00  0.00    -0.359 N 
HETATM   16  H   UNL     1      40.505 -15.448   0.942  1.00  0.00     0.162 HD
HETATM   17  O   UNL     1      41.070 -16.574   3.879  1.00  0.00    -0.272 OA
BRANCH  15  18
HETATM   18  C   UNL     1      41.419 -17.307   1.109  1.00  0.00     0.130 C 
BRANCH  18  19
HETATM   19  C   UNL     1      42.947 -17.393   1.105  1.00  0.00     0.098 C 
BRANCH  19  20
HETATM   20  C   UNL     1      43.477 -18.393   2.116  1.00  0.00     0.109 A 
HETATM   21  N   UNL     1      43.573 -19.655   1.824  1.00  0.00    -0.234 NA
HETATM   22  C   UNL     1      44.061 -20.523   2.822  1.00  0.00     0.074 A 
HETATM   23  C   UNL     1      44.393 -20.084   4.107  1.00  0.00     0.061 A 
HETATM   24  C   UNL     1      44.224 -21.878   2.517  1.00  0.00     0.032 A 
HETATM   25  C   UNL     1      44.224 -18.651   4.398  1.00  0.00     0.259 A 
HETATM   26  C   UNL     1      44.874 -20.968   5.078  1.00  0.00     0.019 A 
HETATM   27  O   UNL     1      44.466 -18.171   5.497  1.00  0.00    -0.267 OA
HETATM   28  N   UNL     1      43.771 -17.885   3.354  1.00  0.00    -0.311 N 
HETATM   29  H   UNL     1      43.666 -16.901   3.565  1.00  0.00     0.170 HD
HETATM   30  C   UNL     1      45.030 -22.316   4.759  1.00  0.00     0.001 A 
HETATM   31  C   UNL     1      44.705 -22.770   3.480  1.00  0.00     0.002 A 
ENDBRANCH  19  20
ENDBRANCH  18  19
ENDBRANCH  15  18
ENDBRANCH  13  14
ENDBRANCH   6  13
BRANCH   1  32
HETATM   32  C   UNL     1      41.438 -12.743  -0.791  1.00  0.00     0.006 A 
HETATM   33  C   UNL     1      42.358 -12.292  -1.765  1.00  0.00     0.077 A 
HETATM   34  C   UNL     1      42.486 -12.962  -2.990  1.00  0.00     0.037 A 
HETATM   35  C   UNL     1      41.687 -14.066  -3.278  1.00  0.00     0.003 A 
HETATM   36  C   UNL     1      40.761 -14.509  -2.345  1.00  0.00     0.001 A 
HETATM   37  C   UNL     1      40.640 -13.857  -1.115  1.00  0.00     0.012 A 
BRANCH  33  38
HETATM   38  O   UNL     1      43.134 -11.211  -1.430  1.00  0.00    -0.355 OA
HETATM   39  C   UNL     1      42.997 -10.057  -2.257  1.00  0.00     0.210 C 
ENDBRANCH  33  38
ENDBRANCH   1  32
TORSDOF 7
ENDMDL
