MODEL 1
REMARK VINA RESULT:      -9.0      0.000      0.000
REMARK  6 active torsions:
REMARK  status: ('A' for Active; 'I' for Inactive)
REMARK    1  A    between atoms: C_2  and  C_3 
REMARK    2  A    between atoms: C_3  and  O_4 
REMARK    3  A    between atoms: O_4  and  C_5 
REMARK    4  A    between atoms: C_7  and  C_8 
REMARK       I    between atoms: C_8  and  N_9 
REMARK    5  A    between atoms: N_9  and  C_10 
REMARK    6  A    between atoms: C_17  and  C_18 
REMARK       I    between atoms: C_18  and  N_19 
ROOT
HETATM    1  C   UNL     1      41.190 -16.643   1.275  1.00  0.00     0.036 A 
HETATM    2  C   UNL     1      41.407 -16.158  -0.021  1.00  0.00     0.046 A 
HETATM    3  C   UNL     1      40.682 -15.036  -0.480  1.00  0.00     0.030 A 
HETATM    4  C   UNL     1      39.754 -14.446   0.369  1.00  0.00     0.063 A 
HETATM    5  N   UNL     1      39.218 -13.410  -0.344  1.00  0.00    -0.277 N 
HETATM    6  H   UNL     1      38.502 -12.760  -0.038  1.00  0.00     0.189 HD
HETATM    7  N   UNL     1      39.726 -13.261  -1.577  1.00  0.00    -0.168 NA
HETATM    8  C   UNL     1      40.634 -14.259  -1.677  1.00  0.00     0.156 A 
HETATM    9  C   UNL     1      39.505 -14.905   1.663  1.00  0.00     0.034 A 
HETATM   10  C   UNL     1      40.247 -16.010   2.098  1.00  0.00     0.032 A 
ENDROOT
BRANCH   1  11
HETATM   11  N   UNL     1      41.877 -17.747   1.829  1.00  0.00    -0.323 N 
HETATM   12  C   UNL     1      43.148 -18.190   1.509  1.00  0.00     0.256 C 
HETATM   13  O   UNL     1      43.910 -17.690   0.688  1.00  0.00    -0.267 OA
HETATM   14  H   UNL     1      41.393 -18.229   2.573  1.00  0.00     0.169 HD
BRANCH  12  15
HETATM   15  C   UNL     1      43.634 -19.377   2.274  1.00  0.00     0.035 A 
HETATM   16  C   UNL     1      43.937 -19.195   3.633  1.00  0.00     0.053 A 
HETATM   17  C   UNL     1      44.402 -20.260   4.404  1.00  0.00     0.069 A 
HETATM   18  C   UNL     1      44.556 -21.515   3.810  1.00  0.00     0.037 A 
HETATM   19  C   UNL     1      44.275 -21.702   2.456  1.00  0.00     0.004 A 
HETATM   20  C   UNL     1      43.822 -20.633   1.682  1.00  0.00     0.017 A 
BRANCH  17  21
HETATM   21  O   UNL     1      44.733 -20.206   5.730  1.00  0.00    -0.351 OA
BRANCH  21  22
HETATM   22  C   UNL     1      43.719 -19.754   6.631  1.00  0.00     0.179 C 
BRANCH  22  23
HETATM   23  C   UNL     1      44.266 -18.575   7.449  1.00  0.00     0.002 C 
HETATM   24  C   UNL     1      43.152 -17.599   7.835  1.00  0.00     0.011 C 
HETATM   25  C   UNL     1      45.360 -17.849   6.667  1.00  0.00     0.011 C 
ENDBRANCH  22  23
ENDBRANCH  21  22
ENDBRANCH  17  21
ENDBRANCH  12  15
ENDBRANCH   1  11
BRANCH   8  26
HETATM   26  C   UNL     1      41.434 -14.439  -2.896  1.00  0.00     0.270 C 
HETATM   27  N   UNL     1      42.657 -13.825  -2.857  1.00  0.00    -0.365 N 
HETATM   28  H   UNL     1      42.918 -13.317  -2.020  1.00  0.00     0.159 HD
HETATM   29  H   UNL     1      43.281 -13.907  -3.643  1.00  0.00     0.159 HD
HETATM   30  O   UNL     1      41.081 -15.080  -3.880  1.00  0.00    -0.266 OA
ENDBRANCH   8  26
TORSDOF 6
ENDMDL
MODEL 2
REMARK VINA RESULT:      -8.7      5.786      8.610
REMARK  6 active torsions:
REMARK  status: ('A' for Active; 'I' for Inactive)
REMARK    1  A    between atoms: C_2  and  C_3 
REMARK    2  A    between atoms: C_3  and  O_4 
REMARK    3  A    between atoms: O_4  and  C_5 
REMARK    4  A    between atoms: C_7  and  C_8 
REMARK       I    between atoms: C_8  and  N_9 
REMARK    5  A    between atoms: N_9  and  C_10 
REMARK    6  A    between atoms: C_17  and  C_18 
REMARK       I    between atoms: C_18  and  N_19 
ROOT
HETATM    1  C   UNL     1      43.953 -15.722   6.570  1.00  0.00     0.036 A 
HETATM    2  C   UNL     1      43.059 -15.562   5.504  1.00  0.00     0.046 A 
HETATM    3  C   UNL     1      42.826 -16.638   4.618  1.00  0.00     0.030 A 
HETATM    4  C   UNL     1      43.507 -17.832   4.821  1.00  0.00     0.063 A 
HETATM    5  N   UNL     1      43.087 -18.663   3.820  1.00  0.00    -0.277 N 
HETATM    6  H   UNL     1      43.380 -19.619   3.653  1.00  0.00     0.189 HD
HETATM    7  N   UNL     1      42.180 -18.122   2.991  1.00  0.00    -0.168 NA
HETATM    8  C   UNL     1      42.007 -16.870   3.471  1.00  0.00     0.156 A 
HETATM    9  C   UNL     1      44.409 -18.026   5.867  1.00  0.00     0.034 A 
HETATM   10  C   UNL     1      44.612 -16.949   6.739  1.00  0.00     0.032 A 
ENDROOT
BRANCH   1  11
HETATM   11  N   UNL     1      44.238 -14.712   7.517  1.00  0.00    -0.323 N 
HETATM   12  C   UNL     1      45.151 -13.680   7.393  1.00  0.00     0.256 C 
HETATM   13  O   UNL     1      45.870 -13.455   6.426  1.00  0.00    -0.267 OA
HETATM   14  H   UNL     1      43.672 -14.731   8.354  1.00  0.00     0.169 HD
BRANCH  12  15
HETATM   15  C   UNL     1      45.229 -12.739   8.550  1.00  0.00     0.035 A 
HETATM   16  C   UNL     1      44.341 -12.946   9.618  1.00  0.00     0.053 A 
HETATM   17  C   UNL     1      44.356 -12.100  10.726  1.00  0.00     0.069 A 
HETATM   18  C   UNL     1      45.272 -11.046  10.766  1.00  0.00     0.037 A 
HETATM   19  C   UNL     1      46.146 -10.820   9.702  1.00  0.00     0.004 A 
HETATM   20  C   UNL     1      46.121 -11.660   8.587  1.00  0.00     0.017 A 
BRANCH  17  21
HETATM   21  O   UNL     1      43.541 -12.196  11.820  1.00  0.00    -0.351 OA
BRANCH  21  22
HETATM   22  C   UNL     1      42.578 -11.154  12.001  1.00  0.00     0.179 C 
BRANCH  22  23
HETATM   23  C   UNL     1      42.650 -10.654  13.453  1.00  0.00     0.002 C 
HETATM   24  C   UNL     1      41.252 -10.412  14.028  1.00  0.00     0.011 C 
HETATM   25  C   UNL     1      43.486  -9.378  13.534  1.00  0.00     0.011 C 
ENDBRANCH  22  23
ENDBRANCH  21  22
ENDBRANCH  17  21
ENDBRANCH  12  15
ENDBRANCH   1  11
BRANCH   8  26
HETATM   26  C   UNL     1      41.065 -15.936   2.838  1.00  0.00     0.270 C 
HETATM   27  N   UNL     1      39.898 -16.517   2.423  1.00  0.00    -0.365 N 
HETATM   28  H   UNL     1      39.765 -17.508   2.584  1.00  0.00     0.159 HD
HETATM   29  H   UNL     1      39.185 -15.950   1.991  1.00  0.00     0.159 HD
HETATM   30  O   UNL     1      41.265 -14.736   2.681  1.00  0.00    -0.266 OA
ENDBRANCH   8  26
TORSDOF 6
ENDMDL
MODEL 3
REMARK VINA RESULT:      -8.4      1.482      3.227
REMARK  6 active torsions:
REMARK  status: ('A' for Active; 'I' for Inactive)
REMARK    1  A    between atoms: C_2  and  C_3 
REMARK    2  A    between atoms: C_3  and  O_4 
REMARK    3  A    between atoms: O_4  and  C_5 
REMARK    4  A    between atoms: C_7  and  C_8 
REMARK       I    between atoms: C_8  and  N_9 
REMARK    5  A    between atoms: N_9  and  C_10 
REMARK    6  A    between atoms: C_17  and  C_18 
REMARK       I    between atoms: C_18  and  N_19 
ROOT
HETATM    1  C   UNL     1      40.524 -15.512   1.644  1.00  0.00     0.036 A 
HETATM    2  C   UNL     1      40.995 -15.355   0.334  1.00  0.00     0.046 A 
HETATM    3  C   UNL     1      40.271 -14.558  -0.580  1.00  0.00     0.030 A 
HETATM    4  C   UNL     1      39.092 -13.957  -0.157  1.00  0.00     0.063 A 
HETATM    5  N   UNL     1      38.625 -13.271  -1.243  1.00  0.00    -0.277 N 
HETATM    6  H   UNL     1      37.778 -12.717  -1.301  1.00  0.00     0.189 HD
HETATM    7  N   UNL     1      39.403 -13.359  -2.334  1.00  0.00    -0.168 NA
HETATM    8  C   UNL     1      40.426 -14.151  -1.940  1.00  0.00     0.156 A 
HETATM    9  C   UNL     1      38.588 -14.096   1.136  1.00  0.00     0.034 A 
HETATM   10  C   UNL     1      39.332 -14.880   2.028  1.00  0.00     0.032 A 
ENDROOT
BRANCH   1  11
HETATM   11  N   UNL     1      41.185 -16.274   2.634  1.00  0.00    -0.323 N 
HETATM   12  C   UNL     1      42.315 -15.920   3.348  1.00  0.00     0.256 C 
HETATM   13  O   UNL     1      42.940 -14.869   3.253  1.00  0.00    -0.267 OA
HETATM   14  H   UNL     1      40.745 -17.152   2.869  1.00  0.00     0.169 HD
BRANCH  12  15
HETATM   15  C   UNL     1      42.787 -16.918   4.355  1.00  0.00     0.035 A 
HETATM   16  C   UNL     1      43.640 -17.940   3.907  1.00  0.00     0.053 A 
HETATM   17  C   UNL     1      44.112 -18.907   4.794  1.00  0.00     0.069 A 
HETATM   18  C   UNL     1      43.732 -18.845   6.136  1.00  0.00     0.037 A 
HETATM   19  C   UNL     1      42.870 -17.844   6.588  1.00  0.00     0.004 A 
HETATM   20  C   UNL     1      42.388 -16.884   5.697  1.00  0.00     0.017 A 
BRANCH  17  21
HETATM   21  O   UNL     1      44.939 -19.950   4.477  1.00  0.00    -0.351 OA
BRANCH  21  22
HETATM   22  C   UNL     1      45.011 -20.321   3.098  1.00  0.00     0.179 C 
BRANCH  22  23
HETATM   23  C   UNL     1      44.163 -21.582   2.875  1.00  0.00     0.002 C 
HETATM   24  C   UNL     1      44.661 -22.748   3.732  1.00  0.00     0.011 C 
HETATM   25  C   UNL     1      44.168 -21.970   1.396  1.00  0.00     0.011 C 
ENDBRANCH  22  23
ENDBRANCH  21  22
ENDBRANCH  17  21
ENDBRANCH  12  15
ENDBRANCH   1  11
BRANCH   8  26
HETATM   26  C   UNL     1      41.523 -14.488  -2.858  1.00  0.00     0.270 C 
HETATM   27  N   UNL     1      42.587 -13.629  -2.796  1.00  0.00    -0.365 N 
HETATM   28  H   UNL     1      42.549 -12.857  -2.141  1.00  0.00     0.159 HD
HETATM   29  H   UNL     1      43.392 -13.791  -3.379  1.00  0.00     0.159 HD
HETATM   30  O   UNL     1      41.530 -15.448  -3.622  1.00  0.00    -0.266 OA
ENDBRANCH   8  26
TORSDOF 6
ENDMDL
MODEL 4
REMARK VINA RESULT:      -8.3      2.741      9.146
REMARK  6 active torsions:
REMARK  status: ('A' for Active; 'I' for Inactive)
REMARK    1  A    between atoms: C_2  and  C_3 
REMARK    2  A    between atoms: C_3  and  O_4 
REMARK    3  A    between atoms: O_4  and  C_5 
REMARK    4  A    between atoms: C_7  and  C_8 
REMARK       I    between atoms: C_8  and  N_9 
REMARK    5  A    between atoms: N_9  and  C_10 
REMARK    6  A    between atoms: C_17  and  C_18 
REMARK       I    between atoms: C_18  and  N_19 
ROOT
HETATM    1  C   UNL     1      42.028 -17.726   2.548  1.00  0.00     0.036 A 
HETATM    2  C   UNL     1      42.462 -17.636   3.876  1.00  0.00     0.046 A 
HETATM    3  C   UNL     1      43.461 -18.516   4.349  1.00  0.00     0.030 A 
HETATM    4  C   UNL     1      43.981 -19.467   3.479  1.00  0.00     0.063 A 
HETATM    5  N   UNL     1      44.903 -20.161   4.211  1.00  0.00    -0.277 N 
HETATM    6  H   UNL     1      45.478 -20.936   3.898  1.00  0.00     0.189 HD
HETATM    7  N   UNL     1      45.043 -19.738   5.477  1.00  0.00    -0.168 NA
HETATM    8  C   UNL     1      44.158 -18.720   5.578  1.00  0.00     0.156 A 
HETATM    9  C   UNL     1      43.569 -19.592   2.152  1.00  0.00     0.034 A 
HETATM   10  C   UNL     1      42.587 -18.698   1.705  1.00  0.00     0.032 A 
ENDROOT
BRANCH   1  11
HETATM   11  N   UNL     1      41.048 -16.881   1.980  1.00  0.00    -0.323 N 
HETATM   12  C   UNL     1      41.224 -15.592   1.510  1.00  0.00     0.256 C 
HETATM   13  O   UNL     1      42.272 -14.957   1.495  1.00  0.00    -0.267 OA
HETATM   14  H   UNL     1      40.133 -17.294   1.867  1.00  0.00     0.169 HD
BRANCH  12  15
HETATM   15  C   UNL     1      40.008 -14.938   0.936  1.00  0.00     0.035 A 
HETATM   16  C   UNL     1      40.115 -14.379  -0.347  1.00  0.00     0.053 A 
HETATM   17  C   UNL     1      39.020 -13.749  -0.938  1.00  0.00     0.069 A 
HETATM   18  C   UNL     1      37.812 -13.686  -0.241  1.00  0.00     0.037 A 
HETATM   19  C   UNL     1      37.700 -14.223   1.042  1.00  0.00     0.004 A 
HETATM   20  C   UNL     1      38.800 -14.843   1.638  1.00  0.00     0.017 A 
BRANCH  17  21
HETATM   21  O   UNL     1      39.003 -13.164  -2.175  1.00  0.00    -0.351 OA
BRANCH  21  22
HETATM   22  C   UNL     1      39.398 -13.981  -3.280  1.00  0.00     0.179 C 
BRANCH  22  23
HETATM   23  C   UNL     1      38.366 -15.105  -3.465  1.00  0.00     0.002 C 
HETATM   24  C   UNL     1      38.932 -16.248  -4.310  1.00  0.00     0.011 C 
HETATM   25  C   UNL     1      37.091 -14.555  -4.103  1.00  0.00     0.011 C 
ENDBRANCH  22  23
ENDBRANCH  21  22
ENDBRANCH  17  21
ENDBRANCH  12  15
ENDBRANCH   1  11
BRANCH   8  26
HETATM   26  C   UNL     1      44.008 -17.965   6.830  1.00  0.00     0.270 C 
HETATM   27  N   UNL     1      43.572 -18.718   7.887  1.00  0.00    -0.365 N 
HETATM   28  H   UNL     1      43.399 -19.706   7.740  1.00  0.00     0.159 HD
HETATM   29  H   UNL     1      43.454 -18.288   8.790  1.00  0.00     0.159 HD
HETATM   30  O   UNL     1      44.247 -16.770   6.963  1.00  0.00    -0.266 OA
ENDBRANCH   8  26
TORSDOF 6
ENDMDL
MODEL 5
REMARK VINA RESULT:      -8.3      5.886      9.173
REMARK  6 active torsions:
REMARK  status: ('A' for Active; 'I' for Inactive)
REMARK    1  A    between atoms: C_2  and  C_3 
REMARK    2  A    between atoms: C_3  and  O_4 
REMARK    3  A    between atoms: O_4  and  C_5 
REMARK    4  A    between atoms: C_7  and  C_8 
REMARK       I    between atoms: C_8  and  N_9 
REMARK    5  A    between atoms: N_9  and  C_10 
REMARK    6  A    between atoms: C_17  and  C_18 
REMARK       I    between atoms: C_18  and  N_19 
ROOT
HETATM    1  C   UNL     1      43.714 -15.200   6.104  1.00  0.00     0.036 A 
HETATM    2  C   UNL     1      43.893 -16.583   6.236  1.00  0.00     0.046 A 
HETATM    3  C   UNL     1      43.613 -17.434   5.143  1.00  0.00     0.030 A 
HETATM    4  C   UNL     1      43.151 -16.873   3.960  1.00  0.00     0.063 A 
HETATM    5  N   UNL     1      42.966 -17.926   3.108  1.00  0.00    -0.277 N 
HETATM    6  H   UNL     1      42.631 -17.889   2.152  1.00  0.00     0.189 HD
HETATM    7  N   UNL     1      43.283 -19.123   3.625  1.00  0.00    -0.168 NA
HETATM    8  C   UNL     1      43.686 -18.836   4.884  1.00  0.00     0.156 A 
HETATM    9  C   UNL     1      42.954 -15.502   3.792  1.00  0.00     0.034 A 
HETATM   10  C   UNL     1      43.252 -14.679   4.887  1.00  0.00     0.032 A 
ENDROOT
BRANCH   1  11
HETATM   11  N   UNL     1      43.982 -14.269   7.133  1.00  0.00    -0.323 N 
HETATM   12  C   UNL     1      45.098 -13.463   7.263  1.00  0.00     0.256 C 
HETATM   13  O   UNL     1      46.053 -13.408   6.497  1.00  0.00    -0.267 OA
HETATM   14  H   UNL     1      43.247 -14.156   7.816  1.00  0.00     0.169 HD
BRANCH  12  15
HETATM   15  C   UNL     1      45.106 -12.550   8.447  1.00  0.00     0.035 A 
HETATM   16  C   UNL     1      43.939 -12.486   9.225  1.00  0.00     0.053 A 
HETATM   17  C   UNL     1      43.877 -11.650  10.340  1.00  0.00     0.069 A 
HETATM   18  C   UNL     1      44.992 -10.881  10.678  1.00  0.00     0.037 A 
HETATM   19  C   UNL     1      46.151 -10.924   9.901  1.00  0.00     0.004 A 
HETATM   20  C   UNL     1      46.208 -11.752   8.778  1.00  0.00     0.017 A 
BRANCH  17  21
HETATM   21  O   UNL     1      42.800 -11.498  11.169  1.00  0.00    -0.351 OA
BRANCH  21  22
HETATM   22  C   UNL     1      43.022 -11.725  12.563  1.00  0.00     0.179 C 
BRANCH  22  23
HETATM   23  C   UNL     1      42.345 -10.604  13.367  1.00  0.00     0.002 C 
HETATM   24  C   UNL     1      41.116 -10.059  12.637  1.00  0.00     0.011 C 
HETATM   25  C   UNL     1      43.339  -9.477  13.647  1.00  0.00     0.011 C 
ENDBRANCH  22  23
ENDBRANCH  21  22
ENDBRANCH  17  21
ENDBRANCH  12  15
ENDBRANCH   1  11
BRANCH   8  26
HETATM   26  C   UNL     1      44.137 -19.896   5.798  1.00  0.00     0.270 C 
HETATM   27  N   UNL     1      43.720 -19.731   7.091  1.00  0.00    -0.365 N 
HETATM   28  H   UNL     1      43.145 -18.928   7.317  1.00  0.00     0.159 HD
HETATM   29  H   UNL     1      43.969 -20.417   7.786  1.00  0.00     0.159 HD
HETATM   30  O   UNL     1      44.819 -20.860   5.472  1.00  0.00    -0.266 OA
ENDBRANCH   8  26
TORSDOF 6
ENDMDL
MODEL 6
REMARK VINA RESULT:      -8.2      5.577      8.603
REMARK  6 active torsions:
REMARK  status: ('A' for Active; 'I' for Inactive)
REMARK    1  A    between atoms: C_2  and  C_3 
REMARK    2  A    between atoms: C_3  and  O_4 
REMARK    3  A    between atoms: O_4  and  C_5 
REMARK    4  A    between atoms: C_7  and  C_8 
REMARK       I    between atoms: C_8  and  N_9 
REMARK    5  A    between atoms: N_9  and  C_10 
REMARK    6  A    between atoms: C_17  and  C_18 
REMARK       I    between atoms: C_18  and  N_19 
ROOT
HETATM    1  C   UNL     1      44.037 -15.807   6.523  1.00  0.00     0.036 A 
HETATM    2  C   UNL     1      43.234 -15.832   5.376  1.00  0.00     0.046 A 
HETATM    3  C   UNL     1      43.165 -17.007   4.594  1.00  0.00     0.030 A 
HETATM    4  C   UNL     1      43.916 -18.111   4.978  1.00  0.00     0.063 A 
HETATM    5  N   UNL     1      43.654 -19.071   4.041  1.00  0.00    -0.277 N 
HETATM    6  H   UNL     1      44.034 -20.010   4.001  1.00  0.00     0.189 HD
HETATM    7  N   UNL     1      42.786 -18.696   3.087  1.00  0.00    -0.168 NA
HETATM    8  C   UNL     1      42.474 -17.422   3.416  1.00  0.00     0.156 A 
HETATM    9  C   UNL     1      44.733 -18.121   6.109  1.00  0.00     0.034 A 
HETATM   10  C   UNL     1      44.772 -16.948   6.875  1.00  0.00     0.032 A 
ENDROOT
BRANCH   1  11
HETATM   11  N   UNL     1      44.157 -14.686   7.376  1.00  0.00    -0.323 N 
HETATM   12  C   UNL     1      45.061 -13.645   7.270  1.00  0.00     0.256 C 
HETATM   13  O   UNL     1      45.917 -13.506   6.403  1.00  0.00    -0.267 OA
HETATM   14  H   UNL     1      43.469 -14.629   8.114  1.00  0.00     0.169 HD
BRANCH  12  15
HETATM   15  C   UNL     1      44.945 -12.575   8.307  1.00  0.00     0.035 A 
HETATM   16  C   UNL     1      43.658 -12.103   8.612  1.00  0.00     0.053 A 
HETATM   17  C   UNL     1      43.479 -11.101   9.565  1.00  0.00     0.069 A 
HETATM   18  C   UNL     1      44.595 -10.577  10.221  1.00  0.00     0.037 A 
HETATM   19  C   UNL     1      45.880 -11.027   9.913  1.00  0.00     0.004 A 
HETATM   20  C   UNL     1      46.059 -12.021   8.949  1.00  0.00     0.017 A 
BRANCH  17  21
HETATM   21  O   UNL     1      42.282 -10.558   9.943  1.00  0.00    -0.351 OA
BRANCH  21  22
HETATM   22  C   UNL     1      41.777 -10.937  11.226  1.00  0.00     0.179 C 
BRANCH  22  23
HETATM   23  C   UNL     1      40.251 -11.098  11.135  1.00  0.00     0.002 C 
HETATM   24  C   UNL     1      39.763 -10.974   9.690  1.00  0.00     0.011 C 
HETATM   25  C   UNL     1      39.555 -10.066  12.021  1.00  0.00     0.011 C 
ENDBRANCH  22  23
ENDBRANCH  21  22
ENDBRANCH  17  21
ENDBRANCH  12  15
ENDBRANCH   1  11
BRANCH   8  26
HETATM   26  C   UNL     1      41.523 -16.641   2.611  1.00  0.00     0.270 C 
HETATM   27  N   UNL     1      40.298 -16.479   3.198  1.00  0.00    -0.365 N 
HETATM   28  H   UNL     1      40.140 -16.884   4.113  1.00  0.00     0.159 HD
HETATM   29  H   UNL     1      39.586 -15.944   2.726  1.00  0.00     0.159 HD
HETATM   30  O   UNL     1      41.767 -16.154   1.513  1.00  0.00    -0.266 OA
ENDBRANCH   8  26
TORSDOF 6
ENDMDL
MODEL 7
REMARK VINA RESULT:      -8.1      1.918      2.301
REMARK  6 active torsions:
REMARK  status: ('A' for Active; 'I' for Inactive)
REMARK    1  A    between atoms: C_2  and  C_3 
REMARK    2  A    between atoms: C_3  and  O_4 
REMARK    3  A    between atoms: O_4  and  C_5 
REMARK    4  A    between atoms: C_7  and  C_8 
REMARK       I    between atoms: C_8  and  N_9 
REMARK    5  A    between atoms: N_9  and  C_10 
REMARK    6  A    between atoms: C_17  and  C_18 
REMARK       I    between atoms: C_18  and  N_19 
ROOT
HETATM    1  C   UNL     1      40.991 -15.560   1.466  1.00  0.00     0.036 A 
HETATM    2  C   UNL     1      41.291 -15.334   0.116  1.00  0.00     0.046 A 
HETATM    3  C   UNL     1      40.401 -14.582  -0.683  1.00  0.00     0.030 A 
HETATM    4  C   UNL     1      39.234 -14.094  -0.108  1.00  0.00     0.063 A 
HETATM    5  N   UNL     1      38.588 -13.427  -1.111  1.00  0.00    -0.277 N 
HETATM    6  H   UNL     1      37.697 -12.946  -1.053  1.00  0.00     0.189 HD
HETATM    7  N   UNL     1      39.237 -13.423  -2.286  1.00  0.00    -0.168 NA
HETATM    8  C   UNL     1      40.361 -14.133  -2.038  1.00  0.00     0.156 A 
HETATM    9  C   UNL     1      38.898 -14.305   1.230  1.00  0.00     0.034 A 
HETATM   10  C   UNL     1      39.804 -15.042   2.004  1.00  0.00     0.032 A 
ENDROOT
BRANCH   1  11
HETATM   11  N   UNL     1      41.825 -16.284   2.348  1.00  0.00    -0.323 N 
HETATM   12  C   UNL     1      42.160 -17.624   2.274  1.00  0.00     0.256 C 
HETATM   13  O   UNL     1      41.796 -18.421   1.416  1.00  0.00    -0.267 OA
HETATM   14  H   UNL     1      42.254 -15.739   3.082  1.00  0.00     0.169 HD
BRANCH  12  15
HETATM   15  C   UNL     1      43.085 -18.122   3.336  1.00  0.00     0.035 A 
HETATM   16  C   UNL     1      43.305 -17.293   4.448  1.00  0.00     0.053 A 
HETATM   17  C   UNL     1      44.162 -17.695   5.472  1.00  0.00     0.069 A 
HETATM   18  C   UNL     1      44.794 -18.937   5.384  1.00  0.00     0.037 A 
HETATM   19  C   UNL     1      44.597 -19.761   4.275  1.00  0.00     0.004 A 
HETATM   20  C   UNL     1      43.749 -19.352   3.244  1.00  0.00     0.017 A 
BRANCH  17  21
HETATM   21  O   UNL     1      44.459 -16.976   6.597  1.00  0.00    -0.351 OA
BRANCH  21  22
HETATM   22  C   UNL     1      43.614 -15.860   6.892  1.00  0.00     0.179 C 
BRANCH  22  23
HETATM   23  C   UNL     1      44.311 -14.570   6.431  1.00  0.00     0.002 C 
HETATM   24  C   UNL     1      44.756 -13.721   7.624  1.00  0.00     0.011 C 
HETATM   25  C   UNL     1      43.387 -13.764   5.520  1.00  0.00     0.011 C 
ENDBRANCH  22  23
ENDBRANCH  21  22
ENDBRANCH  17  21
ENDBRANCH  12  15
ENDBRANCH   1  11
BRANCH   8  26
HETATM   26  C   UNL     1      41.367 -14.354  -3.086  1.00  0.00     0.270 C 
HETATM   27  N   UNL     1      41.992 -13.213  -3.509  1.00  0.00    -0.365 N 
HETATM   28  H   UNL     1      41.735 -12.331  -3.081  1.00  0.00     0.159 HD
HETATM   29  H   UNL     1      42.708 -13.269  -4.216  1.00  0.00     0.159 HD
HETATM   30  O   UNL     1      41.657 -15.447  -3.562  1.00  0.00    -0.266 OA
ENDBRANCH   8  26
TORSDOF 6
ENDMDL
MODEL 8
REMARK VINA RESULT:      -8.0      3.092      8.718
REMARK  6 active torsions:
REMARK  status: ('A' for Active; 'I' for Inactive)
REMARK    1  A    between atoms: C_2  and  C_3 
REMARK    2  A    between atoms: C_3  and  O_4 
REMARK    3  A    between atoms: O_4  and  C_5 
REMARK    4  A    between atoms: C_7  and  C_8 
REMARK       I    between atoms: C_8  and  N_9 
REMARK    5  A    between atoms: N_9  and  C_10 
REMARK    6  A    between atoms: C_17  and  C_18 
REMARK       I    between atoms: C_18  and  N_19 
ROOT
HETATM    1  C   UNL     1      43.297 -17.323   1.990  1.00  0.00     0.036 A 
HETATM    2  C   UNL     1      43.615 -18.687   1.967  1.00  0.00     0.046 A 
HETATM    3  C   UNL     1      44.024 -19.331   3.155  1.00  0.00     0.030 A 
HETATM    4  C   UNL     1      44.117 -18.585   4.323  1.00  0.00     0.063 A 
HETATM    5  N   UNL     1      44.536 -19.464   5.282  1.00  0.00    -0.277 N 
HETATM    6  H   UNL     1      44.717 -19.266   6.260  1.00  0.00     0.189 HD
HETATM    7  N   UNL     1      44.711 -20.722   4.847  1.00  0.00    -0.168 NA
HETATM    8  C   UNL     1      44.397 -20.657   3.533  1.00  0.00     0.156 A 
HETATM    9  C   UNL     1      43.817 -17.224   4.384  1.00  0.00     0.034 A 
HETATM   10  C   UNL     1      43.399 -16.612   3.195  1.00  0.00     0.032 A 
ENDROOT
BRANCH   1  11
HETATM   11  N   UNL     1      42.863 -16.595   0.858  1.00  0.00    -0.323 N 
HETATM   12  C   UNL     1      41.568 -16.223   0.548  1.00  0.00     0.256 C 
HETATM   13  O   UNL     1      40.563 -16.452   1.212  1.00  0.00    -0.267 OA
HETATM   14  H   UNL     1      43.597 -16.278   0.241  1.00  0.00     0.169 HD
BRANCH  12  15
HETATM   15  C   UNL     1      41.402 -15.433  -0.710  1.00  0.00     0.035 A 
HETATM   16  C   UNL     1      41.627 -14.049  -0.643  1.00  0.00     0.053 A 
HETATM   17  C   UNL     1      41.484 -13.253  -1.779  1.00  0.00     0.069 A 
HETATM   18  C   UNL     1      41.121 -13.850  -2.988  1.00  0.00     0.037 A 
HETATM   19  C   UNL     1      40.877 -15.222  -3.061  1.00  0.00     0.004 A 
HETATM   20  C   UNL     1      41.008 -16.017  -1.921  1.00  0.00     0.017 A 
BRANCH  17  21
HETATM   21  O   UNL     1      41.670 -11.899  -1.838  1.00  0.00    -0.351 OA
BRANCH  21  22
HETATM   22  C   UNL     1      42.940 -11.403  -1.409  1.00  0.00     0.179 C 
BRANCH  22  23
HETATM   23  C   UNL     1      43.257 -10.109  -2.175  1.00  0.00     0.002 C 
HETATM   24  C   UNL     1      42.841  -8.872  -1.376  1.00  0.00     0.011 C 
HETATM   25  C   UNL     1      42.565 -10.117  -3.538  1.00  0.00     0.011 C 
ENDBRANCH  22  23
ENDBRANCH  21  22
ENDBRANCH  17  21
ENDBRANCH  12  15
ENDBRANCH   1  11
BRANCH   8  26
HETATM   26  C   UNL     1      44.449 -21.852   2.679  1.00  0.00     0.270 C 
HETATM   27  N   UNL     1      44.799 -22.997   3.342  1.00  0.00    -0.365 N 
HETATM   28  H   UNL     1      44.982 -22.945   4.337  1.00  0.00     0.159 HD
HETATM   29  H   UNL     1      44.847 -23.869   2.840  1.00  0.00     0.159 HD
HETATM   30  O   UNL     1      44.202 -21.868   1.478  1.00  0.00    -0.266 OA
ENDBRANCH   8  26
TORSDOF 6
ENDMDL
MODEL 9
REMARK VINA RESULT:      -8.0      2.782      9.094
REMARK  6 active torsions:
REMARK  status: ('A' for Active; 'I' for Inactive)
REMARK    1  A    between atoms: C_2  and  C_3 
REMARK    2  A    between atoms: C_3  and  O_4 
REMARK    3  A    between atoms: O_4  and  C_5 
REMARK    4  A    between atoms: C_7  and  C_8 
REMARK       I    between atoms: C_8  and  N_9 
REMARK    5  A    between atoms: N_9  and  C_10 
REMARK    6  A    between atoms: C_17  and  C_18 
REMARK       I    between atoms: C_18  and  N_19 
ROOT
HETATM    1  C   UNL     1      42.834 -17.640   2.612  1.00  0.00     0.036 A 
HETATM    2  C   UNL     1      42.781 -17.597   4.011  1.00  0.00     0.046 A 
HETATM    3  C   UNL     1      43.424 -18.602   4.767  1.00  0.00     0.030 A 
HETATM    4  C   UNL     1      44.085 -19.624   4.098  1.00  0.00     0.063 A 
HETATM    5  N   UNL     1      44.590 -20.432   5.078  1.00  0.00    -0.277 N 
HETATM    6  H   UNL     1      45.129 -21.281   4.956  1.00  0.00     0.189 HD
HETATM    7  N   UNL     1      44.330 -20.019   6.329  1.00  0.00    -0.168 NA
HETATM    8  C   UNL     1      43.610 -18.887   6.154  1.00  0.00     0.156 A 
HETATM    9  C   UNL     1      44.153 -19.704   2.707  1.00  0.00     0.034 A 
HETATM   10  C   UNL     1      43.520 -18.688   1.980  1.00  0.00     0.032 A 
ENDROOT
BRANCH   1  11
HETATM   11  N   UNL     1      42.238 -16.673   1.770  1.00  0.00    -0.323 N 
HETATM   12  C   UNL     1      40.888 -16.481   1.539  1.00  0.00     0.256 C 
HETATM   13  O   UNL     1      39.965 -17.117   2.036  1.00  0.00    -0.267 OA
HETATM   14  H   UNL     1      42.879 -16.026   1.332  1.00  0.00     0.169 HD
BRANCH  12  15
HETATM   15  C   UNL     1      40.540 -15.362   0.613  1.00  0.00     0.035 A 
HETATM   16  C   UNL     1      41.302 -15.226  -0.559  1.00  0.00     0.053 A 
HETATM   17  C   UNL     1      41.034 -14.199  -1.463  1.00  0.00     0.069 A 
HETATM   18  C   UNL     1      39.992 -13.309  -1.194  1.00  0.00     0.037 A 
HETATM   19  C   UNL     1      39.240 -13.424  -0.024  1.00  0.00     0.004 A 
HETATM   20  C   UNL     1      39.517 -14.444   0.887  1.00  0.00     0.017 A 
BRANCH  17  21
HETATM   21  O   UNL     1      41.706 -13.962  -2.631  1.00  0.00    -0.351 OA
BRANCH  21  22
HETATM   22  C   UNL     1      41.305 -12.816  -3.385  1.00  0.00     0.179 C 
BRANCH  22  23
HETATM   23  C   UNL     1      42.515 -11.886  -3.564  1.00  0.00     0.002 C 
HETATM   24  C   UNL     1      42.741 -11.020  -2.322  1.00  0.00     0.011 C 
HETATM   25  C   UNL     1      42.330 -11.005  -4.799  1.00  0.00     0.011 C 
ENDBRANCH  22  23
ENDBRANCH  21  22
ENDBRANCH  17  21
ENDBRANCH  12  15
ENDBRANCH   1  11
BRANCH   8  26
HETATM   26  C   UNL     1      43.130 -18.106   7.303  1.00  0.00     0.270 C 
HETATM   27  N   UNL     1      43.815 -18.343   8.464  1.00  0.00    -0.365 N 
HETATM   28  H   UNL     1      44.581 -19.007   8.449  1.00  0.00     0.159 HD
HETATM   29  H   UNL     1      43.566 -17.841   9.301  1.00  0.00     0.159 HD
HETATM   30  O   UNL     1      42.207 -17.300   7.268  1.00  0.00    -0.266 OA
ENDBRANCH   8  26
TORSDOF 6
ENDMDL
MODEL 10
REMARK VINA RESULT:      -8.0      3.143      8.708
REMARK  6 active torsions:
REMARK  status: ('A' for Active; 'I' for Inactive)
REMARK    1  A    between atoms: C_2  and  C_3 
REMARK    2  A    between atoms: C_3  and  O_4 
REMARK    3  A    between atoms: O_4  and  C_5 
REMARK    4  A    between atoms: C_7  and  C_8 
REMARK       I    between atoms: C_8  and  N_9 
REMARK    5  A    between atoms: N_9  and  C_10 
REMARK    6  A    between atoms: C_17  and  C_18 
REMARK       I    between atoms: C_18  and  N_19 
ROOT
HETATM    1  C   UNL     1      43.214 -17.311   1.866  1.00  0.00     0.036 A 
HETATM    2  C   UNL     1      43.289 -16.785   3.161  1.00  0.00     0.046 A 
HETATM    3  C   UNL     1      43.733 -17.603   4.225  1.00  0.00     0.030 A 
HETATM    4  C   UNL     1      44.071 -18.923   3.957  1.00  0.00     0.063 A 
HETATM    5  N   UNL     1      44.447 -19.451   5.160  1.00  0.00    -0.277 N 
HETATM    6  H   UNL     1      44.754 -20.400   5.345  1.00  0.00     0.189 HD
HETATM    7  N   UNL     1      44.399 -18.588   6.187  1.00  0.00    -0.168 NA
HETATM    8  C   UNL     1      43.960 -17.439   5.625  1.00  0.00     0.156 A 
HETATM    9  C   UNL     1      44.001 -19.484   2.682  1.00  0.00     0.034 A 
HETATM   10  C   UNL     1      43.572 -18.648   1.643  1.00  0.00     0.032 A 
ENDROOT
BRANCH   1  11
HETATM   11  N   UNL     1      42.799 -16.568   0.736  1.00  0.00    -0.323 N 
HETATM   12  C   UNL     1      41.529 -16.089   0.468  1.00  0.00     0.256 C 
HETATM   13  O   UNL     1      40.536 -16.219   1.174  1.00  0.00    -0.267 OA
HETATM   14  H   UNL     1      43.532 -16.326   0.085  1.00  0.00     0.169 HD
BRANCH  12  15
HETATM   15  C   UNL     1      41.383 -15.311  -0.799  1.00  0.00     0.035 A 
HETATM   16  C   UNL     1      41.690 -13.941  -0.759  1.00  0.00     0.053 A 
HETATM   17  C   UNL     1      41.569 -13.155  -1.905  1.00  0.00     0.069 A 
HETATM   18  C   UNL     1      41.145 -13.748  -3.096  1.00  0.00     0.037 A 
HETATM   19  C   UNL     1      40.819 -15.104  -3.142  1.00  0.00     0.004 A 
HETATM   20  C   UNL     1      40.928 -15.888  -1.992  1.00  0.00     0.017 A 
BRANCH  17  21
HETATM   21  O   UNL     1      41.833 -11.816  -1.990  1.00  0.00    -0.351 OA
BRANCH  21  22
HETATM   22  C   UNL     1      42.840 -11.300  -1.116  1.00  0.00     0.179 C 
BRANCH  22  23
HETATM   23  C   UNL     1      43.484 -10.066  -1.768  1.00  0.00     0.002 C 
HETATM   24  C   UNL     1      43.597  -8.906  -0.776  1.00  0.00     0.011 C 
HETATM   25  C   UNL     1      42.683  -9.637  -2.997  1.00  0.00     0.011 C 
ENDBRANCH  22  23
ENDBRANCH  21  22
ENDBRANCH  17  21
ENDBRANCH  12  15
ENDBRANCH   1  11
BRANCH   8  26
HETATM   26  C   UNL     1      43.780 -16.220   6.427  1.00  0.00     0.270 C 
HETATM   27  N   UNL     1      42.471 -15.900   6.667  1.00  0.00    -0.365 N 
HETATM   28  H   UNL     1      41.747 -16.505   6.298  1.00  0.00     0.159 HD
HETATM   29  H   UNL     1      42.251 -15.088   7.222  1.00  0.00     0.159 HD
HETATM   30  O   UNL     1      44.691 -15.528   6.867  1.00  0.00    -0.266 OA
ENDBRANCH   8  26
TORSDOF 6
ENDMDL
