MODEL 1
REMARK VINA RESULT:      -8.5      0.000      0.000
REMARK  5 active torsions:
REMARK  status: ('A' for Active; 'I' for Inactive)
REMARK    1  A    between atoms: C_8  and  C_9 
REMARK    2  A    between atoms: N_10  and  N_11 
REMARK       I    between atoms: N_11  and  C_12 
REMARK    3  A    between atoms: C_12  and  C_13 
REMARK    4  A    between atoms: C_13  and  O_14 
REMARK    5  A    between atoms: O_14  and  C_15 
ROOT
HETATM    1  N   UNL     1      43.889 -14.264   7.162  1.00  0.00    -0.246 N 
HETATM    2  C   UNL     1      44.983 -13.462   7.466  1.00  0.00     0.261 C 
HETATM    3  O   UNL     1      45.973 -13.283   6.760  1.00  0.00    -0.269 OA
HETATM    4  H   UNL     1      43.048 -14.122   7.720  1.00  0.00     0.192 HD
ENDROOT
BRANCH   1   5
HETATM    5  N   UNL     1      43.674 -14.946   5.990  1.00  0.00    -0.184 NA
HETATM    6  C   UNL     1      43.539 -16.234   6.029  1.00  0.00     0.152 C 
BRANCH   6   7
HETATM    7  C   UNL     1      43.337 -16.974   4.798  1.00  0.00     0.011 A 
HETATM    8  C   UNL     1      43.881 -18.259   4.470  1.00  0.00     0.004 A 
HETATM    9  C   UNL     1      44.729 -19.168   5.139  1.00  0.00     0.014 A 
HETATM   10  C   UNL     1      43.421 -18.595   3.196  1.00  0.00     0.043 A 
HETATM   11  C   UNL     1      45.080 -20.371   4.517  1.00  0.00     0.001 A 
HETATM   12  C   UNL     1      44.600 -20.679   3.247  1.00  0.00     0.002 A 
HETATM   13  C   UNL     1      43.760 -19.796   2.561  1.00  0.00     0.030 A 
HETATM   14  N   UNL     1      42.632 -17.555   2.762  1.00  0.00    -0.364 N 
HETATM   15  H   UNL     1      42.164 -17.525   1.867  1.00  0.00     0.165 HD
HETATM   16  C   UNL     1      42.578 -16.573   3.715  1.00  0.00     0.102 A 
ENDBRANCH   6   7
ENDBRANCH   1   5
BRANCH   2  17
HETATM   17  C   UNL     1      44.902 -12.845   8.862  1.00  0.00     0.280 C 
BRANCH  17  18
HETATM   18  O   UNL     1      44.768 -11.428   8.811  1.00  0.00    -0.340 OA
BRANCH  18  19
HETATM   19  C   UNL     1      43.861 -10.860   9.670  1.00  0.00     0.092 A 
HETATM   20  C   UNL     1      42.565 -10.639   9.175  1.00  0.00     0.069 A 
HETATM   21 CL   UNL     1      42.148 -11.049   7.548  1.00  0.00    -0.081 Cl
HETATM   22  C   UNL     1      41.577 -10.072   9.984  1.00  0.00     0.052 A 
HETATM   23  C   UNL     1      41.870  -9.728  11.303  1.00  0.00     0.057 A 
HETATM   24 CL   UNL     1      40.607  -9.030  12.253  1.00  0.00    -0.082 Cl
HETATM   25  C   UNL     1      43.152  -9.955  11.812  1.00  0.00     0.058 A 
HETATM   26 CL   UNL     1      43.583  -9.567  13.441  1.00  0.00    -0.082 Cl
HETATM   27  C   UNL     1      44.143 -10.520  10.998  1.00  0.00     0.064 A 
ENDBRANCH  18  19
ENDBRANCH  17  18
ENDBRANCH   2  17
TORSDOF 5
ENDMDL
MODEL 2
REMARK VINA RESULT:      -8.5      6.384      8.201
REMARK  5 active torsions:
REMARK  status: ('A' for Active; 'I' for Inactive)
REMARK    1  A    between atoms: C_8  and  C_9 
REMARK    2  A    between atoms: N_10  and  N_11 
REMARK       I    between atoms: N_11  and  C_12 
REMARK    3  A    between atoms: C_12  and  C_13 
REMARK    4  A    between atoms: C_13  and  O_14 
REMARK    5  A    between atoms: O_14  and  C_15 
ROOT
HETATM    1  N   UNL     1      42.477 -15.006   3.264  1.00  0.00    -0.246 N 
HETATM    2  C   UNL     1      43.084 -13.763   3.132  1.00  0.00     0.261 C 
HETATM    3  O   UNL     1      44.170 -13.430   3.600  1.00  0.00    -0.269 OA
HETATM    4  H   UNL     1      41.709 -15.211   2.625  1.00  0.00     0.192 HD
ENDROOT
BRANCH   1   5
HETATM    5  N   UNL     1      43.007 -16.115   3.876  1.00  0.00    -0.184 NA
HETATM    6  C   UNL     1      43.341 -17.134   3.149  1.00  0.00     0.152 C 
BRANCH   6   7
HETATM    7  C   UNL     1      43.878 -18.324   3.781  1.00  0.00     0.011 A 
HETATM    8  C   UNL     1      43.966 -19.634   3.208  1.00  0.00     0.004 A 
HETATM    9  C   UNL     1      43.591 -20.192   1.966  1.00  0.00     0.014 A 
HETATM   10  C   UNL     1      44.557 -20.468   4.158  1.00  0.00     0.043 A 
HETATM   11  C   UNL     1      43.822 -21.551   1.721  1.00  0.00     0.001 A 
HETATM   12  C   UNL     1      44.418 -22.354   2.689  1.00  0.00     0.002 A 
HETATM   13  C   UNL     1      44.798 -21.828   3.927  1.00  0.00     0.030 A 
HETATM   14  N   UNL     1      44.815 -19.698   5.268  1.00  0.00    -0.364 N 
HETATM   15  H   UNL     1      45.242 -20.041   6.117  1.00  0.00     0.165 HD
HETATM   16  C   UNL     1      44.407 -18.409   5.055  1.00  0.00     0.102 A 
ENDBRANCH   6   7
ENDBRANCH   1   5
BRANCH   2  17
HETATM   17  C   UNL     1      42.215 -12.750   2.387  1.00  0.00     0.280 C 
BRANCH  17  18
HETATM   18  O   UNL     1      42.367 -12.852   0.975  1.00  0.00    -0.340 OA
BRANCH  18  19
HETATM   19  C   UNL     1      41.249 -13.190   0.254  1.00  0.00     0.092 A 
HETATM   20  C   UNL     1      41.376 -13.211  -1.145  1.00  0.00     0.069 A 
HETATM   21 CL   UNL     1      42.870 -12.806  -1.914  1.00  0.00    -0.081 Cl
HETATM   22  C   UNL     1      40.290 -13.552  -1.956  1.00  0.00     0.052 A 
HETATM   23  C   UNL     1      39.066 -13.888  -1.378  1.00  0.00     0.057 A 
HETATM   24 CL   UNL     1      37.762 -14.300  -2.432  1.00  0.00    -0.082 Cl
HETATM   25  C   UNL     1      38.932 -13.884   0.014  1.00  0.00     0.058 A 
HETATM   26 CL   UNL     1      37.451 -14.302   0.801  1.00  0.00    -0.082 Cl
HETATM   27  C   UNL     1      40.020 -13.538   0.826  1.00  0.00     0.064 A 
ENDBRANCH  18  19
ENDBRANCH  17  18
ENDBRANCH   2  17
TORSDOF 5
ENDMDL
MODEL 3
REMARK VINA RESULT:      -8.4      6.065      8.129
REMARK  5 active torsions:
REMARK  status: ('A' for Active; 'I' for Inactive)
REMARK    1  A    between atoms: C_8  and  C_9 
REMARK    2  A    between atoms: N_10  and  N_11 
REMARK       I    between atoms: N_11  and  C_12 
REMARK    3  A    between atoms: C_12  and  C_13 
REMARK    4  A    between atoms: C_13  and  O_14 
REMARK    5  A    between atoms: O_14  and  C_15 
ROOT
HETATM    1  N   UNL     1      42.463 -14.973   3.848  1.00  0.00    -0.246 N 
HETATM    2  C   UNL     1      43.130 -13.796   3.532  1.00  0.00     0.261 C 
HETATM    3  O   UNL     1      44.326 -13.569   3.699  1.00  0.00    -0.269 OA
HETATM    4  H   UNL     1      41.542 -15.104   3.430  1.00  0.00     0.192 HD
ENDROOT
BRANCH   1   5
HETATM    5  N   UNL     1      43.025 -16.127   4.336  1.00  0.00    -0.184 NA
HETATM    6  C   UNL     1      43.325 -17.077   3.509  1.00  0.00     0.152 C 
BRANCH   6   7
HETATM    7  C   UNL     1      43.896 -18.314   4.009  1.00  0.00     0.011 A 
HETATM    8  C   UNL     1      43.947 -19.573   3.327  1.00  0.00     0.004 A 
HETATM    9  C   UNL     1      43.498 -20.029   2.068  1.00  0.00     0.014 A 
HETATM   10  C   UNL     1      44.591 -20.480   4.170  1.00  0.00     0.043 A 
HETATM   11  C   UNL     1      43.712 -21.362   1.700  1.00  0.00     0.001 A 
HETATM   12  C   UNL     1      44.362 -22.240   2.563  1.00  0.00     0.002 A 
HETATM   13  C   UNL     1      44.814 -21.816   3.816  1.00  0.00     0.030 A 
HETATM   14  N   UNL     1      44.916 -19.802   5.322  1.00  0.00    -0.364 N 
HETATM   15  H   UNL     1      45.391 -20.212   6.113  1.00  0.00     0.165 HD
HETATM   16  C   UNL     1      44.499 -18.500   5.239  1.00  0.00     0.102 A 
ENDBRANCH   6   7
ENDBRANCH   1   5
BRANCH   2  17
HETATM   17  C   UNL     1      42.199 -12.704   3.004  1.00  0.00     0.280 C 
BRANCH  17  18
HETATM   18  O   UNL     1      41.072 -13.247   2.324  1.00  0.00    -0.340 OA
BRANCH  18  19
HETATM   19  C   UNL     1      41.223 -13.510   0.985  1.00  0.00     0.092 A 
HETATM   20  C   UNL     1      40.713 -14.731   0.515  1.00  0.00     0.069 A 
HETATM   21 CL   UNL     1      39.950 -15.854   1.584  1.00  0.00    -0.081 Cl
HETATM   22  C   UNL     1      40.817 -15.077  -0.836  1.00  0.00     0.052 A 
HETATM   23  C   UNL     1      41.424 -14.200  -1.735  1.00  0.00     0.057 A 
HETATM   24 CL   UNL     1      41.523 -14.682  -3.390  1.00  0.00    -0.082 Cl
HETATM   25  C   UNL     1      41.924 -12.976  -1.280  1.00  0.00     0.058 A 
HETATM   26 CL   UNL     1      42.675 -11.833  -2.338  1.00  0.00    -0.082 Cl
HETATM   27  C   UNL     1      41.822 -12.632   0.075  1.00  0.00     0.064 A 
ENDBRANCH  18  19
ENDBRANCH  17  18
ENDBRANCH   2  17
TORSDOF 5
ENDMDL
MODEL 4
REMARK VINA RESULT:      -8.3      7.460      9.366
REMARK  5 active torsions:
REMARK  status: ('A' for Active; 'I' for Inactive)
REMARK    1  A    between atoms: C_8  and  C_9 
REMARK    2  A    between atoms: N_10  and  N_11 
REMARK       I    between atoms: N_11  and  C_12 
REMARK    3  A    between atoms: C_12  and  C_13 
REMARK    4  A    between atoms: C_13  and  O_14 
REMARK    5  A    between atoms: O_14  and  C_15 
ROOT
HETATM    1  N   UNL     1      41.895 -16.157   1.821  1.00  0.00    -0.246 N 
HETATM    2  C   UNL     1      40.589 -15.741   1.591  1.00  0.00     0.261 C 
HETATM    3  O   UNL     1      39.571 -16.248   2.058  1.00  0.00    -0.269 OA
HETATM    4  H   UNL     1      42.635 -15.501   1.571  1.00  0.00     0.192 HD
ENDROOT
BRANCH   1   5
HETATM    5  N   UNL     1      42.299 -17.161   2.667  1.00  0.00    -0.184 NA
HETATM    6  C   UNL     1      43.566 -17.350   2.855  1.00  0.00     0.152 C 
BRANCH   6   7
HETATM    7  C   UNL     1      44.011 -18.422   3.726  1.00  0.00     0.011 A 
HETATM    8  C   UNL     1      44.144 -19.807   3.382  1.00  0.00     0.004 A 
HETATM    9  C   UNL     1      43.904 -20.557   2.210  1.00  0.00     0.014 A 
HETATM   10  C   UNL     1      44.613 -20.476   4.513  1.00  0.00     0.043 A 
HETATM   11  C   UNL     1      44.142 -21.936   2.212  1.00  0.00     0.001 A 
HETATM   12  C   UNL     1      44.614 -22.572   3.356  1.00  0.00     0.002 A 
HETATM   13  C   UNL     1      44.859 -21.855   4.531  1.00  0.00     0.030 A 
HETATM   14  N   UNL     1      44.755 -19.537   5.509  1.00  0.00    -0.364 N 
HETATM   15  H   UNL     1      45.079 -19.739   6.444  1.00  0.00     0.165 HD
HETATM   16  C   UNL     1      44.392 -18.300   5.049  1.00  0.00     0.102 A 
ENDBRANCH   6   7
ENDBRANCH   1   5
BRANCH   2  17
HETATM   17  C   UNL     1      40.495 -14.590   0.590  1.00  0.00     0.280 C 
BRANCH  17  18
HETATM   18  O   UNL     1      40.978 -14.961  -0.697  1.00  0.00    -0.340 OA
BRANCH  18  19
HETATM   19  C   UNL     1      41.403 -13.946  -1.517  1.00  0.00     0.092 A 
HETATM   20  C   UNL     1      41.039 -14.025  -2.871  1.00  0.00     0.069 A 
HETATM   21 CL   UNL     1      40.117 -15.357  -3.472  1.00  0.00    -0.081 Cl
HETATM   22  C   UNL     1      41.423 -13.030  -3.775  1.00  0.00     0.052 A 
HETATM   23  C   UNL     1      42.168 -11.937  -3.332  1.00  0.00     0.057 A 
HETATM   24 CL   UNL     1      42.613 -10.741  -4.495  1.00  0.00    -0.082 Cl
HETATM   25  C   UNL     1      42.525 -11.840  -1.984  1.00  0.00     0.058 A 
HETATM   26 CL   UNL     1      43.433 -10.508  -1.361  1.00  0.00    -0.082 Cl
HETATM   27  C   UNL     1      42.142 -12.840  -1.079  1.00  0.00     0.064 A 
ENDBRANCH  18  19
ENDBRANCH  17  18
ENDBRANCH   2  17
TORSDOF 5
ENDMDL
MODEL 5
REMARK VINA RESULT:      -8.0      1.666      2.479
REMARK  5 active torsions:
REMARK  status: ('A' for Active; 'I' for Inactive)
REMARK    1  A    between atoms: C_8  and  C_9 
REMARK    2  A    between atoms: N_10  and  N_11 
REMARK       I    between atoms: N_11  and  C_12 
REMARK    3  A    between atoms: C_12  and  C_13 
REMARK    4  A    between atoms: C_13  and  O_14 
REMARK    5  A    between atoms: O_14  and  C_15 
ROOT
HETATM    1  N   UNL     1      43.331 -13.882   6.408  1.00  0.00    -0.246 N 
HETATM    2  C   UNL     1      43.872 -13.145   7.454  1.00  0.00     0.261 C 
HETATM    3  O   UNL     1      44.859 -13.446   8.122  1.00  0.00    -0.269 OA
HETATM    4  H   UNL     1      42.675 -13.395   5.797  1.00  0.00     0.192 HD
ENDROOT
BRANCH   1   5
HETATM    5  N   UNL     1      43.837 -15.042   5.875  1.00  0.00    -0.184 NA
HETATM    6  C   UNL     1      43.327 -16.175   6.241  1.00  0.00     0.152 C 
BRANCH   6   7
HETATM    7  C   UNL     1      43.866 -17.412   5.709  1.00  0.00     0.011 A 
HETATM    8  C   UNL     1      43.627 -17.962   4.408  1.00  0.00     0.004 A 
HETATM    9  C   UNL     1      42.855 -17.559   3.296  1.00  0.00     0.014 A 
HETATM   10  C   UNL     1      44.351 -19.152   4.317  1.00  0.00     0.043 A 
HETATM   11  C   UNL     1      42.838 -18.353   2.143  1.00  0.00     0.001 A 
HETATM   12  C   UNL     1      43.575 -19.532   2.084  1.00  0.00     0.002 A 
HETATM   13  C   UNL     1      44.346 -19.956   3.170  1.00  0.00     0.030 A 
HETATM   14  N   UNL     1      45.001 -19.323   5.517  1.00  0.00    -0.364 N 
HETATM   15  H   UNL     1      45.602 -20.105   5.736  1.00  0.00     0.165 HD
HETATM   16  C   UNL     1      44.715 -18.286   6.363  1.00  0.00     0.102 A 
ENDBRANCH   6   7
ENDBRANCH   1   5
BRANCH   2  17
HETATM   17  C   UNL     1      43.055 -11.898   7.793  1.00  0.00     0.280 C 
BRANCH  17  18
HETATM   18  O   UNL     1      43.744 -11.037   8.693  1.00  0.00    -0.340 OA
BRANCH  18  19
HETATM   19  C   UNL     1      43.196 -10.877   9.941  1.00  0.00     0.092 A 
HETATM   20  C   UNL     1      44.079 -10.904  11.033  1.00  0.00     0.069 A 
HETATM   21 CL   UNL     1      45.774 -11.150  10.807  1.00  0.00    -0.081 Cl
HETATM   22  C   UNL     1      43.607 -10.742  12.339  1.00  0.00     0.052 A 
HETATM   23  C   UNL     1      42.246 -10.540  12.567  1.00  0.00     0.057 A 
HETATM   24 CL   UNL     1      41.722 -10.346  14.202  1.00  0.00    -0.082 Cl
HETATM   25  C   UNL     1      41.359 -10.497  11.487  1.00  0.00     0.058 A 
HETATM   26 CL   UNL     1      39.662 -10.237  11.693  1.00  0.00    -0.082 Cl
HETATM   27  C   UNL     1      41.833 -10.664  10.179  1.00  0.00     0.064 A 
ENDBRANCH  18  19
ENDBRANCH  17  18
ENDBRANCH   2  17
TORSDOF 5
ENDMDL
MODEL 6
REMARK VINA RESULT:      -7.9      1.813      2.551
REMARK  5 active torsions:
REMARK  status: ('A' for Active; 'I' for Inactive)
REMARK    1  A    between atoms: C_8  and  C_9 
REMARK    2  A    between atoms: N_10  and  N_11 
REMARK       I    between atoms: N_11  and  C_12 
REMARK    3  A    between atoms: C_12  and  C_13 
REMARK    4  A    between atoms: C_13  and  O_14 
REMARK    5  A    between atoms: O_14  and  C_15 
ROOT
HETATM    1  N   UNL     1      42.122 -12.678   6.593  1.00  0.00    -0.246 N 
HETATM    2  C   UNL     1      41.667 -11.385   6.370  1.00  0.00     0.261 C 
HETATM    3  O   UNL     1      41.262 -10.929   5.302  1.00  0.00    -0.269 OA
HETATM    4  H   UNL     1      42.189 -12.979   7.565  1.00  0.00     0.192 HD
ENDROOT
BRANCH   1   5
HETATM    5  N   UNL     1      42.137 -13.710   5.686  1.00  0.00    -0.184 NA
HETATM    6  C   UNL     1      43.008 -14.657   5.828  1.00  0.00     0.152 C 
BRANCH   6   7
HETATM    7  C   UNL     1      43.056 -15.741   4.865  1.00  0.00     0.011 A 
HETATM    8  C   UNL     1      43.667 -17.024   5.046  1.00  0.00     0.004 A 
HETATM    9  C   UNL     1      44.381 -17.633   6.102  1.00  0.00     0.014 A 
HETATM   10  C   UNL     1      43.465 -17.754   3.875  1.00  0.00     0.043 A 
HETATM   11  C   UNL     1      44.859 -18.939   5.949  1.00  0.00     0.001 A 
HETATM   12  C   UNL     1      44.636 -19.642   4.768  1.00  0.00     0.002 A 
HETATM   13  C   UNL     1      43.934 -19.063   3.707  1.00  0.00     0.030 A 
HETATM   14  N   UNL     1      42.762 -16.947   3.010  1.00  0.00    -0.364 N 
HETATM   15  H   UNL     1      42.476 -17.216   2.080  1.00  0.00     0.165 HD
HETATM   16  C   UNL     1      42.514 -15.733   3.593  1.00  0.00     0.102 A 
ENDBRANCH   6   7
ENDBRANCH   1   5
BRANCH   2  17
HETATM   17  C   UNL     1      41.788 -10.487   7.601  1.00  0.00     0.280 C 
BRANCH  17  18
HETATM   18  O   UNL     1      42.933 -10.808   8.384  1.00  0.00    -0.340 OA
BRANCH  18  19
HETATM   19  C   UNL     1      42.865 -10.529   9.726  1.00  0.00     0.092 A 
HETATM   20  C   UNL     1      44.074 -10.536  10.441  1.00  0.00     0.069 A 
HETATM   21 CL   UNL     1      45.572 -10.902   9.661  1.00  0.00    -0.081 Cl
HETATM   22  C   UNL     1      44.097 -10.255  11.810  1.00  0.00     0.052 A 
HETATM   23  C   UNL     1      42.911  -9.953  12.480  1.00  0.00     0.057 A 
HETATM   24 CL   UNL     1      43.003  -9.616  14.171  1.00  0.00    -0.082 Cl
HETATM   25  C   UNL     1      41.703  -9.930  11.776  1.00  0.00     0.058 A 
HETATM   26 CL   UNL     1      40.197  -9.551  12.536  1.00  0.00    -0.082 Cl
HETATM   27  C   UNL     1      41.681 -10.215  10.404  1.00  0.00     0.064 A 
ENDBRANCH  18  19
ENDBRANCH  17  18
ENDBRANCH   2  17
TORSDOF 5
ENDMDL
MODEL 7
REMARK VINA RESULT:      -7.8      7.744      9.681
REMARK  5 active torsions:
REMARK  status: ('A' for Active; 'I' for Inactive)
REMARK    1  A    between atoms: C_8  and  C_9 
REMARK    2  A    between atoms: N_10  and  N_11 
REMARK       I    between atoms: N_11  and  C_12 
REMARK    3  A    between atoms: C_12  and  C_13 
REMARK    4  A    between atoms: C_13  and  O_14 
REMARK    5  A    between atoms: O_14  and  C_15 
ROOT
HETATM    1  N   UNL     1      42.720 -15.572   1.752  1.00  0.00    -0.246 N 
HETATM    2  C   UNL     1      41.745 -15.519   0.763  1.00  0.00     0.261 C 
HETATM    3  O   UNL     1      41.320 -16.469   0.109  1.00  0.00    -0.269 OA
HETATM    4  H   UNL     1      42.791 -14.763   2.369  1.00  0.00     0.192 HD
ENDROOT
BRANCH   1   5
HETATM    5  N   UNL     1      43.337 -16.700   2.235  1.00  0.00    -0.184 NA
HETATM    6  C   UNL     1      43.072 -17.092   3.441  1.00  0.00     0.152 C 
BRANCH   6   7
HETATM    7  C   UNL     1      43.733 -18.266   3.978  1.00  0.00     0.011 A 
HETATM    8  C   UNL     1      43.862 -19.544   3.342  1.00  0.00     0.004 A 
HETATM    9  C   UNL     1      43.428 -20.077   2.109  1.00  0.00     0.014 A 
HETATM   10  C   UNL     1      44.578 -20.372   4.207  1.00  0.00     0.043 A 
HETATM   11  C   UNL     1      43.728 -21.406   1.787  1.00  0.00     0.001 A 
HETATM   12  C   UNL     1      44.449 -22.203   2.671  1.00  0.00     0.002 A 
HETATM   13  C   UNL     1      44.889 -21.702   3.899  1.00  0.00     0.030 A 
HETATM   14  N   UNL     1      44.871 -19.630   5.328  1.00  0.00    -0.364 N 
HETATM   15  H   UNL     1      45.385 -19.976   6.126  1.00  0.00     0.165 HD
HETATM   16  C   UNL     1      44.365 -18.364   5.203  1.00  0.00     0.102 A 
ENDBRANCH   6   7
ENDBRANCH   1   5
BRANCH   2  17
HETATM   17  C   UNL     1      41.268 -14.098   0.469  1.00  0.00     0.280 C 
BRANCH  17  18
HETATM   18  O   UNL     1      41.388 -13.769  -0.911  1.00  0.00    -0.340 OA
BRANCH  18  19
HETATM   19  C   UNL     1      40.221 -13.643  -1.623  1.00  0.00     0.092 A 
HETATM   20  C   UNL     1      40.040 -14.515  -2.709  1.00  0.00     0.069 A 
HETATM   21 CL   UNL     1      41.247 -15.676  -3.135  1.00  0.00    -0.081 Cl
HETATM   22  C   UNL     1      38.877 -14.461  -3.483  1.00  0.00     0.052 A 
HETATM   23  C   UNL     1      37.876 -13.541  -3.174  1.00  0.00     0.057 A 
HETATM   24 CL   UNL     1      36.464 -13.521  -4.167  1.00  0.00    -0.082 Cl
HETATM   25  C   UNL     1      38.039 -12.676  -2.087  1.00  0.00     0.058 A 
HETATM   26 CL   UNL     1      36.836 -11.520  -1.636  1.00  0.00    -0.082 Cl
HETATM   27  C   UNL     1      39.207 -12.730  -1.313  1.00  0.00     0.064 A 
ENDBRANCH  18  19
ENDBRANCH  17  18
ENDBRANCH   2  17
TORSDOF 5
ENDMDL
MODEL 8
REMARK VINA RESULT:      -7.8      6.909     10.390
REMARK  5 active torsions:
REMARK  status: ('A' for Active; 'I' for Inactive)
REMARK    1  A    between atoms: C_8  and  C_9 
REMARK    2  A    between atoms: N_10  and  N_11 
REMARK       I    between atoms: N_11  and  C_12 
REMARK    3  A    between atoms: C_12  and  C_13 
REMARK    4  A    between atoms: C_13  and  O_14 
REMARK    5  A    between atoms: O_14  and  C_15 
ROOT
HETATM    1  N   UNL     1      42.281 -16.491   0.223  1.00  0.00    -0.246 N 
HETATM    2  C   UNL     1      42.555 -15.972   1.483  1.00  0.00     0.261 C 
HETATM    3  O   UNL     1      41.922 -15.090   2.060  1.00  0.00    -0.269 OA
HETATM    4  H   UNL     1      42.732 -17.374  -0.016  1.00  0.00     0.192 HD
ENDROOT
BRANCH   1   5
HETATM    5  N   UNL     1      41.215 -16.171  -0.581  1.00  0.00    -0.184 NA
HETATM    6  C   UNL     1      41.350 -15.227  -1.456  1.00  0.00     0.152 C 
BRANCH   6   7
HETATM    7  C   UNL     1      40.226 -14.858  -2.296  1.00  0.00     0.011 A 
HETATM    8  C   UNL     1      39.273 -13.817  -2.047  1.00  0.00     0.004 A 
HETATM    9  C   UNL     1      39.087 -12.884  -1.004  1.00  0.00     0.014 A 
HETATM   10  C   UNL     1      38.377 -13.805  -3.116  1.00  0.00     0.043 A 
HETATM   11  C   UNL     1      38.021 -11.979  -1.069  1.00  0.00     0.001 A 
HETATM   12  C   UNL     1      37.147 -11.990  -2.152  1.00  0.00     0.002 A 
HETATM   13  C   UNL     1      37.308 -12.904  -3.198  1.00  0.00     0.030 A 
HETATM   14  N   UNL     1      38.764 -14.802  -3.981  1.00  0.00    -0.364 N 
HETATM   15  H   UNL     1      38.293 -15.025  -4.846  1.00  0.00     0.165 HD
HETATM   16  C   UNL     1      39.872 -15.444  -3.497  1.00  0.00     0.102 A 
ENDBRANCH   6   7
ENDBRANCH   1   5
BRANCH   2  17
HETATM   17  C   UNL     1      43.824 -16.551   2.106  1.00  0.00     0.280 C 
BRANCH  17  18
HETATM   18  O   UNL     1      43.600 -17.024   3.430  1.00  0.00    -0.340 OA
BRANCH  18  19
HETATM   19  C   UNL     1      43.964 -18.321   3.696  1.00  0.00     0.092 A 
HETATM   20  C   UNL     1      44.336 -18.620   5.017  1.00  0.00     0.069 A 
HETATM   21 CL   UNL     1      44.352 -17.400   6.240  1.00  0.00    -0.081 Cl
HETATM   22  C   UNL     1      44.713 -19.917   5.377  1.00  0.00     0.052 A 
HETATM   23  C   UNL     1      44.713 -20.933   4.422  1.00  0.00     0.057 A 
HETATM   24 CL   UNL     1      45.190 -22.515   4.927  1.00  0.00    -0.082 Cl
HETATM   25  C   UNL     1      44.332 -20.650   3.107  1.00  0.00     0.058 A 
HETATM   26 CL   UNL     1      44.294 -21.861   1.874  1.00  0.00    -0.082 Cl
HETATM   27  C   UNL     1      43.958 -19.349   2.747  1.00  0.00     0.064 A 
ENDBRANCH  18  19
ENDBRANCH  17  18
ENDBRANCH   2  17
TORSDOF 5
ENDMDL
MODEL 9
REMARK VINA RESULT:      -7.8      3.766      9.856
REMARK  5 active torsions:
REMARK  status: ('A' for Active; 'I' for Inactive)
REMARK    1  A    between atoms: C_8  and  C_9 
REMARK    2  A    between atoms: N_10  and  N_11 
REMARK       I    between atoms: N_11  and  C_12 
REMARK    3  A    between atoms: C_12  and  C_13 
REMARK    4  A    between atoms: C_13  and  O_14 
REMARK    5  A    between atoms: O_14  and  C_15 
ROOT
HETATM    1  N   UNL     1      43.847 -12.042   8.189  1.00  0.00    -0.246 N 
HETATM    2  C   UNL     1      44.961 -12.865   8.300  1.00  0.00     0.261 C 
HETATM    3  O   UNL     1      45.873 -12.750   9.117  1.00  0.00    -0.269 OA
HETATM    4  H   UNL     1      43.067 -12.400   7.639  1.00  0.00     0.192 HD
ENDROOT
BRANCH   1   5
HETATM    5  N   UNL     1      43.517 -10.993   9.012  1.00  0.00    -0.184 NA
HETATM    6  C   UNL     1      42.267 -10.714   9.201  1.00  0.00     0.152 C 
BRANCH   6   7
HETATM    7  C   UNL     1      41.900  -9.594  10.047  1.00  0.00     0.011 A 
HETATM    8  C   UNL     1      42.331  -9.358  11.393  1.00  0.00     0.004 A 
HETATM    9  C   UNL     1      43.162 -10.056  12.296  1.00  0.00     0.014 A 
HETATM   10  C   UNL     1      41.747  -8.163  11.816  1.00  0.00     0.043 A 
HETATM   11  C   UNL     1      43.380  -9.535  13.577  1.00  0.00     0.001 A 
HETATM   12  C   UNL     1      42.786  -8.338  13.966  1.00  0.00     0.002 A 
HETATM   13  C   UNL     1      41.958  -7.628  13.093  1.00  0.00     0.030 A 
HETATM   14  N   UNL     1      40.987  -7.691  10.771  1.00  0.00    -0.364 N 
HETATM   15  H   UNL     1      40.447  -6.838  10.795  1.00  0.00     0.165 HD
HETATM   16  C   UNL     1      41.068  -8.545   9.704  1.00  0.00     0.102 A 
ENDBRANCH   6   7
ENDBRANCH   1   5
BRANCH   2  17
HETATM   17  C   UNL     1      45.020 -13.942   7.218  1.00  0.00     0.280 C 
BRANCH  17  18
HETATM   18  O   UNL     1      43.730 -14.250   6.701  1.00  0.00    -0.340 OA
BRANCH  18  19
HETATM   19  C   UNL     1      43.635 -15.349   5.884  1.00  0.00     0.092 A 
HETATM   20  C   UNL     1      43.305 -15.116   4.539  1.00  0.00     0.069 A 
HETATM   21 CL   UNL     1      43.012 -13.516   3.954  1.00  0.00    -0.081 Cl
HETATM   22  C   UNL     1      43.194 -16.177   3.635  1.00  0.00     0.052 A 
HETATM   23  C   UNL     1      43.424 -17.484   4.064  1.00  0.00     0.057 A 
HETATM   24 CL   UNL     1      43.272 -18.752   2.902  1.00  0.00    -0.082 Cl
HETATM   25  C   UNL     1      43.766 -17.727   5.397  1.00  0.00     0.058 A 
HETATM   26 CL   UNL     1      44.079 -19.318   5.997  1.00  0.00    -0.082 Cl
HETATM   27  C   UNL     1      43.873 -16.663   6.303  1.00  0.00     0.064 A 
ENDBRANCH  18  19
ENDBRANCH  17  18
ENDBRANCH   2  17
TORSDOF 5
ENDMDL
MODEL 10
REMARK VINA RESULT:      -7.8      6.789      8.900
REMARK  5 active torsions:
REMARK  status: ('A' for Active; 'I' for Inactive)
REMARK    1  A    between atoms: C_8  and  C_9 
REMARK    2  A    between atoms: N_10  and  N_11 
REMARK       I    between atoms: N_11  and  C_12 
REMARK    3  A    between atoms: C_12  and  C_13 
REMARK    4  A    between atoms: C_13  and  O_14 
REMARK    5  A    between atoms: O_14  and  C_15 
ROOT
HETATM    1  N   UNL     1      40.418 -16.031   2.818  1.00  0.00    -0.246 N 
HETATM    2  C   UNL     1      40.204 -14.762   3.342  1.00  0.00     0.261 C 
HETATM    3  O   UNL     1      40.610 -14.342   4.423  1.00  0.00    -0.269 OA
HETATM    4  H   UNL     1      40.237 -16.152   1.822  1.00  0.00     0.192 HD
ENDROOT
BRANCH   1   5
HETATM    5  N   UNL     1      41.182 -17.028   3.373  1.00  0.00    -0.184 NA
HETATM    6  C   UNL     1      42.468 -16.989   3.225  1.00  0.00     0.152 C 
BRANCH   6   7
HETATM    7  C   UNL     1      43.289 -18.048   3.782  1.00  0.00     0.011 A 
HETATM    8  C   UNL     1      43.552 -19.328   3.196  1.00  0.00     0.004 A 
HETATM    9  C   UNL     1      43.143 -19.967   2.004  1.00  0.00     0.014 A 
HETATM   10  C   UNL     1      44.396 -20.021   4.064  1.00  0.00     0.043 A 
HETATM   11  C   UNL     1      43.594 -21.262   1.726  1.00  0.00     0.001 A 
HETATM   12  C   UNL     1      44.439 -21.924   2.611  1.00  0.00     0.002 A 
HETATM   13  C   UNL     1      44.858 -21.317   3.799  1.00  0.00     0.030 A 
HETATM   14  N   UNL     1      44.635 -19.198   5.140  1.00  0.00    -0.364 N 
HETATM   15  H   UNL     1      45.216 -19.441   5.929  1.00  0.00     0.165 HD
HETATM   16  C   UNL     1      43.972 -18.011   4.984  1.00  0.00     0.102 A 
ENDBRANCH   6   7
ENDBRANCH   1   5
BRANCH   2  17
HETATM   17  C   UNL     1      39.304 -13.895   2.462  1.00  0.00     0.280 C 
BRANCH  17  18
HETATM   18  O   UNL     1      38.839 -14.601   1.316  1.00  0.00    -0.340 OA
BRANCH  18  19
HETATM   19  C   UNL     1      39.084 -14.029   0.093  1.00  0.00     0.092 A 
HETATM   20  C   UNL     1      38.184 -13.042  -0.342  1.00  0.00     0.069 A 
HETATM   21 CL   UNL     1      36.819 -12.592   0.618  1.00  0.00    -0.081 Cl
HETATM   22  C   UNL     1      38.362 -12.403  -1.572  1.00  0.00     0.052 A 
HETATM   23  C   UNL     1      39.451 -12.735  -2.378  1.00  0.00     0.057 A 
HETATM   24 CL   UNL     1      39.618 -11.910  -3.886  1.00  0.00    -0.082 Cl
HETATM   25  C   UNL     1      40.362 -13.705  -1.950  1.00  0.00     0.058 A 
HETATM   26 CL   UNL     1      41.741 -14.158  -2.889  1.00  0.00    -0.082 Cl
HETATM   27  C   UNL     1      40.179 -14.348  -0.718  1.00  0.00     0.064 A 
ENDBRANCH  18  19
ENDBRANCH  17  18
ENDBRANCH   2  17
TORSDOF 5
ENDMDL
