MODEL 1
REMARK VINA RESULT:      -8.5      0.000      0.000
REMARK  8 active torsions:
REMARK  status: ('A' for Active; 'I' for Inactive)
REMARK    1  A    between atoms: C_7  and  C_8 
REMARK       I    between atoms: C_8  and  N_9 
REMARK    2  A    between atoms: N_9  and  C_10 
REMARK    3  A    between atoms: C_11  and  C_12 
REMARK       I    between atoms: C_12  and  N_13 
REMARK    4  A    between atoms: N_13  and  C_14 
REMARK    5  A    between atoms: C_14  and  C_15 
REMARK    6  A    between atoms: C_15  and  C_16 
REMARK    7  A    between atoms: C_17  and  O_18 
REMARK    8  A    between atoms: C_22  and  O_23 
ROOT
HETATM    1  C   UNL     1      44.195 -19.485   3.727  1.00  0.00     0.050 A 
HETATM    2  C   UNL     1      43.644 -19.577   2.437  1.00  0.00     0.058 A 
HETATM    3  C   UNL     1      43.652 -20.814   1.763  1.00  0.00     0.019 A 
HETATM    4  C   UNL     1      44.207 -21.946   2.360  1.00  0.00     0.001 A 
HETATM    5  C   UNL     1      44.791 -21.846   3.619  1.00  0.00     0.002 A 
HETATM    6  C   UNL     1      44.799 -20.622   4.289  1.00  0.00     0.030 A 
ENDROOT
BRANCH   2   7
HETATM    7  C   UNL     1      43.230 -18.381   1.649  1.00  0.00     0.253 C 
HETATM    8  N   UNL     1      41.877 -18.105   1.679  1.00  0.00    -0.356 N 
HETATM    9  H   UNL     1      41.351 -18.524   2.435  1.00  0.00     0.162 HD
HETATM   10  O   UNL     1      44.053 -17.744   1.002  1.00  0.00    -0.268 OA
BRANCH   8  11
HETATM   11  C   UNL     1      41.318 -16.906   1.080  1.00  0.00     0.127 C 
BRANCH  11  12
HETATM   12  C   UNL     1      40.504 -16.037   2.050  1.00  0.00     0.061 C 
BRANCH  12  13
HETATM   13  C   UNL     1      40.821 -14.547   2.067  1.00  0.00    -0.021 A 
HETATM   14  C   UNL     1      40.259 -13.737   3.077  1.00  0.00     0.074 A 
HETATM   15  C   UNL     1      40.566 -12.375   3.129  1.00  0.00     0.040 A 
HETATM   16  C   UNL     1      41.401 -11.803   2.169  1.00  0.00     0.039 A 
HETATM   17  C   UNL     1      41.930 -12.577   1.139  1.00  0.00     0.068 A 
HETATM   18  C   UNL     1      41.636 -13.941   1.089  1.00  0.00     0.046 A 
BRANCH  14  19
HETATM   19  O   UNL     1      39.443 -14.374   3.976  1.00  0.00    -0.355 OA
HETATM   20  C   UNL     1      39.860 -14.378   5.336  1.00  0.00     0.210 C 
ENDBRANCH  14  19
BRANCH  17  21
HETATM   21  O   UNL     1      42.721 -11.889   0.259  1.00  0.00    -0.356 OA
HETATM   22  C   UNL     1      42.343 -11.924  -1.111  1.00  0.00     0.210 C 
ENDBRANCH  17  21
ENDBRANCH  12  13
ENDBRANCH  11  12
ENDBRANCH   8  11
ENDBRANCH   2   7
BRANCH   1  23
HETATM   23  N   UNL     1      44.207 -18.328   4.532  1.00  0.00    -0.321 N 
HETATM   24  C   UNL     1      43.096 -17.672   5.029  1.00  0.00     0.265 C 
HETATM   25  O   UNL     1      41.949 -18.107   4.976  1.00  0.00    -0.267 OA
HETATM   26  H   UNL     1      45.088 -18.055   4.954  1.00  0.00     0.169 HD
BRANCH  24  27
HETATM   27  C   UNL     1      43.439 -16.401   5.788  1.00  0.00     0.097 C 
HETATM   28  C   UNL     1      43.713 -16.434   7.114  1.00  0.00     0.064 C 
HETATM   29  C   UNL     1      43.584 -17.672   7.963  1.00  0.00     0.078 C 
HETATM   30  O   UNL     1      44.089 -15.344   7.886  1.00  0.00    -0.353 OA
HETATM   31  C   UNL     1      44.536 -14.178   7.193  1.00  0.00     0.185 C 
HETATM   32  C   UNL     1      43.519 -13.712   6.173  1.00  0.00     0.106 C 
HETATM   33  S   UNL     1      43.467 -14.930   4.837  1.00  0.00    -0.120 SA
ENDBRANCH  24  27
ENDBRANCH   1  23
TORSDOF 8
ENDMDL
MODEL 2
REMARK VINA RESULT:      -8.4      1.526      2.465
REMARK  8 active torsions:
REMARK  status: ('A' for Active; 'I' for Inactive)
REMARK    1  A    between atoms: C_7  and  C_8 
REMARK       I    between atoms: C_8  and  N_9 
REMARK    2  A    between atoms: N_9  and  C_10 
REMARK    3  A    between atoms: C_11  and  C_12 
REMARK       I    between atoms: C_12  and  N_13 
REMARK    4  A    between atoms: N_13  and  C_14 
REMARK    5  A    between atoms: C_14  and  C_15 
REMARK    6  A    between atoms: C_15  and  C_16 
REMARK    7  A    between atoms: C_17  and  O_18 
REMARK    8  A    between atoms: C_22  and  O_23 
ROOT
HETATM    1  C   UNL     1      44.146 -19.383   3.741  1.00  0.00     0.050 A 
HETATM    2  C   UNL     1      43.569 -19.450   2.462  1.00  0.00     0.058 A 
HETATM    3  C   UNL     1      43.556 -20.675   1.766  1.00  0.00     0.019 A 
HETATM    4  C   UNL     1      44.117 -21.820   2.332  1.00  0.00     0.001 A 
HETATM    5  C   UNL     1      44.726 -21.746   3.580  1.00  0.00     0.002 A 
HETATM    6  C   UNL     1      44.755 -20.533   4.271  1.00  0.00     0.030 A 
ENDROOT
BRANCH   2   7
HETATM    7  C   UNL     1      43.146 -18.238   1.703  1.00  0.00     0.253 C 
HETATM    8  N   UNL     1      41.825 -17.873   1.881  1.00  0.00    -0.356 N 
HETATM    9  H   UNL     1      41.364 -18.248   2.699  1.00  0.00     0.162 HD
HETATM   10  O   UNL     1      43.928 -17.666   0.954  1.00  0.00    -0.268 OA
BRANCH   8  11
HETATM   11  C   UNL     1      41.280 -16.646   1.326  1.00  0.00     0.127 C 
BRANCH  11  12
HETATM   12  C   UNL     1      39.881 -16.286   1.847  1.00  0.00     0.061 C 
BRANCH  12  13
HETATM   13  C   UNL     1      39.740 -14.949   2.563  1.00  0.00    -0.021 A 
HETATM   14  C   UNL     1      39.329 -13.816   1.828  1.00  0.00     0.074 A 
HETATM   15  C   UNL     1      39.160 -12.589   2.475  1.00  0.00     0.040 A 
HETATM   16  C   UNL     1      39.426 -12.469   3.839  1.00  0.00     0.039 A 
HETATM   17  C   UNL     1      39.874 -13.565   4.573  1.00  0.00     0.068 A 
HETATM   18  C   UNL     1      40.033 -14.797   3.934  1.00  0.00     0.046 A 
BRANCH  14  19
HETATM   19  O   UNL     1      39.097 -14.017   0.491  1.00  0.00    -0.355 OA
HETATM   20  C   UNL     1      37.787 -13.736   0.015  1.00  0.00     0.210 C 
ENDBRANCH  14  19
BRANCH  17  21
HETATM   21  O   UNL     1      40.109 -13.306   5.896  1.00  0.00    -0.356 OA
HETATM   22  C   UNL     1      40.180 -11.940   6.283  1.00  0.00     0.210 C 
ENDBRANCH  17  21
ENDBRANCH  12  13
ENDBRANCH  11  12
ENDBRANCH   8  11
ENDBRANCH   2   7
BRANCH   1  23
HETATM   23  N   UNL     1      44.182 -18.240   4.565  1.00  0.00    -0.321 N 
HETATM   24  C   UNL     1      43.085 -17.588   5.097  1.00  0.00     0.265 C 
HETATM   25  O   UNL     1      41.935 -18.017   5.062  1.00  0.00    -0.267 OA
HETATM   26  H   UNL     1      45.072 -17.979   4.973  1.00  0.00     0.169 HD
BRANCH  24  27
HETATM   27  C   UNL     1      43.450 -16.332   5.870  1.00  0.00     0.097 C 
HETATM   28  C   UNL     1      43.713 -16.383   7.198  1.00  0.00     0.064 C 
HETATM   29  C   UNL     1      43.550 -17.625   8.035  1.00  0.00     0.078 C 
HETATM   30  O   UNL     1      44.107 -15.309   7.983  1.00  0.00    -0.353 OA
HETATM   31  C   UNL     1      44.585 -14.147   7.304  1.00  0.00     0.185 C 
HETATM   32  C   UNL     1      43.587 -13.649   6.281  1.00  0.00     0.106 C 
HETATM   33  S   UNL     1      43.518 -14.854   4.933  1.00  0.00    -0.120 SA
ENDBRANCH  24  27
ENDBRANCH   1  23
TORSDOF 8
ENDMDL
MODEL 3
REMARK VINA RESULT:      -8.1      1.930      3.007
REMARK  8 active torsions:
REMARK  status: ('A' for Active; 'I' for Inactive)
REMARK    1  A    between atoms: C_7  and  C_8 
REMARK       I    between atoms: C_8  and  N_9 
REMARK    2  A    between atoms: N_9  and  C_10 
REMARK    3  A    between atoms: C_11  and  C_12 
REMARK       I    between atoms: C_12  and  N_13 
REMARK    4  A    between atoms: N_13  and  C_14 
REMARK    5  A    between atoms: C_14  and  C_15 
REMARK    6  A    between atoms: C_15  and  C_16 
REMARK    7  A    between atoms: C_17  and  O_18 
REMARK    8  A    between atoms: C_22  and  O_23 
ROOT
HETATM    1  C   UNL     1      44.080 -19.240   3.704  1.00  0.00     0.050 A 
HETATM    2  C   UNL     1      43.601 -19.259   2.383  1.00  0.00     0.058 A 
HETATM    3  C   UNL     1      43.575 -20.473   1.669  1.00  0.00     0.019 A 
HETATM    4  C   UNL     1      44.025 -21.655   2.258  1.00  0.00     0.001 A 
HETATM    5  C   UNL     1      44.539 -21.629   3.550  1.00  0.00     0.002 A 
HETATM    6  C   UNL     1      44.581 -20.429   4.261  1.00  0.00     0.030 A 
ENDROOT
BRANCH   2   7
HETATM    7  C   UNL     1      43.306 -18.016   1.613  1.00  0.00     0.253 C 
HETATM    8  N   UNL     1      41.980 -17.631   1.619  1.00  0.00    -0.356 N 
HETATM    9  H   UNL     1      41.403 -18.021   2.353  1.00  0.00     0.162 HD
HETATM   10  O   UNL     1      44.194 -17.436   1.000  1.00  0.00    -0.268 OA
BRANCH   8  11
HETATM   11  C   UNL     1      41.535 -16.377   1.035  1.00  0.00     0.127 C 
BRANCH  11  12
HETATM   12  C   UNL     1      41.234 -16.453  -0.468  1.00  0.00     0.061 C 
BRANCH  12  13
HETATM   13  C   UNL     1      41.191 -15.133  -1.227  1.00  0.00    -0.021 A 
HETATM   14  C   UNL     1      40.648 -15.107  -2.530  1.00  0.00     0.074 A 
HETATM   15  C   UNL     1      40.568 -13.899  -3.227  1.00  0.00     0.040 A 
HETATM   16  C   UNL     1      41.051 -12.722  -2.656  1.00  0.00     0.039 A 
HETATM   17  C   UNL     1      41.630 -12.734  -1.389  1.00  0.00     0.068 A 
HETATM   18  C   UNL     1      41.701 -13.937  -0.682  1.00  0.00     0.046 A 
BRANCH  14  19
HETATM   19  O   UNL     1      40.203 -16.307  -3.021  1.00  0.00    -0.355 OA
HETATM   20  C   UNL     1      39.200 -16.260  -4.028  1.00  0.00     0.210 C 
ENDBRANCH  14  19
BRANCH  17  21
HETATM   21  O   UNL     1      42.074 -11.516  -0.954  1.00  0.00    -0.356 OA
HETATM   22  C   UNL     1      42.032 -11.276   0.446  1.00  0.00     0.210 C 
ENDBRANCH  17  21
ENDBRANCH  12  13
ENDBRANCH  11  12
ENDBRANCH   8  11
ENDBRANCH   2   7
BRANCH   1  23
HETATM   23  N   UNL     1      44.115 -18.111   4.547  1.00  0.00    -0.321 N 
HETATM   24  C   UNL     1      43.016 -17.439   5.050  1.00  0.00     0.265 C 
HETATM   25  O   UNL     1      41.858 -17.837   4.967  1.00  0.00    -0.267 OA
HETATM   26  H   UNL     1      44.996 -17.879   4.990  1.00  0.00     0.169 HD
BRANCH  24  27
HETATM   27  C   UNL     1      43.385 -16.204   5.855  1.00  0.00     0.097 C 
HETATM   28  C   UNL     1      43.663 -16.292   7.178  1.00  0.00     0.064 C 
HETATM   29  C   UNL     1      43.515 -17.559   7.980  1.00  0.00     0.078 C 
HETATM   30  O   UNL     1      44.062 -15.240   7.989  1.00  0.00    -0.353 OA
HETATM   31  C   UNL     1      44.527 -14.057   7.339  1.00  0.00     0.185 C 
HETATM   32  C   UNL     1      43.515 -13.534   6.342  1.00  0.00     0.106 C 
HETATM   33  S   UNL     1      43.436 -14.698   4.961  1.00  0.00    -0.120 SA
ENDBRANCH  24  27
ENDBRANCH   1  23
TORSDOF 8
ENDMDL
MODEL 4
REMARK VINA RESULT:      -7.8      4.320      8.591
REMARK  8 active torsions:
REMARK  status: ('A' for Active; 'I' for Inactive)
REMARK    1  A    between atoms: C_7  and  C_8 
REMARK       I    between atoms: C_8  and  N_9 
REMARK    2  A    between atoms: N_9  and  C_10 
REMARK    3  A    between atoms: C_11  and  C_12 
REMARK       I    between atoms: C_12  and  N_13 
REMARK    4  A    between atoms: N_13  and  C_14 
REMARK    5  A    between atoms: C_14  and  C_15 
REMARK    6  A    between atoms: C_15  and  C_16 
REMARK    7  A    between atoms: C_17  and  O_18 
REMARK    8  A    between atoms: C_22  and  O_23 
ROOT
HETATM    1  C   UNL     1      42.388 -10.632  10.021  1.00  0.00     0.050 A 
HETATM    2  C   UNL     1      43.718 -11.018  10.263  1.00  0.00     0.058 A 
HETATM    3  C   UNL     1      44.328 -10.686  11.489  1.00  0.00     0.019 A 
HETATM    4  C   UNL     1      43.628  -9.972  12.461  1.00  0.00     0.001 A 
HETATM    5  C   UNL     1      42.326  -9.553  12.206  1.00  0.00     0.002 A 
HETATM    6  C   UNL     1      41.718  -9.866  10.989  1.00  0.00     0.030 A 
ENDROOT
BRANCH   2   7
HETATM    7  C   UNL     1      44.598 -11.589   9.204  1.00  0.00     0.253 C 
HETATM    8  N   UNL     1      44.220 -12.835   8.742  1.00  0.00    -0.356 N 
HETATM    9  H   UNL     1      43.263 -13.108   8.925  1.00  0.00     0.162 HD
HETATM   10  O   UNL     1      45.597 -10.985   8.830  1.00  0.00    -0.268 OA
BRANCH   8  11
HETATM   11  C   UNL     1      44.882 -13.479   7.622  1.00  0.00     0.127 C 
BRANCH  11  12
HETATM   12  C   UNL     1      44.325 -14.867   7.274  1.00  0.00     0.061 C 
BRANCH  12  13
HETATM   13  C   UNL     1      43.856 -15.078   5.840  1.00  0.00    -0.021 A 
HETATM   14  C   UNL     1      43.480 -16.374   5.424  1.00  0.00     0.074 A 
HETATM   15  C   UNL     1      43.014 -16.580   4.123  1.00  0.00     0.040 A 
HETATM   16  C   UNL     1      42.947 -15.518   3.221  1.00  0.00     0.039 A 
HETATM   17  C   UNL     1      43.355 -14.240   3.600  1.00  0.00     0.068 A 
HETATM   18  C   UNL     1      43.810 -14.026   4.902  1.00  0.00     0.046 A 
BRANCH  14  19
HETATM   19  O   UNL     1      43.583 -17.363   6.368  1.00  0.00    -0.355 OA
HETATM   20  C   UNL     1      43.483 -18.706   5.909  1.00  0.00     0.210 C 
ENDBRANCH  14  19
BRANCH  17  21
HETATM   21  O   UNL     1      43.250 -13.295   2.616  1.00  0.00    -0.356 OA
HETATM   22  C   UNL     1      41.949 -13.043   2.099  1.00  0.00     0.210 C 
ENDBRANCH  17  21
ENDBRANCH  12  13
ENDBRANCH  11  12
ENDBRANCH   8  11
ENDBRANCH   2   7
BRANCH   1  23
HETATM   23  N   UNL     1      41.643 -10.941   8.866  1.00  0.00    -0.321 N 
HETATM   24  C   UNL     1      41.486 -10.129   7.758  1.00  0.00     0.265 C 
HETATM   25  O   UNL     1      42.115  -9.093   7.560  1.00  0.00    -0.267 OA
HETATM   26  H   UNL     1      41.357 -11.905   8.732  1.00  0.00     0.169 HD
BRANCH  24  27
HETATM   27  C   UNL     1      40.548 -10.710   6.715  1.00  0.00     0.097 C 
HETATM   28  C   UNL     1      39.435 -10.041   6.329  1.00  0.00     0.064 C 
HETATM   29  C   UNL     1      38.967  -8.759   6.967  1.00  0.00     0.078 C 
HETATM   30  O   UNL     1      38.545 -10.457   5.349  1.00  0.00    -0.353 OA
HETATM   31  C   UNL     1      38.988 -11.481   4.458  1.00  0.00     0.185 C 
HETATM   32  C   UNL     1      39.472 -12.702   5.211  1.00  0.00     0.106 C 
HETATM   33  S   UNL     1      41.012 -12.266   6.055  1.00  0.00    -0.120 SA
ENDBRANCH  24  27
ENDBRANCH   1  23
TORSDOF 8
ENDMDL
MODEL 5
REMARK VINA RESULT:      -7.7      2.449      6.873
REMARK  8 active torsions:
REMARK  status: ('A' for Active; 'I' for Inactive)
REMARK    1  A    between atoms: C_7  and  C_8 
REMARK       I    between atoms: C_8  and  N_9 
REMARK    2  A    between atoms: N_9  and  C_10 
REMARK    3  A    between atoms: C_11  and  C_12 
REMARK       I    between atoms: C_12  and  N_13 
REMARK    4  A    between atoms: N_13  and  C_14 
REMARK    5  A    between atoms: C_14  and  C_15 
REMARK    6  A    between atoms: C_15  and  C_16 
REMARK    7  A    between atoms: C_17  and  O_18 
REMARK    8  A    between atoms: C_22  and  O_23 
ROOT
HETATM    1  C   UNL     1      40.500 -14.064   0.212  1.00  0.00     0.050 A 
HETATM    2  C   UNL     1      41.197 -15.229  -0.149  1.00  0.00     0.058 A 
HETATM    3  C   UNL     1      41.100 -15.719  -1.466  1.00  0.00     0.019 A 
HETATM    4  C   UNL     1      40.314 -15.063  -2.413  1.00  0.00     0.001 A 
HETATM    5  C   UNL     1      39.589 -13.934  -2.045  1.00  0.00     0.002 A 
HETATM    6  C   UNL     1      39.669 -13.448  -0.739  1.00  0.00     0.030 A 
ENDROOT
BRANCH   2   7
HETATM    7  C   UNL     1      41.880 -16.103   0.848  1.00  0.00     0.253 C 
HETATM    8  N   UNL     1      42.946 -16.827   0.352  1.00  0.00    -0.356 N 
HETATM    9  H   UNL     1      43.349 -16.495  -0.515  1.00  0.00     0.162 HD
HETATM   10  O   UNL     1      41.467 -16.178   1.999  1.00  0.00    -0.268 OA
BRANCH   8  11
HETATM   11  C   UNL     1      43.807 -17.624   1.209  1.00  0.00     0.127 C 
BRANCH  11  12
HETATM   12  C   UNL     1      43.098 -18.801   1.894  1.00  0.00     0.061 C 
BRANCH  12  13
HETATM   13  C   UNL     1      43.452 -19.060   3.353  1.00  0.00    -0.021 A 
HETATM   14  C   UNL     1      44.392 -20.066   3.663  1.00  0.00     0.074 A 
HETATM   15  C   UNL     1      44.757 -20.294   4.993  1.00  0.00     0.040 A 
HETATM   16  C   UNL     1      44.173 -19.553   6.021  1.00  0.00     0.039 A 
HETATM   17  C   UNL     1      43.211 -18.586   5.738  1.00  0.00     0.068 A 
HETATM   18  C   UNL     1      42.852 -18.346   4.410  1.00  0.00     0.046 A 
BRANCH  14  19
HETATM   19  O   UNL     1      44.913 -20.754   2.597  1.00  0.00    -0.355 OA
HETATM   20  C   UNL     1      44.527 -22.115   2.456  1.00  0.00     0.210 C 
ENDBRANCH  14  19
BRANCH  17  21
HETATM   21  O   UNL     1      42.710 -17.943   6.838  1.00  0.00    -0.356 OA
HETATM   22  C   UNL     1      43.346 -16.732   7.223  1.00  0.00     0.210 C 
ENDBRANCH  17  21
ENDBRANCH  12  13
ENDBRANCH  11  12
ENDBRANCH   8  11
ENDBRANCH   2   7
BRANCH   1  23
HETATM   23  N   UNL     1      40.548 -13.439   1.475  1.00  0.00    -0.321 N 
HETATM   24  C   UNL     1      41.569 -12.633   1.944  1.00  0.00     0.265 C 
HETATM   25  O   UNL     1      42.498 -12.216   1.258  1.00  0.00    -0.267 OA
HETATM   26  H   UNL     1      39.692 -13.400   2.016  1.00  0.00     0.169 HD
BRANCH  24  27
HETATM   27  C   UNL     1      41.367 -12.183   3.381  1.00  0.00     0.097 C 
HETATM   28  C   UNL     1      42.136 -12.678   4.381  1.00  0.00     0.064 C 
HETATM   29  C   UNL     1      43.146 -13.779   4.191  1.00  0.00     0.078 C 
HETATM   30  O   UNL     1      42.069 -12.294   5.712  1.00  0.00    -0.353 OA
HETATM   31  C   UNL     1      41.385 -11.076   6.006  1.00  0.00     0.185 C 
HETATM   32  C   UNL     1      39.981 -11.075   5.440  1.00  0.00     0.106 C 
HETATM   33  S   UNL     1      40.105 -10.995   3.637  1.00  0.00    -0.120 SA
ENDBRANCH  24  27
ENDBRANCH   1  23
TORSDOF 8
ENDMDL
MODEL 6
REMARK VINA RESULT:      -7.7      3.716      7.461
REMARK  8 active torsions:
REMARK  status: ('A' for Active; 'I' for Inactive)
REMARK    1  A    between atoms: C_7  and  C_8 
REMARK       I    between atoms: C_8  and  N_9 
REMARK    2  A    between atoms: N_9  and  C_10 
REMARK    3  A    between atoms: C_11  and  C_12 
REMARK       I    between atoms: C_12  and  N_13 
REMARK    4  A    between atoms: N_13  and  C_14 
REMARK    5  A    between atoms: C_14  and  C_15 
REMARK    6  A    between atoms: C_15  and  C_16 
REMARK    7  A    between atoms: C_17  and  O_18 
REMARK    8  A    between atoms: C_22  and  O_23 
ROOT
HETATM    1  C   UNL     1      40.864 -11.853   6.347  1.00  0.00     0.050 A 
HETATM    2  C   UNL     1      41.484 -12.728   5.439  1.00  0.00     0.058 A 
HETATM    3  C   UNL     1      41.033 -12.784   4.106  1.00  0.00     0.019 A 
HETATM    4  C   UNL     1      39.972 -11.985   3.680  1.00  0.00     0.001 A 
HETATM    5  C   UNL     1      39.329 -11.150   4.588  1.00  0.00     0.002 A 
HETATM    6  C   UNL     1      39.762 -11.097   5.915  1.00  0.00     0.030 A 
ENDROOT
BRANCH   2   7
HETATM    7  C   UNL     1      42.472 -13.763   5.861  1.00  0.00     0.253 C 
HETATM    8  N   UNL     1      42.031 -15.067   5.750  1.00  0.00    -0.356 N 
HETATM    9  H   UNL     1      41.240 -15.222   5.138  1.00  0.00     0.162 HD
HETATM   10  O   UNL     1      43.565 -13.436   6.309  1.00  0.00    -0.268 OA
BRANCH   8  11
HETATM   11  C   UNL     1      42.905 -16.203   5.989  1.00  0.00     0.127 C 
BRANCH  11  12
HETATM   12  C   UNL     1      42.288 -17.560   5.623  1.00  0.00     0.061 C 
BRANCH  12  13
HETATM   13  C   UNL     1      42.680 -18.150   4.275  1.00  0.00    -0.021 A 
HETATM   14  C   UNL     1      42.020 -17.701   3.110  1.00  0.00     0.074 A 
HETATM   15  C   UNL     1      42.390 -18.205   1.861  1.00  0.00     0.040 A 
HETATM   16  C   UNL     1      43.388 -19.175   1.759  1.00  0.00     0.039 A 
HETATM   17  C   UNL     1      44.020 -19.663   2.900  1.00  0.00     0.068 A 
HETATM   18  C   UNL     1      43.663 -19.154   4.151  1.00  0.00     0.046 A 
BRANCH  14  19
HETATM   19  O   UNL     1      41.047 -16.753   3.297  1.00  0.00    -0.355 OA
HETATM   20  C   UNL     1      40.403 -16.250   2.133  1.00  0.00     0.210 C 
ENDBRANCH  14  19
BRANCH  17  21
HETATM   21  O   UNL     1      44.968 -20.620   2.660  1.00  0.00    -0.356 OA
HETATM   22  C   UNL     1      44.507 -21.883   2.197  1.00  0.00     0.210 C 
ENDBRANCH  17  21
ENDBRANCH  12  13
ENDBRANCH  11  12
ENDBRANCH   8  11
ENDBRANCH   2   7
BRANCH   1  23
HETATM   23  N   UNL     1      41.246 -11.660   7.690  1.00  0.00    -0.321 N 
HETATM   24  C   UNL     1      41.970 -10.590   8.183  1.00  0.00     0.265 C 
HETATM   25  O   UNL     1      42.234  -9.575   7.544  1.00  0.00    -0.267 OA
HETATM   26  H   UNL     1      40.798 -12.233   8.396  1.00  0.00     0.169 HD
BRANCH  24  27
HETATM   27  C   UNL     1      42.300 -10.719   9.660  1.00  0.00     0.097 C 
HETATM   28  C   UNL     1      43.526 -11.126  10.068  1.00  0.00     0.064 C 
HETATM   29  C   UNL     1      44.604 -11.598   9.127  1.00  0.00     0.078 C 
HETATM   30  O   UNL     1      43.945 -11.224  11.386  1.00  0.00    -0.353 OA
HETATM   31  C   UNL     1      43.162 -10.548  12.371  1.00  0.00     0.185 C 
HETATM   32  C   UNL     1      41.706 -10.957  12.302  1.00  0.00     0.106 C 
HETATM   33  S   UNL     1      41.011 -10.295  10.769  1.00  0.00    -0.120 SA
ENDBRANCH  24  27
ENDBRANCH   1  23
TORSDOF 8
ENDMDL
MODEL 7
REMARK VINA RESULT:      -7.7      3.120      7.872
REMARK  8 active torsions:
REMARK  status: ('A' for Active; 'I' for Inactive)
REMARK    1  A    between atoms: C_7  and  C_8 
REMARK       I    between atoms: C_8  and  N_9 
REMARK    2  A    between atoms: N_9  and  C_10 
REMARK    3  A    between atoms: C_11  and  C_12 
REMARK       I    between atoms: C_12  and  N_13 
REMARK    4  A    between atoms: N_13  and  C_14 
REMARK    5  A    between atoms: C_14  and  C_15 
REMARK    6  A    between atoms: C_15  and  C_16 
REMARK    7  A    between atoms: C_17  and  O_18 
REMARK    8  A    between atoms: C_22  and  O_23 
ROOT
HETATM    1  C   UNL     1      39.653 -14.015  -1.214  1.00  0.00     0.050 A 
HETATM    2  C   UNL     1      40.706 -14.942  -1.285  1.00  0.00     0.058 A 
HETATM    3  C   UNL     1      40.847 -15.751  -2.430  1.00  0.00     0.019 A 
HETATM    4  C   UNL     1      39.947 -15.644  -3.491  1.00  0.00     0.001 A 
HETATM    5  C   UNL     1      38.879 -14.757  -3.403  1.00  0.00     0.002 A 
HETATM    6  C   UNL     1      38.725 -13.961  -2.267  1.00  0.00     0.030 A 
ENDROOT
BRANCH   2   7
HETATM    7  C   UNL     1      41.575 -15.268  -0.118  1.00  0.00     0.253 C 
HETATM    8  N   UNL     1      41.898 -16.606   0.011  1.00  0.00    -0.356 N 
HETATM    9  H   UNL     1      41.784 -17.175  -0.817  1.00  0.00     0.162 HD
HETATM   10  O   UNL     1      41.918 -14.394   0.668  1.00  0.00    -0.268 OA
BRANCH   8  11
HETATM   11  C   UNL     1      42.840 -17.082   1.009  1.00  0.00     0.127 C 
BRANCH  11  12
HETATM   12  C   UNL     1      42.280 -18.170   1.936  1.00  0.00     0.061 C 
BRANCH  12  13
HETATM   13  C   UNL     1      43.182 -18.632   3.073  1.00  0.00    -0.021 A 
HETATM   14  C   UNL     1      43.939 -19.813   2.913  1.00  0.00     0.074 A 
HETATM   15  C   UNL     1      44.799 -20.233   3.932  1.00  0.00     0.040 A 
HETATM   16  C   UNL     1      44.890 -19.509   5.121  1.00  0.00     0.039 A 
HETATM   17  C   UNL     1      44.119 -18.365   5.315  1.00  0.00     0.068 A 
HETATM   18  C   UNL     1      43.267 -17.934   4.296  1.00  0.00     0.046 A 
BRANCH  14  19
HETATM   19  O   UNL     1      43.786 -20.470   1.719  1.00  0.00    -0.355 OA
HETATM   20  C   UNL     1      44.016 -21.873   1.721  1.00  0.00     0.210 C 
ENDBRANCH  14  19
BRANCH  17  21
HETATM   21  O   UNL     1      44.295 -17.760   6.529  1.00  0.00    -0.356 OA
HETATM   22  C   UNL     1      43.317 -18.019   7.527  1.00  0.00     0.210 C 
ENDBRANCH  17  21
ENDBRANCH  12  13
ENDBRANCH  11  12
ENDBRANCH   8  11
ENDBRANCH   2   7
BRANCH   1  23
HETATM   23  N   UNL     1      39.426 -13.112  -0.155  1.00  0.00    -0.321 N 
HETATM   24  C   UNL     1      38.626 -13.340   0.949  1.00  0.00     0.265 C 
HETATM   25  O   UNL     1      38.135 -14.427   1.241  1.00  0.00    -0.267 OA
HETATM   26  H   UNL     1      40.042 -12.311  -0.078  1.00  0.00     0.169 HD
BRANCH  24  27
HETATM   27  C   UNL     1      38.514 -12.136   1.868  1.00  0.00     0.097 C 
HETATM   28  C   UNL     1      37.470 -11.279   1.771  1.00  0.00     0.064 C 
HETATM   29  C   UNL     1      36.419 -11.362   0.694  1.00  0.00     0.078 C 
HETATM   30  O   UNL     1      37.246 -10.185   2.594  1.00  0.00    -0.353 OA
HETATM   31  C   UNL     1      37.971 -10.135   3.823  1.00  0.00     0.185 C 
HETATM   32  C   UNL     1      39.462 -10.264   3.596  1.00  0.00     0.106 C 
HETATM   33  S   UNL     1      39.800 -11.953   3.044  1.00  0.00    -0.120 SA
ENDBRANCH  24  27
ENDBRANCH   1  23
TORSDOF 8
ENDMDL
MODEL 8
REMARK VINA RESULT:      -7.4      3.675      8.414
REMARK  8 active torsions:
REMARK  status: ('A' for Active; 'I' for Inactive)
REMARK    1  A    between atoms: C_7  and  C_8 
REMARK       I    between atoms: C_8  and  N_9 
REMARK    2  A    between atoms: N_9  and  C_10 
REMARK    3  A    between atoms: C_11  and  C_12 
REMARK       I    between atoms: C_12  and  N_13 
REMARK    4  A    between atoms: N_13  and  C_14 
REMARK    5  A    between atoms: C_14  and  C_15 
REMARK    6  A    between atoms: C_15  and  C_16 
REMARK    7  A    between atoms: C_17  and  O_18 
REMARK    8  A    between atoms: C_22  and  O_23 
ROOT
HETATM    1  C   UNL     1      43.208 -11.265   9.109  1.00  0.00     0.050 A 
HETATM    2  C   UNL     1      44.364 -12.043   9.290  1.00  0.00     0.058 A 
HETATM    3  C   UNL     1      45.188 -11.817  10.411  1.00  0.00     0.019 A 
HETATM    4  C   UNL     1      44.871 -10.824  11.337  1.00  0.00     0.001 A 
HETATM    5  C   UNL     1      43.751 -10.024  11.136  1.00  0.00     0.002 A 
HETATM    6  C   UNL     1      42.935 -10.233  10.022  1.00  0.00     0.030 A 
ENDROOT
BRANCH   2   7
HETATM    7  C   UNL     1      44.885 -12.970   8.245  1.00  0.00     0.253 C 
HETATM    8  N   UNL     1      44.087 -14.068   7.991  1.00  0.00    -0.356 N 
HETATM    9  H   UNL     1      43.123 -14.000   8.292  1.00  0.00     0.162 HD
HETATM   10  O   UNL     1      45.966 -12.760   7.707  1.00  0.00    -0.268 OA
BRANCH   8  11
HETATM   11  C   UNL     1      44.372 -15.001   6.915  1.00  0.00     0.127 C 
BRANCH  11  12
HETATM   12  C   UNL     1      43.126 -15.516   6.180  1.00  0.00     0.061 C 
BRANCH  12  13
HETATM   13  C   UNL     1      43.309 -16.745   5.299  1.00  0.00    -0.021 A 
HETATM   14  C   UNL     1      42.509 -16.887   4.144  1.00  0.00     0.074 A 
HETATM   15  C   UNL     1      42.687 -17.989   3.304  1.00  0.00     0.040 A 
HETATM   16  C   UNL     1      43.629 -18.969   3.618  1.00  0.00     0.039 A 
HETATM   17  C   UNL     1      44.397 -18.870   4.776  1.00  0.00     0.068 A 
HETATM   18  C   UNL     1      44.232 -17.763   5.612  1.00  0.00     0.046 A 
BRANCH  14  19
HETATM   19  O   UNL     1      41.602 -15.884   3.912  1.00  0.00    -0.355 OA
HETATM   20  C   UNL     1      41.630 -15.274   2.627  1.00  0.00     0.210 C 
ENDBRANCH  14  19
BRANCH  17  21
HETATM   21  O   UNL     1      45.271 -19.904   4.970  1.00  0.00    -0.356 OA
HETATM   22  C   UNL     1      44.759 -21.220   4.809  1.00  0.00     0.210 C 
ENDBRANCH  17  21
ENDBRANCH  12  13
ENDBRANCH  11  12
ENDBRANCH   8  11
ENDBRANCH   2   7
BRANCH   1  23
HETATM   23  N   UNL     1      42.272 -11.418   8.066  1.00  0.00    -0.321 N 
HETATM   24  C   UNL     1      41.771 -10.405   7.270  1.00  0.00     0.265 C 
HETATM   25  O   UNL     1      42.200  -9.255   7.253  1.00  0.00    -0.267 OA
HETATM   26  H   UNL     1      42.092 -12.356   7.727  1.00  0.00     0.169 HD
BRANCH  24  27
HETATM   27  C   UNL     1      40.708 -10.880   6.293  1.00  0.00     0.097 C 
HETATM   28  C   UNL     1      39.491 -10.288   6.244  1.00  0.00     0.064 C 
HETATM   29  C   UNL     1      39.043  -9.219   7.208  1.00  0.00     0.078 C 
HETATM   30  O   UNL     1      38.475 -10.608   5.356  1.00  0.00    -0.353 OA
HETATM   31  C   UNL     1      38.832 -11.379   4.208  1.00  0.00     0.185 C 
HETATM   32  C   UNL     1      39.546 -12.656   4.594  1.00  0.00     0.106 C 
HETATM   33  S   UNL     1      41.172 -12.210   5.251  1.00  0.00    -0.120 SA
ENDBRANCH  24  27
ENDBRANCH   1  23
TORSDOF 8
ENDMDL
MODEL 9
REMARK VINA RESULT:      -7.4      2.830      8.152
REMARK  8 active torsions:
REMARK  status: ('A' for Active; 'I' for Inactive)
REMARK    1  A    between atoms: C_7  and  C_8 
REMARK       I    between atoms: C_8  and  N_9 
REMARK    2  A    between atoms: N_9  and  C_10 
REMARK    3  A    between atoms: C_11  and  C_12 
REMARK       I    between atoms: C_12  and  N_13 
REMARK    4  A    between atoms: N_13  and  C_14 
REMARK    5  A    between atoms: C_14  and  C_15 
REMARK    6  A    between atoms: C_15  and  C_16 
REMARK    7  A    between atoms: C_17  and  O_18 
REMARK    8  A    between atoms: C_22  and  O_23 
ROOT
HETATM    1  C   UNL     1      39.910 -12.962   3.313  1.00  0.00     0.050 A 
HETATM    2  C   UNL     1      40.229 -13.850   4.355  1.00  0.00     0.058 A 
HETATM    3  C   UNL     1      39.929 -13.498   5.686  1.00  0.00     0.019 A 
HETATM    4  C   UNL     1      39.326 -12.276   5.980  1.00  0.00     0.001 A 
HETATM    5  C   UNL     1      39.049 -11.378   4.954  1.00  0.00     0.002 A 
HETATM    6  C   UNL     1      39.353 -11.713   3.633  1.00  0.00     0.030 A 
ENDROOT
BRANCH   2   7
HETATM    7  C   UNL     1      41.061 -15.070   4.150  1.00  0.00     0.253 C 
HETATM    8  N   UNL     1      40.632 -16.189   4.837  1.00  0.00    -0.356 N 
HETATM    9  H   UNL     1      39.673 -16.177   5.157  1.00  0.00     0.162 HD
HETATM   10  O   UNL     1      42.067 -15.029   3.452  1.00  0.00    -0.268 OA
BRANCH   8  11
HETATM   11  C   UNL     1      41.243 -17.493   4.650  1.00  0.00     0.127 C 
BRANCH  11  12
HETATM   12  C   UNL     1      42.470 -17.748   5.537  1.00  0.00     0.061 C 
BRANCH  12  13
HETATM   13  C   UNL     1      43.335 -18.950   5.181  1.00  0.00    -0.021 A 
HETATM   14  C   UNL     1      43.773 -19.810   6.212  1.00  0.00     0.074 A 
HETATM   15  C   UNL     1      44.538 -20.937   5.902  1.00  0.00     0.040 A 
HETATM   16  C   UNL     1      44.898 -21.203   4.580  1.00  0.00     0.039 A 
HETATM   17  C   UNL     1      44.513 -20.343   3.554  1.00  0.00     0.068 A 
HETATM   18  C   UNL     1      43.738 -19.221   3.857  1.00  0.00     0.046 A 
BRANCH  14  19
HETATM   19  O   UNL     1      43.382 -19.474   7.483  1.00  0.00    -0.355 OA
HETATM   20  C   UNL     1      44.275 -18.668   8.241  1.00  0.00     0.210 C 
ENDBRANCH  14  19
BRANCH  17  21
HETATM   21  O   UNL     1      44.945 -20.713   2.310  1.00  0.00    -0.356 OA
HETATM   22  C   UNL     1      44.416 -21.919   1.776  1.00  0.00     0.210 C 
ENDBRANCH  17  21
ENDBRANCH  12  13
ENDBRANCH  11  12
ENDBRANCH   8  11
ENDBRANCH   2   7
BRANCH   1  23
HETATM   23  N   UNL     1      40.106 -13.208   1.939  1.00  0.00    -0.321 N 
HETATM   24  C   UNL     1      39.428 -14.140   1.176  1.00  0.00     0.265 C 
HETATM   25  O   UNL     1      38.443 -14.767   1.555  1.00  0.00    -0.267 OA
HETATM   26  H   UNL     1      40.636 -12.526   1.409  1.00  0.00     0.169 HD
BRANCH  24  27
HETATM   27  C   UNL     1      39.934 -14.226  -0.255  1.00  0.00     0.097 C 
HETATM   28  C   UNL     1      40.749 -15.235  -0.646  1.00  0.00     0.064 C 
HETATM   29  C   UNL     1      41.317 -16.263   0.297  1.00  0.00     0.078 C 
HETATM   30  O   UNL     1      41.220 -15.435  -1.936  1.00  0.00    -0.353 OA
HETATM   31  C   UNL     1      40.554 -14.736  -2.988  1.00  0.00     0.185 C 
HETATM   32  C   UNL     1      40.504 -13.247  -2.725  1.00  0.00     0.106 C 
HETATM   33  S   UNL     1      39.383 -12.961  -1.335  1.00  0.00    -0.120 SA
ENDBRANCH  24  27
ENDBRANCH   1  23
TORSDOF 8
ENDMDL
MODEL 10
REMARK VINA RESULT:      -7.4      3.704      7.127
REMARK  8 active torsions:
REMARK  status: ('A' for Active; 'I' for Inactive)
REMARK    1  A    between atoms: C_7  and  C_8 
REMARK       I    between atoms: C_8  and  N_9 
REMARK    2  A    between atoms: N_9  and  C_10 
REMARK    3  A    between atoms: C_11  and  C_12 
REMARK       I    between atoms: C_12  and  N_13 
REMARK    4  A    between atoms: N_13  and  C_14 
REMARK    5  A    between atoms: C_14  and  C_15 
REMARK    6  A    between atoms: C_15  and  C_16 
REMARK    7  A    between atoms: C_17  and  O_18 
REMARK    8  A    between atoms: C_22  and  O_23 
ROOT
HETATM    1  C   UNL     1      41.602 -11.931   6.145  1.00  0.00     0.050 A 
HETATM    2  C   UNL     1      42.314 -12.849   5.354  1.00  0.00     0.058 A 
HETATM    3  C   UNL     1      42.103 -12.879   3.961  1.00  0.00     0.019 A 
HETATM    4  C   UNL     1      41.190 -12.012   3.361  1.00  0.00     0.001 A 
HETATM    5  C   UNL     1      40.453 -11.133   4.149  1.00  0.00     0.002 A 
HETATM    6  C   UNL     1      40.646 -11.105   5.531  1.00  0.00     0.030 A 
ENDROOT
BRANCH   2   7
HETATM    7  C   UNL     1      43.141 -13.945   5.935  1.00  0.00     0.253 C 
HETATM    8  N   UNL     1      42.426 -15.042   6.374  1.00  0.00    -0.356 N 
HETATM    9  H   UNL     1      41.488 -15.142   6.007  1.00  0.00     0.162 HD
HETATM   10  O   UNL     1      44.356 -13.824   6.037  1.00  0.00    -0.268 OA
BRANCH   8  11
HETATM   11  C   UNL     1      43.076 -16.253   6.843  1.00  0.00     0.127 C 
BRANCH  11  12
HETATM   12  C   UNL     1      42.479 -17.550   6.277  1.00  0.00     0.061 C 
BRANCH  12  13
HETATM   13  C   UNL     1      42.398 -17.661   4.760  1.00  0.00    -0.021 A 
HETATM   14  C   UNL     1      43.468 -18.256   4.057  1.00  0.00     0.074 A 
HETATM   15  C   UNL     1      43.396 -18.399   2.668  1.00  0.00     0.040 A 
HETATM   16  C   UNL     1      42.286 -17.928   1.968  1.00  0.00     0.039 A 
HETATM   17  C   UNL     1      41.239 -17.298   2.639  1.00  0.00     0.068 A 
HETATM   18  C   UNL     1      41.301 -17.163   4.027  1.00  0.00     0.046 A 
BRANCH  14  19
HETATM   19  O   UNL     1      44.525 -18.686   4.818  1.00  0.00    -0.355 OA
HETATM   20  C   UNL     1      44.883 -20.058   4.709  1.00  0.00     0.210 C 
ENDBRANCH  14  19
BRANCH  17  21
HETATM   21  O   UNL     1      40.221 -16.872   1.831  1.00  0.00    -0.356 OA
HETATM   22  C   UNL     1      39.792 -15.525   1.988  1.00  0.00     0.210 C 
ENDBRANCH  17  21
ENDBRANCH  12  13
ENDBRANCH  11  12
ENDBRANCH   8  11
ENDBRANCH   2   7
BRANCH   1  23
HETATM   23  N   UNL     1      41.753 -11.760   7.536  1.00  0.00    -0.321 N 
HETATM   24  C   UNL     1      42.151 -10.599   8.173  1.00  0.00     0.265 C 
HETATM   25  O   UNL     1      42.266  -9.507   7.623  1.00  0.00    -0.267 OA
HETATM   26  H   UNL     1      41.353 -12.465   8.145  1.00  0.00     0.169 HD
BRANCH  24  27
HETATM   27  C   UNL     1      42.304 -10.761   9.676  1.00  0.00     0.097 C 
HETATM   28  C   UNL     1      43.509 -11.045  10.227  1.00  0.00     0.064 C 
HETATM   29  C   UNL     1      44.746 -11.344   9.420  1.00  0.00     0.078 C 
HETATM   30  O   UNL     1      43.766 -11.159  11.585  1.00  0.00    -0.353 OA
HETATM   31  C   UNL     1      42.789 -10.627  12.480  1.00  0.00     0.185 C 
HETATM   32  C   UNL     1      41.414 -11.196  12.206  1.00  0.00     0.106 C 
HETATM   33  S   UNL     1      40.844 -10.544  10.619  1.00  0.00    -0.120 SA
ENDBRANCH  24  27
ENDBRANCH   1  23
TORSDOF 8
ENDMDL
