MODEL 1
REMARK VINA RESULT:      -8.0      0.000      0.000
REMARK  2 active torsions:
REMARK  status: ('A' for Active; 'I' for Inactive)
REMARK    1  A    between atoms: C_6  and  N_7 
REMARK       I    between atoms: N_7  and  C_8 
REMARK       I    between atoms: C_8  and  N_9 
REMARK    2  A    between atoms: N_9  and  C_10 
ROOT
HETATM    1  N   UNL     1      45.004 -19.469   5.135  1.00  0.00    -0.306 N 
HETATM    2  C   UNL     1      44.552 -18.257   5.547  1.00  0.00     0.321 C 
HETATM    3  N   UNL     1      43.583 -17.640   4.823  1.00  0.00    -0.338 N 
HETATM    4  O   UNL     1      45.125 -17.696   6.478  1.00  0.00    -0.247 OA
HETATM    5  H   UNL     1      45.888 -19.674   5.589  1.00  0.00     0.171 HD
HETATM    6  H   UNL     1      42.928 -18.251   4.354  1.00  0.00     0.164 HD
ENDROOT
BRANCH   3   7
HETATM    7  C   UNL     1      43.111 -16.290   5.102  1.00  0.00     0.092 C 
HETATM    8  C   UNL     1      41.679 -16.293   5.711  1.00  0.00     0.084 C 
HETATM    9  C   UNL     1      41.157 -14.916   5.739  1.00  0.00     0.034 A 
HETATM   10  C   UNL     1      41.686 -13.842   5.059  1.00  0.00     0.033 A 
HETATM   11  N   UNL     1      40.047 -14.441   6.405  1.00  0.00    -0.354 N 
HETATM   12  N   UNL     1      40.877 -12.765   5.352  1.00  0.00    -0.354 N 
HETATM   13  C   UNL     1      42.898 -13.872   4.219  1.00  0.00     0.061 C 
HETATM   14  H   UNL     1      41.005 -11.819   4.997  1.00  0.00     0.166 HD
HETATM   15  C   UNL     1      39.879 -13.137   6.161  1.00  0.00     0.180 A 
HETATM   16  C   UNL     1      43.251 -15.336   3.879  1.00  0.00     0.031 C 
HETATM   17  H   UNL     1      39.426 -15.003   6.984  1.00  0.00     0.166 HD
ENDBRANCH   3   7
BRANCH   1  18
HETATM   18  C   UNL     1      44.654 -20.313   4.056  1.00  0.00     0.077 A 
HETATM   19  C   UNL     1      44.693 -21.709   3.996  1.00  0.00     0.152 A 
HETATM   20  N   UNL     1      44.278 -22.446   2.938  1.00  0.00    -0.247 NA
HETATM   21 CL   UNL     1      45.443 -22.706   5.186  1.00  0.00    -0.060 Cl
HETATM   22  C   UNL     1      43.841 -21.773   1.856  1.00  0.00     0.118 A 
HETATM   23  C   UNL     1      43.820 -20.393   1.778  1.00  0.00     0.022 A 
HETATM   24  C   UNL     1      44.242 -19.660   2.887  1.00  0.00     0.034 A 
ENDBRANCH   1  18
TORSDOF 2
ENDMDL
MODEL 2
REMARK VINA RESULT:      -7.8      2.163      2.536
REMARK  2 active torsions:
REMARK  status: ('A' for Active; 'I' for Inactive)
REMARK    1  A    between atoms: C_6  and  N_7 
REMARK       I    between atoms: N_7  and  C_8 
REMARK       I    between atoms: C_8  and  N_9 
REMARK    2  A    between atoms: N_9  and  C_10 
ROOT
HETATM    1  N   UNL     1      44.621 -19.166   2.229  1.00  0.00    -0.306 N 
HETATM    2  C   UNL     1      44.006 -17.962   2.349  1.00  0.00     0.321 C 
HETATM    3  N   UNL     1      43.164 -17.758   3.395  1.00  0.00    -0.338 N 
HETATM    4  O   UNL     1      44.121 -17.144   1.438  1.00  0.00    -0.247 OA
HETATM    5  H   UNL     1      44.983 -19.270   1.286  1.00  0.00     0.171 HD
HETATM    6  H   UNL     1      43.392 -18.256   4.245  1.00  0.00     0.164 HD
ENDROOT
BRANCH   3   7
HETATM    7  C   UNL     1      42.362 -16.553   3.556  1.00  0.00     0.092 C 
HETATM    8  C   UNL     1      42.261 -16.120   5.046  1.00  0.00     0.084 C 
HETATM    9  C   UNL     1      41.247 -15.059   5.179  1.00  0.00     0.034 A 
HETATM   10  C   UNL     1      40.310 -14.719   4.229  1.00  0.00     0.033 A 
HETATM   11  N   UNL     1      41.012 -14.238   6.262  1.00  0.00    -0.354 N 
HETATM   12  N   UNL     1      39.559 -13.701   4.777  1.00  0.00    -0.354 N 
HETATM   13  C   UNL     1      40.189 -15.326   2.890  1.00  0.00     0.061 C 
HETATM   14  H   UNL     1      38.780 -13.233   4.318  1.00  0.00     0.166 HD
HETATM   15  C   UNL     1      39.984 -13.421   6.014  1.00  0.00     0.180 A 
HETATM   16  C   UNL     1      40.975 -16.654   2.855  1.00  0.00     0.031 C 
HETATM   17  H   UNL     1      41.532 -14.260   7.138  1.00  0.00     0.166 HD
ENDBRANCH   3   7
BRANCH   1  18
HETATM   18  C   UNL     1      44.605 -20.339   3.017  1.00  0.00     0.077 A 
HETATM   19  C   UNL     1      44.432 -21.663   2.603  1.00  0.00     0.152 A 
HETATM   20  N   UNL     1      44.493 -22.740   3.422  1.00  0.00    -0.247 NA
HETATM   21 CL   UNL     1      43.933 -22.121   1.017  1.00  0.00    -0.060 Cl
HETATM   22  C   UNL     1      44.691 -22.503   4.733  1.00  0.00     0.118 A 
HETATM   23  C   UNL     1      44.810 -21.233   5.265  1.00  0.00     0.022 A 
HETATM   24  C   UNL     1      44.755 -20.143   4.396  1.00  0.00     0.034 A 
ENDBRANCH   1  18
TORSDOF 2
ENDMDL
MODEL 3
REMARK VINA RESULT:      -7.8      2.940      3.331
REMARK  2 active torsions:
REMARK  status: ('A' for Active; 'I' for Inactive)
REMARK    1  A    between atoms: C_6  and  N_7 
REMARK       I    between atoms: N_7  and  C_8 
REMARK       I    between atoms: C_8  and  N_9 
REMARK    2  A    between atoms: N_9  and  C_10 
ROOT
HETATM    1  N   UNL     1      44.564 -19.114   2.589  1.00  0.00    -0.306 N 
HETATM    2  C   UNL     1      43.687 -18.078   2.591  1.00  0.00     0.321 C 
HETATM    3  N   UNL     1      42.545 -18.189   3.318  1.00  0.00    -0.338 N 
HETATM    4  O   UNL     1      43.885 -17.132   1.832  1.00  0.00    -0.247 OA
HETATM    5  H   UNL     1      45.208 -19.013   1.811  1.00  0.00     0.171 HD
HETATM    6  H   UNL     1      42.610 -18.750   4.156  1.00  0.00     0.164 HD
ENDROOT
BRANCH   3   7
HETATM    7  C   UNL     1      41.482 -17.192   3.297  1.00  0.00     0.092 C 
HETATM    8  C   UNL     1      41.020 -16.870   1.847  1.00  0.00     0.084 C 
HETATM    9  C   UNL     1      40.135 -15.693   1.867  1.00  0.00     0.034 A 
HETATM   10  C   UNL     1      39.985 -14.817   2.919  1.00  0.00     0.033 A 
HETATM   11  N   UNL     1      39.327 -15.219   0.854  1.00  0.00    -0.354 N 
HETATM   12  N   UNL     1      39.085 -13.862   2.499  1.00  0.00    -0.354 N 
HETATM   13  C   UNL     1      40.649 -14.933   4.231  1.00  0.00     0.061 C 
HETATM   14  H   UNL     1      38.766 -13.070   3.054  1.00  0.00     0.166 HD
HETATM   15  C   UNL     1      38.697 -14.105   1.242  1.00  0.00     0.180 A 
HETATM   16  C   UNL     1      41.831 -15.919   4.123  1.00  0.00     0.031 C 
HETATM   17  H   UNL     1      39.234 -15.642  -0.068  1.00  0.00     0.166 HD
ENDBRANCH   3   7
BRANCH   1  18
HETATM   18  C   UNL     1      44.574 -20.369   3.239  1.00  0.00     0.077 A 
HETATM   19  C   UNL     1      44.422 -21.640   2.678  1.00  0.00     0.152 A 
HETATM   20  N   UNL     1      44.507 -22.802   3.369  1.00  0.00    -0.247 NA
HETATM   21 CL   UNL     1      43.920 -21.925   1.053  1.00  0.00    -0.060 Cl
HETATM   22  C   UNL     1      44.710 -22.712   4.698  1.00  0.00     0.118 A 
HETATM   23  C   UNL     1      44.810 -21.508   5.370  1.00  0.00     0.022 A 
HETATM   24  C   UNL     1      44.730 -20.328   4.631  1.00  0.00     0.034 A 
ENDBRANCH   1  18
TORSDOF 2
ENDMDL
MODEL 4
REMARK VINA RESULT:      -7.7      5.102      7.338
REMARK  2 active torsions:
REMARK  status: ('A' for Active; 'I' for Inactive)
REMARK    1  A    between atoms: C_6  and  N_7 
REMARK       I    between atoms: N_7  and  C_8 
REMARK       I    between atoms: C_8  and  N_9 
REMARK    2  A    between atoms: N_9  and  C_10 
ROOT
HETATM    1  N   UNL     1      40.267 -15.247   0.312  1.00  0.00    -0.306 N 
HETATM    2  C   UNL     1      40.686 -16.105   1.277  1.00  0.00     0.321 C 
HETATM    3  N   UNL     1      41.989 -16.489   1.291  1.00  0.00    -0.338 N 
HETATM    4  O   UNL     1      39.850 -16.614   2.021  1.00  0.00    -0.247 OA
HETATM    5  H   UNL     1      39.254 -15.268   0.254  1.00  0.00     0.171 HD
HETATM    6  H   UNL     1      42.652 -15.806   0.950  1.00  0.00     0.164 HD
ENDROOT
BRANCH   3   7
HETATM    7  C   UNL     1      42.518 -17.495   2.202  1.00  0.00     0.092 C 
HETATM    8  C   UNL     1      43.010 -16.864   3.536  1.00  0.00     0.084 C 
HETATM    9  C   UNL     1      43.756 -17.873   4.308  1.00  0.00     0.034 A 
HETATM   10  C   UNL     1      44.228 -19.071   3.820  1.00  0.00     0.033 A 
HETATM   11  N   UNL     1      44.151 -17.813   5.628  1.00  0.00    -0.354 N 
HETATM   12  N   UNL     1      44.879 -19.684   4.869  1.00  0.00    -0.354 N 
HETATM   13  C   UNL     1      44.028 -19.576   2.448  1.00  0.00     0.061 C 
HETATM   14  H   UNL     1      45.341 -20.590   4.825  1.00  0.00     0.166 HD
HETATM   15  C   UNL     1      44.837 -18.911   5.960  1.00  0.00     0.180 A 
HETATM   16  C   UNL     1      43.582 -18.415   1.534  1.00  0.00     0.031 C 
HETATM   17  H   UNL     1      43.968 -17.035   6.259  1.00  0.00     0.166 HD
ENDBRANCH   3   7
BRANCH   1  18
HETATM   18  C   UNL     1      40.932 -14.590  -0.749  1.00  0.00     0.077 A 
HETATM   19  C   UNL     1      41.743 -13.453  -0.695  1.00  0.00     0.152 A 
HETATM   20  N   UNL     1      42.396 -12.923  -1.757  1.00  0.00    -0.247 NA
HETATM   21 CL   UNL     1      41.896 -12.440   0.691  1.00  0.00    -0.060 Cl
HETATM   22  C   UNL     1      42.207 -13.516  -2.952  1.00  0.00     0.118 A 
HETATM   23  C   UNL     1      41.376 -14.605  -3.135  1.00  0.00     0.022 A 
HETATM   24  C   UNL     1      40.726 -15.137  -2.022  1.00  0.00     0.034 A 
ENDBRANCH   1  18
TORSDOF 2
ENDMDL
MODEL 5
REMARK VINA RESULT:      -7.7      5.102      7.463
REMARK  2 active torsions:
REMARK  status: ('A' for Active; 'I' for Inactive)
REMARK    1  A    between atoms: C_6  and  N_7 
REMARK       I    between atoms: N_7  and  C_8 
REMARK       I    between atoms: C_8  and  N_9 
REMARK    2  A    between atoms: N_9  and  C_10 
ROOT
HETATM    1  N   UNL     1      40.354 -14.919   0.165  1.00  0.00    -0.306 N 
HETATM    2  C   UNL     1      40.721 -15.822   1.110  1.00  0.00     0.321 C 
HETATM    3  N   UNL     1      42.010 -16.251   1.139  1.00  0.00    -0.338 N 
HETATM    4  O   UNL     1      39.852 -16.325   1.819  1.00  0.00    -0.247 OA
HETATM    5  H   UNL     1      39.342 -14.904   0.085  1.00  0.00     0.171 HD
HETATM    6  H   UNL     1      42.703 -15.581   0.836  1.00  0.00     0.164 HD
ENDROOT
BRANCH   3   7
HETATM    7  C   UNL     1      42.484 -17.304   2.028  1.00  0.00     0.092 C 
HETATM    8  C   UNL     1      43.035 -16.727   3.364  1.00  0.00     0.084 C 
HETATM    9  C   UNL     1      43.723 -17.795   4.110  1.00  0.00     0.034 A 
HETATM   10  C   UNL     1      44.108 -19.014   3.597  1.00  0.00     0.033 A 
HETATM   11  N   UNL     1      44.140 -17.782   5.424  1.00  0.00    -0.354 N 
HETATM   12  N   UNL     1      44.731 -19.685   4.628  1.00  0.00    -0.354 N 
HETATM   13  C   UNL     1      43.856 -19.483   2.221  1.00  0.00     0.061 C 
HETATM   14  H   UNL     1      45.132 -20.619   4.564  1.00  0.00     0.166 HD
HETATM   15  C   UNL     1      44.756 -18.928   5.730  1.00  0.00     0.180 A 
HETATM   16  C   UNL     1      43.476 -18.281   1.331  1.00  0.00     0.031 C 
HETATM   17  H   UNL     1      44.017 -17.003   6.069  1.00  0.00     0.166 HD
ENDBRANCH   3   7
BRANCH   1  18
HETATM   18  C   UNL     1      41.065 -14.252  -0.859  1.00  0.00     0.077 A 
HETATM   19  C   UNL     1      41.159 -14.588  -2.212  1.00  0.00     0.152 A 
HETATM   20  N   UNL     1      41.816 -13.854  -3.143  1.00  0.00    -0.247 NA
HETATM   21 CL   UNL     1      40.612 -16.081  -2.877  1.00  0.00    -0.060 Cl
HETATM   22  C   UNL     1      42.455 -12.749  -2.714  1.00  0.00     0.118 A 
HETATM   23  C   UNL     1      42.484 -12.356  -1.390  1.00  0.00     0.022 A 
HETATM   24  C   UNL     1      41.791 -13.124  -0.455  1.00  0.00     0.034 A 
ENDBRANCH   1  18
TORSDOF 2
ENDMDL
MODEL 6
REMARK VINA RESULT:      -7.6      5.022      8.500
REMARK  2 active torsions:
REMARK  status: ('A' for Active; 'I' for Inactive)
REMARK    1  A    between atoms: C_6  and  N_7 
REMARK       I    between atoms: N_7  and  C_8 
REMARK       I    between atoms: C_8  and  N_9 
REMARK    2  A    between atoms: N_9  and  C_10 
ROOT
HETATM    1  N   UNL     1      44.951 -12.183   8.677  1.00  0.00    -0.306 N 
HETATM    2  C   UNL     1      44.999 -13.232   7.815  1.00  0.00     0.321 C 
HETATM    3  N   UNL     1      44.015 -14.167   7.867  1.00  0.00    -0.338 N 
HETATM    4  O   UNL     1      45.996 -13.376   7.111  1.00  0.00    -0.247 OA
HETATM    5  H   UNL     1      45.861 -11.735   8.717  1.00  0.00     0.171 HD
HETATM    6  H   UNL     1      43.104 -13.830   8.148  1.00  0.00     0.164 HD
ENDROOT
BRANCH   3   7
HETATM    7  C   UNL     1      44.030 -15.390   7.076  1.00  0.00     0.092 C 
HETATM    8  C   UNL     1      43.296 -15.207   5.716  1.00  0.00     0.084 C 
HETATM    9  C   UNL     1      43.123 -16.522   5.074  1.00  0.00     0.034 A 
HETATM   10  C   UNL     1      43.278 -17.744   5.691  1.00  0.00     0.033 A 
HETATM   11  N   UNL     1      42.746 -16.791   3.775  1.00  0.00    -0.354 N 
HETATM   12  N   UNL     1      42.999 -18.695   4.733  1.00  0.00    -0.354 N 
HETATM   13  C   UNL     1      43.694 -17.951   7.090  1.00  0.00     0.061 C 
HETATM   14  H   UNL     1      43.025 -19.703   4.880  1.00  0.00     0.166 HD
HETATM   15  C   UNL     1      42.667 -18.111   3.576  1.00  0.00     0.180 A 
HETATM   16  C   UNL     1      43.532 -16.631   7.875  1.00  0.00     0.031 C 
HETATM   17  H   UNL     1      42.536 -16.089   3.069  1.00  0.00     0.166 HD
ENDBRANCH   3   7
BRANCH   1  18
HETATM   18  C   UNL     1      44.029 -11.799   9.676  1.00  0.00     0.077 A 
HETATM   19  C   UNL     1      42.797 -11.156   9.522  1.00  0.00     0.152 A 
HETATM   20  N   UNL     1      41.942 -10.877  10.535  1.00  0.00    -0.247 NA
HETATM   21 CL   UNL     1      42.253 -10.453   8.044  1.00  0.00    -0.060 Cl
HETATM   22  C   UNL     1      42.337 -11.208  11.779  1.00  0.00     0.118 A 
HETATM   23  C   UNL     1      43.560 -11.787  12.058  1.00  0.00     0.022 A 
HETATM   24  C   UNL     1      44.416 -12.073  10.995  1.00  0.00     0.034 A 
ENDBRANCH   1  18
TORSDOF 2
ENDMDL
MODEL 7
REMARK VINA RESULT:      -7.4      5.345      7.732
REMARK  2 active torsions:
REMARK  status: ('A' for Active; 'I' for Inactive)
REMARK    1  A    between atoms: C_6  and  N_7 
REMARK       I    between atoms: N_7  and  C_8 
REMARK       I    between atoms: C_8  and  N_9 
REMARK    2  A    between atoms: N_9  and  C_10 
ROOT
HETATM    1  N   UNL     1      40.568 -15.530  -0.211  1.00  0.00    -0.306 N 
HETATM    2  C   UNL     1      41.188 -16.210   0.787  1.00  0.00     0.321 C 
HETATM    3  N   UNL     1      42.546 -16.251   0.805  1.00  0.00    -0.338 N 
HETATM    4  O   UNL     1      40.507 -16.878   1.562  1.00  0.00    -0.247 OA
HETATM    5  H   UNL     1      39.593 -15.810  -0.258  1.00  0.00     0.171 HD
HETATM    6  H   UNL     1      43.015 -15.439   0.428  1.00  0.00     0.164 HD
ENDROOT
BRANCH   3   7
HETATM    7  C   UNL     1      43.311 -17.047   1.756  1.00  0.00     0.092 C 
HETATM    8  C   UNL     1      43.335 -18.552   1.362  1.00  0.00     0.084 C 
HETATM    9  C   UNL     1      43.899 -19.338   2.472  1.00  0.00     0.034 A 
HETATM   10  C   UNL     1      44.079 -18.892   3.763  1.00  0.00     0.033 A 
HETATM   11  N   UNL     1      44.317 -20.653   2.458  1.00  0.00    -0.354 N 
HETATM   12  N   UNL     1      44.607 -19.954   4.466  1.00  0.00    -0.354 N 
HETATM   13  C   UNL     1      43.784 -17.531   4.248  1.00  0.00     0.061 C 
HETATM   14  H   UNL     1      44.852 -19.941   5.454  1.00  0.00     0.166 HD
HETATM   15  C   UNL     1      44.739 -21.022   3.671  1.00  0.00     0.180 A 
HETATM   16  C   UNL     1      42.874 -16.810   3.232  1.00  0.00     0.031 C 
HETATM   17  H   UNL     1      44.290 -21.267   1.645  1.00  0.00     0.166 HD
ENDBRANCH   3   7
BRANCH   1  18
HETATM   18  C   UNL     1      41.047 -14.777  -1.307  1.00  0.00     0.077 A 
HETATM   19  C   UNL     1      40.846 -15.003  -2.671  1.00  0.00     0.152 A 
HETATM   20  N   UNL     1      41.293 -14.191  -3.660  1.00  0.00    -0.247 NA
HETATM   21 CL   UNL     1      40.159 -16.445  -3.321  1.00  0.00    -0.060 Cl
HETATM   22  C   UNL     1      42.017 -13.117  -3.291  1.00  0.00     0.118 A 
HETATM   23  C   UNL     1      42.332 -12.830  -1.976  1.00  0.00     0.022 A 
HETATM   24  C   UNL     1      41.850 -13.676  -0.979  1.00  0.00     0.034 A 
ENDBRANCH   1  18
TORSDOF 2
ENDMDL
MODEL 8
REMARK VINA RESULT:      -7.3      6.353      7.841
REMARK  2 active torsions:
REMARK  status: ('A' for Active; 'I' for Inactive)
REMARK    1  A    between atoms: C_6  and  N_7 
REMARK       I    between atoms: N_7  and  C_8 
REMARK       I    between atoms: C_8  and  N_9 
REMARK    2  A    between atoms: N_9  and  C_10 
ROOT
HETATM    1  N   UNL     1      40.819 -14.402  -1.166  1.00  0.00    -0.306 N 
HETATM    2  C   UNL     1      41.454 -15.143  -0.222  1.00  0.00     0.321 C 
HETATM    3  N   UNL     1      41.083 -16.437  -0.046  1.00  0.00    -0.338 N 
HETATM    4  O   UNL     1      42.247 -14.585   0.535  1.00  0.00    -0.247 OA
HETATM    5  H   UNL     1      40.995 -13.417  -1.000  1.00  0.00     0.171 HD
HETATM    6  H   UNL     1      40.751 -16.915  -0.873  1.00  0.00     0.164 HD
ENDROOT
BRANCH   3   7
HETATM    7  C   UNL     1      41.610 -17.285   1.015  1.00  0.00     0.092 C 
HETATM    8  C   UNL     1      41.099 -16.843   2.416  1.00  0.00     0.084 C 
HETATM    9  C   UNL     1      41.849 -17.564   3.459  1.00  0.00     0.034 A 
HETATM   10  C   UNL     1      43.020 -18.265   3.268  1.00  0.00     0.033 A 
HETATM   11  N   UNL     1      41.563 -17.653   4.805  1.00  0.00    -0.354 N 
HETATM   12  N   UNL     1      43.380 -18.754   4.506  1.00  0.00    -0.354 N 
HETATM   13  C   UNL     1      43.701 -18.458   1.975  1.00  0.00     0.061 C 
HETATM   14  H   UNL     1      44.208 -19.316   4.697  1.00  0.00     0.166 HD
HETATM   15  C   UNL     1      42.498 -18.371   5.436  1.00  0.00     0.180 A 
HETATM   16  C   UNL     1      43.159 -17.439   0.951  1.00  0.00     0.031 C 
HETATM   17  H   UNL     1      40.764 -17.218   5.264  1.00  0.00     0.166 HD
ENDBRANCH   3   7
BRANCH   1  18
HETATM   18  C   UNL     1      39.797 -14.699  -2.097  1.00  0.00     0.077 A 
HETATM   19  C   UNL     1      38.486 -14.217  -2.132  1.00  0.00     0.152 A 
HETATM   20  N   UNL     1      37.585 -14.506  -3.101  1.00  0.00    -0.247 NA
HETATM   21 CL   UNL     1      37.750 -13.325  -0.852  1.00  0.00    -0.060 Cl
HETATM   22  C   UNL     1      37.978 -15.354  -4.070  1.00  0.00     0.118 A 
HETATM   23  C   UNL     1      39.228 -15.943  -4.102  1.00  0.00     0.022 A 
HETATM   24  C   UNL     1      40.139 -15.618  -3.098  1.00  0.00     0.034 A 
ENDBRANCH   1  18
TORSDOF 2
ENDMDL
MODEL 9
REMARK VINA RESULT:      -7.2      3.175      7.250
REMARK  2 active torsions:
REMARK  status: ('A' for Active; 'I' for Inactive)
REMARK    1  A    between atoms: C_6  and  N_7 
REMARK       I    between atoms: N_7  and  C_8 
REMARK       I    between atoms: C_8  and  N_9 
REMARK    2  A    between atoms: N_9  and  C_10 
ROOT
HETATM    1  N   UNL     1      40.923 -15.280   3.907  1.00  0.00    -0.306 N 
HETATM    2  C   UNL     1      41.342 -16.556   4.104  1.00  0.00     0.321 C 
HETATM    3  N   UNL     1      42.210 -17.105   3.215  1.00  0.00    -0.338 N 
HETATM    4  O   UNL     1      40.822 -17.219   4.999  1.00  0.00    -0.247 OA
HETATM    5  H   UNL     1      40.094 -15.104   4.466  1.00  0.00     0.171 HD
HETATM    6  H   UNL     1      42.854 -16.461   2.776  1.00  0.00     0.164 HD
ENDROOT
BRANCH   3   7
HETATM    7  C   UNL     1      42.630 -18.499   3.261  1.00  0.00     0.092 C 
HETATM    8  C   UNL     1      43.522 -18.793   4.501  1.00  0.00     0.084 C 
HETATM    9  C   UNL     1      44.118 -20.133   4.368  1.00  0.00     0.034 A 
HETATM   10  C   UNL     1      44.159 -20.883   3.213  1.00  0.00     0.033 A 
HETATM   11  N   UNL     1      44.768 -20.875   5.331  1.00  0.00    -0.354 N 
HETATM   12  N   UNL     1      44.822 -22.048   3.535  1.00  0.00    -0.354 N 
HETATM   13  C   UNL     1      43.568 -20.496   1.918  1.00  0.00     0.061 C 
HETATM   14  H   UNL     1      45.016 -22.811   2.890  1.00  0.00     0.166 HD
HETATM   15  C   UNL     1      45.198 -22.032   4.819  1.00  0.00     0.180 A 
HETATM   16  C   UNL     1      43.267 -18.982   1.924  1.00  0.00     0.031 C 
HETATM   17  H   UNL     1      44.921 -20.579   6.294  1.00  0.00     0.166 HD
ENDBRANCH   3   7
BRANCH   1  18
HETATM   18  C   UNL     1      41.224 -14.307   2.927  1.00  0.00     0.077 A 
HETATM   19  C   UNL     1      42.449 -13.686   2.666  1.00  0.00     0.152 A 
HETATM   20  N   UNL     1      42.666 -12.804   1.661  1.00  0.00    -0.247 NA
HETATM   21 CL   UNL     1      43.830 -13.803   3.692  1.00  0.00    -0.060 Cl
HETATM   22  C   UNL     1      41.609 -12.477   0.893  1.00  0.00     0.118 A 
HETATM   23  C   UNL     1      40.337 -12.978   1.099  1.00  0.00     0.022 A 
HETATM   24  C   UNL     1      40.146 -13.893   2.134  1.00  0.00     0.034 A 
ENDBRANCH   1  18
TORSDOF 2
ENDMDL
MODEL 10
REMARK VINA RESULT:      -7.2      4.617      8.456
REMARK  2 active torsions:
REMARK  status: ('A' for Active; 'I' for Inactive)
REMARK    1  A    between atoms: C_6  and  N_7 
REMARK       I    between atoms: N_7  and  C_8 
REMARK       I    between atoms: C_8  and  N_9 
REMARK    2  A    between atoms: N_9  and  C_10 
ROOT
HETATM    1  N   UNL     1      44.751 -11.933   8.560  1.00  0.00    -0.306 N 
HETATM    2  C   UNL     1      44.945 -13.048   7.809  1.00  0.00     0.321 C 
HETATM    3  N   UNL     1      43.945 -13.964   7.727  1.00  0.00    -0.338 N 
HETATM    4  O   UNL     1      46.061 -13.260   7.340  1.00  0.00    -0.247 OA
HETATM    5  H   UNL     1      45.645 -11.494   8.753  1.00  0.00     0.171 HD
HETATM    6  H   UNL     1      43.005 -13.595   7.786  1.00  0.00     0.164 HD
ENDROOT
BRANCH   3   7
HETATM    7  C   UNL     1      44.087 -15.247   7.052  1.00  0.00     0.092 C 
HETATM    8  C   UNL     1      43.523 -15.202   5.603  1.00  0.00     0.084 C 
HETATM    9  C   UNL     1      43.462 -16.571   5.060  1.00  0.00     0.034 A 
HETATM   10  C   UNL     1      43.570 -17.732   5.793  1.00  0.00     0.033 A 
HETATM   11  N   UNL     1      43.255 -16.959   3.753  1.00  0.00    -0.354 N 
HETATM   12  N   UNL     1      43.435 -18.767   4.894  1.00  0.00    -0.354 N 
HETATM   13  C   UNL     1      43.816 -17.808   7.246  1.00  0.00     0.061 C 
HETATM   14  H   UNL     1      43.467 -19.758   5.130  1.00  0.00     0.166 HD
HETATM   15  C   UNL     1      43.234 -18.292   3.660  1.00  0.00     0.180 A 
HETATM   16  C   UNL     1      43.526 -16.435   7.888  1.00  0.00     0.031 C 
HETATM   17  H   UNL     1      43.116 -16.325   2.969  1.00  0.00     0.166 HD
ENDBRANCH   3   7
BRANCH   1  18
HETATM   18  C   UNL     1      43.654 -11.458   9.314  1.00  0.00     0.077 A 
HETATM   19  C   UNL     1      43.404 -11.617  10.680  1.00  0.00     0.152 A 
HETATM   20  N   UNL     1      42.353 -11.073  11.339  1.00  0.00    -0.247 NA
HETATM   21 CL   UNL     1      44.292 -12.680  11.708  1.00  0.00    -0.060 Cl
HETATM   22  C   UNL     1      41.469 -10.368  10.607  1.00  0.00     0.118 A 
HETATM   23  C   UNL     1      41.579 -10.201   9.239  1.00  0.00     0.022 A 
HETATM   24  C   UNL     1      42.677 -10.762   8.590  1.00  0.00     0.034 A 
ENDBRANCH   1  18
TORSDOF 2
ENDMDL
