MODEL 1
REMARK VINA RESULT:      -8.4      0.000      0.000
REMARK  9 active torsions:
REMARK  status: ('A' for Active; 'I' for Inactive)
REMARK    1  A    between atoms: C_2  and  N_3 
REMARK    2  A    between atoms: C_2  and  C_23 
REMARK       I    between atoms: N_3  and  C_4 
REMARK       I    between atoms: C_4  and  N_5 
REMARK    3  A    between atoms: N_5  and  C_6 
REMARK    4  A    between atoms: C_6  and  C_7 
REMARK    5  A    between atoms: C_7  and  N_8 
REMARK    6  A    between atoms: C_7  and  C_14 
REMARK    7  A    between atoms: C_16  and  O_17 
REMARK    8  A    between atoms: C_23  and  C_24 
REMARK    9  A    between atoms: C_27  and  O_28 
ROOT
HETATM    1  N   UNL     1      40.293 -14.309   0.508  1.00  0.00    -0.339 N 
HETATM    2  C   UNL     1      40.142 -15.391   1.322  1.00  0.00     0.316 C 
HETATM    3  N   UNL     1      41.224 -16.234   1.273  1.00  0.00    -0.341 N 
HETATM    4  O   UNL     1      39.126 -15.663   1.948  1.00  0.00    -0.248 OA
HETATM    5  H   UNL     1      41.226 -14.033   0.243  1.00  0.00     0.164 HD
HETATM    6  H   UNL     1      42.088 -15.783   1.005  1.00  0.00     0.164 HD
ENDROOT
BRANCH   3   7
HETATM    7  C   UNL     1      41.337 -17.323   2.233  1.00  0.00     0.162 C 
BRANCH   7   8
HETATM    8  C   UNL     1      42.667 -17.434   3.051  1.00  0.00     0.238 C 
BRANCH   8   9
HETATM    9  N   UNL     1      42.563 -17.022   4.522  1.00  0.00    -0.061 N 
HETATM   10  H   UNL     1      43.255 -17.621   4.989  1.00  0.00     0.280 HD
HETATM   11  C   UNL     1      41.265 -17.250   5.256  1.00  0.00     0.236 C 
HETATM   12  C   UNL     1      40.831 -15.871   5.710  1.00  0.00     0.029 C 
HETATM   13  C   UNL     1      42.143 -15.168   5.983  1.00  0.00     0.029 C 
HETATM   14  C   UNL     1      43.014 -15.602   4.821  1.00  0.00     0.236 C 
ENDBRANCH   8   9
BRANCH   8  15
HETATM   15  C   UNL     1      43.279 -18.830   2.935  1.00  0.00    -0.023 A 
HETATM   16  C   UNL     1      44.084 -19.318   3.987  1.00  0.00     0.046 A 
HETATM   17  C   UNL     1      44.662 -20.588   3.915  1.00  0.00     0.068 A 
HETATM   18  C   UNL     1      44.419 -21.389   2.801  1.00  0.00     0.037 A 
HETATM   19  C   UNL     1      43.627 -20.926   1.754  1.00  0.00     0.003 A 
HETATM   20  C   UNL     1      43.059 -19.654   1.819  1.00  0.00     0.009 A 
BRANCH  17  21
HETATM   21  O   UNL     1      45.459 -21.159   4.866  1.00  0.00    -0.356 OA
HETATM   22  C   UNL     1      45.163 -22.499   5.243  1.00  0.00     0.210 C 
ENDBRANCH  17  21
ENDBRANCH   8  15
ENDBRANCH   7   8
ENDBRANCH   3   7
BRANCH   1  23
HETATM   23  C   UNL     1      39.233 -13.316   0.325  1.00  0.00     0.086 C 
HETATM   24  C   UNL     1      39.377 -12.188   1.349  1.00  0.00     0.032 C 
BRANCH  23  25
HETATM   25  C   UNL     1      39.251 -12.734  -1.103  1.00  0.00     0.063 C 
BRANCH  25  26
HETATM   26  C   UNL     1      39.147 -13.787  -2.183  1.00  0.00    -0.056 A 
HETATM   27  C   UNL     1      37.892 -14.254  -2.602  1.00  0.00     0.010 A 
HETATM   28  C   UNL     1      37.794 -15.222  -3.606  1.00  0.00     0.037 A 
HETATM   29  C   UNL     1      38.953 -15.731  -4.180  1.00  0.00     0.065 A 
HETATM   30  C   UNL     1      40.205 -15.288  -3.771  1.00  0.00     0.037 A 
HETATM   31  C   UNL     1      40.303 -14.312  -2.779  1.00  0.00     0.010 A 
BRANCH  29  32
HETATM   32  O   UNL     1      38.904 -16.674  -5.162  1.00  0.00    -0.361 OA
HETATM   33  H   UNL     1      38.279 -16.378  -5.845  1.00  0.00     0.217 HD
ENDBRANCH  29  32
ENDBRANCH  25  26
ENDBRANCH  23  25
ENDBRANCH   1  23
TORSDOF 9
ENDMDL
MODEL 2
REMARK VINA RESULT:      -8.4      0.971      1.813
REMARK  9 active torsions:
REMARK  status: ('A' for Active; 'I' for Inactive)
REMARK    1  A    between atoms: C_2  and  N_3 
REMARK    2  A    between atoms: C_2  and  C_23 
REMARK       I    between atoms: N_3  and  C_4 
REMARK       I    between atoms: C_4  and  N_5 
REMARK    3  A    between atoms: N_5  and  C_6 
REMARK    4  A    between atoms: C_6  and  C_7 
REMARK    5  A    between atoms: C_7  and  N_8 
REMARK    6  A    between atoms: C_7  and  C_14 
REMARK    7  A    between atoms: C_16  and  O_17 
REMARK    8  A    between atoms: C_23  and  C_24 
REMARK    9  A    between atoms: C_27  and  O_28 
ROOT
HETATM    1  N   UNL     1      40.117 -14.424   0.726  1.00  0.00    -0.339 N 
HETATM    2  C   UNL     1      40.208 -15.533   1.512  1.00  0.00     0.316 C 
HETATM    3  N   UNL     1      41.474 -16.061   1.523  1.00  0.00    -0.341 N 
HETATM    4  O   UNL     1      39.264 -16.080   2.067  1.00  0.00    -0.248 OA
HETATM    5  H   UNL     1      40.959 -13.905   0.525  1.00  0.00     0.164 HD
HETATM    6  H   UNL     1      42.204 -15.392   1.318  1.00  0.00     0.164 HD
ENDROOT
BRANCH   3   7
HETATM    7  C   UNL     1      41.813 -17.111   2.473  1.00  0.00     0.162 C 
BRANCH   7   8
HETATM    8  C   UNL     1      42.955 -16.819   3.503  1.00  0.00     0.238 C 
BRANCH   8   9
HETATM    9  N   UNL     1      42.526 -16.035   4.745  1.00  0.00    -0.061 N 
HETATM   10  H   UNL     1      43.093 -16.445   5.497  1.00  0.00     0.280 HD
HETATM   11  C   UNL     1      41.096 -16.131   5.214  1.00  0.00     0.236 C 
HETATM   12  C   UNL     1      40.577 -14.708   5.168  1.00  0.00     0.029 C 
HETATM   13  C   UNL     1      41.799 -13.883   5.515  1.00  0.00     0.029 C 
HETATM   14  C   UNL     1      42.906 -14.563   4.734  1.00  0.00     0.236 C 
ENDBRANCH   8   9
BRANCH   8  15
HETATM   15  C   UNL     1      43.680 -18.101   3.910  1.00  0.00    -0.023 A 
HETATM   16  C   UNL     1      43.951 -19.080   2.930  1.00  0.00     0.046 A 
HETATM   17  C   UNL     1      44.610 -20.265   3.266  1.00  0.00     0.068 A 
HETATM   18  C   UNL     1      45.026 -20.469   4.580  1.00  0.00     0.037 A 
HETATM   19  C   UNL     1      44.769 -19.514   5.562  1.00  0.00     0.003 A 
HETATM   20  C   UNL     1      44.101 -18.336   5.230  1.00  0.00     0.009 A 
BRANCH  17  21
HETATM   21  O   UNL     1      44.919 -21.280   2.407  1.00  0.00    -0.356 OA
HETATM   22  C   UNL     1      43.854 -21.835   1.644  1.00  0.00     0.210 C 
ENDBRANCH  17  21
ENDBRANCH   8  15
ENDBRANCH   7   8
ENDBRANCH   3   7
BRANCH   1  23
HETATM   23  C   UNL     1      38.847 -13.737   0.487  1.00  0.00     0.086 C 
HETATM   24  C   UNL     1      38.580 -12.711   1.591  1.00  0.00     0.032 C 
BRANCH  23  25
HETATM   25  C   UNL     1      38.834 -13.042  -0.890  1.00  0.00     0.063 C 
BRANCH  25  26
HETATM   26  C   UNL     1      38.874 -14.010  -2.052  1.00  0.00    -0.056 A 
HETATM   27  C   UNL     1      40.099 -14.514  -2.514  1.00  0.00     0.010 A 
HETATM   28  C   UNL     1      40.137 -15.415  -3.582  1.00  0.00     0.037 A 
HETATM   29  C   UNL     1      38.950 -15.800  -4.194  1.00  0.00     0.065 A 
HETATM   30  C   UNL     1      37.729 -15.303  -3.756  1.00  0.00     0.037 A 
HETATM   31  C   UNL     1      37.689 -14.415  -2.682  1.00  0.00     0.010 A 
BRANCH  29  32
HETATM   32  O   UNL     1      38.941 -16.676  -5.237  1.00  0.00    -0.361 OA
HETATM   33  H   UNL     1      39.795 -17.141  -5.260  1.00  0.00     0.217 HD
ENDBRANCH  29  32
ENDBRANCH  25  26
ENDBRANCH  23  25
ENDBRANCH   1  23
TORSDOF 9
ENDMDL
MODEL 3
REMARK VINA RESULT:      -8.4      2.752      8.278
REMARK  9 active torsions:
REMARK  status: ('A' for Active; 'I' for Inactive)
REMARK    1  A    between atoms: C_2  and  N_3 
REMARK    2  A    between atoms: C_2  and  C_23 
REMARK       I    between atoms: N_3  and  C_4 
REMARK       I    between atoms: C_4  and  N_5 
REMARK    3  A    between atoms: N_5  and  C_6 
REMARK    4  A    between atoms: C_6  and  C_7 
REMARK    5  A    between atoms: C_7  and  N_8 
REMARK    6  A    between atoms: C_7  and  C_14 
REMARK    7  A    between atoms: C_16  and  O_17 
REMARK    8  A    between atoms: C_23  and  C_24 
REMARK    9  A    between atoms: C_27  and  O_28 
ROOT
HETATM    1  N   UNL     1      43.645 -19.413   1.808  1.00  0.00    -0.339 N 
HETATM    2  C   UNL     1      42.735 -18.437   2.082  1.00  0.00     0.316 C 
HETATM    3  N   UNL     1      42.765 -17.422   1.159  1.00  0.00    -0.341 N 
HETATM    4  O   UNL     1      42.036 -18.390   3.086  1.00  0.00    -0.248 OA
HETATM    5  H   UNL     1      43.980 -19.506   0.861  1.00  0.00     0.164 HD
HETATM    6  H   UNL     1      43.115 -17.698   0.252  1.00  0.00     0.164 HD
ENDROOT
BRANCH   3   7
HETATM    7  C   UNL     1      41.723 -16.406   1.165  1.00  0.00     0.162 C 
BRANCH   7   8
HETATM    8  C   UNL     1      42.147 -14.932   1.477  1.00  0.00     0.238 C 
BRANCH   8   9
HETATM    9  N   UNL     1      41.181 -13.856   0.973  1.00  0.00    -0.061 N 
HETATM   10  H   UNL     1      41.057 -13.243   1.789  1.00  0.00     0.280 HD
HETATM   11  C   UNL     1      39.791 -14.260   0.552  1.00  0.00     0.236 C 
HETATM   12  C   UNL     1      39.690 -13.839  -0.901  1.00  0.00     0.029 C 
HETATM   13  C   UNL     1      40.539 -12.588  -0.958  1.00  0.00     0.029 C 
HETATM   14  C   UNL     1      41.742 -12.950  -0.110  1.00  0.00     0.236 C 
ENDBRANCH   8   9
BRANCH   8  15
HETATM   15  C   UNL     1      42.428 -14.735   2.966  1.00  0.00    -0.023 A 
HETATM   16  C   UNL     1      41.513 -15.244   3.912  1.00  0.00     0.046 A 
HETATM   17  C   UNL     1      41.736 -15.081   5.282  1.00  0.00     0.068 A 
HETATM   18  C   UNL     1      42.889 -14.430   5.716  1.00  0.00     0.037 A 
HETATM   19  C   UNL     1      43.804 -13.921   4.798  1.00  0.00     0.003 A 
HETATM   20  C   UNL     1      43.577 -14.073   3.430  1.00  0.00     0.009 A 
BRANCH  17  21
HETATM   21  O   UNL     1      40.921 -15.525   6.284  1.00  0.00    -0.356 OA
HETATM   22  C   UNL     1      40.651 -16.921   6.333  1.00  0.00     0.210 C 
ENDBRANCH  17  21
ENDBRANCH   8  15
ENDBRANCH   7   8
ENDBRANCH   3   7
BRANCH   1  23
HETATM   23  C   UNL     1      43.858 -20.555   2.698  1.00  0.00     0.086 C 
HETATM   24  C   UNL     1      44.107 -21.827   1.885  1.00  0.00     0.032 C 
BRANCH  23  25
HETATM   25  C   UNL     1      45.041 -20.305   3.657  1.00  0.00     0.063 C 
BRANCH  25  26
HETATM   26  C   UNL     1      44.623 -19.721   4.988  1.00  0.00    -0.056 A 
HETATM   27  C   UNL     1      44.107 -20.548   5.996  1.00  0.00     0.010 A 
HETATM   28  C   UNL     1      43.728 -20.010   7.229  1.00  0.00     0.037 A 
HETATM   29  C   UNL     1      43.854 -18.644   7.447  1.00  0.00     0.065 A 
HETATM   30  C   UNL     1      44.355 -17.807   6.457  1.00  0.00     0.037 A 
HETATM   31  C   UNL     1      44.746 -18.345   5.231  1.00  0.00     0.010 A 
BRANCH  29  32
HETATM   32  O   UNL     1      43.499 -18.078   8.635  1.00  0.00    -0.361 OA
HETATM   33  H   UNL     1      44.199 -18.257   9.285  1.00  0.00     0.217 HD
ENDBRANCH  29  32
ENDBRANCH  25  26
ENDBRANCH  23  25
ENDBRANCH   1  23
TORSDOF 9
ENDMDL
MODEL 4
REMARK VINA RESULT:      -8.3      5.978     10.440
REMARK  9 active torsions:
REMARK  status: ('A' for Active; 'I' for Inactive)
REMARK    1  A    between atoms: C_2  and  N_3 
REMARK    2  A    between atoms: C_2  and  C_23 
REMARK       I    between atoms: N_3  and  C_4 
REMARK       I    between atoms: C_4  and  N_5 
REMARK    3  A    between atoms: N_5  and  C_6 
REMARK    4  A    between atoms: C_6  and  C_7 
REMARK    5  A    between atoms: C_7  and  N_8 
REMARK    6  A    between atoms: C_7  and  C_14 
REMARK    7  A    between atoms: C_16  and  O_17 
REMARK    8  A    between atoms: C_23  and  C_24 
REMARK    9  A    between atoms: C_27  and  O_28 
ROOT
HETATM    1  N   UNL     1      43.552 -11.801   8.554  1.00  0.00    -0.339 N 
HETATM    2  C   UNL     1      44.051 -12.958   8.037  1.00  0.00     0.316 C 
HETATM    3  N   UNL     1      43.488 -13.273   6.826  1.00  0.00    -0.341 N 
HETATM    4  O   UNL     1      44.829 -13.707   8.614  1.00  0.00    -0.248 OA
HETATM    5  H   UNL     1      43.131 -11.134   7.925  1.00  0.00     0.164 HD
HETATM    6  H   UNL     1      43.130 -12.475   6.316  1.00  0.00     0.164 HD
ENDROOT
BRANCH   3   7
HETATM    7  C   UNL     1      44.049 -14.350   6.024  1.00  0.00     0.162 C 
BRANCH   7   8
HETATM    8  C   UNL     1      43.054 -15.375   5.384  1.00  0.00     0.238 C 
BRANCH   8   9
HETATM    9  N   UNL     1      42.496 -14.974   4.016  1.00  0.00    -0.061 N 
HETATM   10  H   UNL     1      42.609 -15.825   3.452  1.00  0.00     0.280 HD
HETATM   11  C   UNL     1      43.180 -13.877   3.240  1.00  0.00     0.236 C 
HETATM   12  C   UNL     1      42.113 -12.817   3.048  1.00  0.00     0.029 C 
HETATM   13  C   UNL     1      40.840 -13.627   2.924  1.00  0.00     0.029 C 
HETATM   14  C   UNL     1      41.003 -14.689   3.993  1.00  0.00     0.236 C 
ENDBRANCH   8   9
BRANCH   8  15
HETATM   15  C   UNL     1      43.660 -16.776   5.319  1.00  0.00    -0.023 A 
HETATM   16  C   UNL     1      43.549 -17.519   4.124  1.00  0.00     0.046 A 
HETATM   17  C   UNL     1      44.088 -18.804   4.027  1.00  0.00     0.068 A 
HETATM   18  C   UNL     1      44.766 -19.346   5.118  1.00  0.00     0.037 A 
HETATM   19  C   UNL     1      44.887 -18.628   6.306  1.00  0.00     0.003 A 
HETATM   20  C   UNL     1      44.338 -17.350   6.407  1.00  0.00     0.009 A 
BRANCH  17  21
HETATM   21  O   UNL     1      44.037 -19.613   2.929  1.00  0.00    -0.356 OA
HETATM   22  C   UNL     1      44.564 -20.927   3.064  1.00  0.00     0.210 C 
ENDBRANCH  17  21
ENDBRANCH   8  15
ENDBRANCH   7   8
ENDBRANCH   3   7
BRANCH   1  23
HETATM   23  C   UNL     1      43.935 -11.308   9.878  1.00  0.00     0.086 C 
HETATM   24  C   UNL     1      45.414 -10.915   9.893  1.00  0.00     0.032 C 
BRANCH  23  25
HETATM   25  C   UNL     1      43.069 -10.103  10.301  1.00  0.00     0.063 C 
BRANCH  25  26
HETATM   26  C   UNL     1      42.710 -10.108  11.770  1.00  0.00    -0.056 A 
HETATM   27  C   UNL     1      41.596 -10.827  12.227  1.00  0.00     0.010 A 
HETATM   28  C   UNL     1      41.268 -10.840  13.585  1.00  0.00     0.037 A 
HETATM   29  C   UNL     1      42.047 -10.121  14.483  1.00  0.00     0.065 A 
HETATM   30  C   UNL     1      43.149  -9.395  14.048  1.00  0.00     0.037 A 
HETATM   31  C   UNL     1      43.485  -9.393  12.695  1.00  0.00     0.010 A 
BRANCH  29  32
HETATM   32  O   UNL     1      41.765 -10.107  15.816  1.00  0.00    -0.361 OA
HETATM   33  H   UNL     1      40.800 -10.079  15.928  1.00  0.00     0.217 HD
ENDBRANCH  29  32
ENDBRANCH  25  26
ENDBRANCH  23  25
ENDBRANCH   1  23
TORSDOF 9
ENDMDL
MODEL 5
REMARK VINA RESULT:      -8.3      2.452      8.915
REMARK  9 active torsions:
REMARK  status: ('A' for Active; 'I' for Inactive)
REMARK    1  A    between atoms: C_2  and  N_3 
REMARK    2  A    between atoms: C_2  and  C_23 
REMARK       I    between atoms: N_3  and  C_4 
REMARK       I    between atoms: C_4  and  N_5 
REMARK    3  A    between atoms: N_5  and  C_6 
REMARK    4  A    between atoms: C_6  and  C_7 
REMARK    5  A    between atoms: C_7  and  N_8 
REMARK    6  A    between atoms: C_7  and  C_14 
REMARK    7  A    between atoms: C_16  and  O_17 
REMARK    8  A    between atoms: C_23  and  C_24 
REMARK    9  A    between atoms: C_27  and  O_28 
ROOT
HETATM    1  N   UNL     1      44.144 -19.003   2.297  1.00  0.00    -0.339 N 
HETATM    2  C   UNL     1      43.074 -18.203   2.031  1.00  0.00     0.316 C 
HETATM    3  N   UNL     1      43.449 -16.987   1.516  1.00  0.00    -0.341 N 
HETATM    4  O   UNL     1      41.912 -18.467   2.310  1.00  0.00    -0.248 OA
HETATM    5  H   UNL     1      45.010 -18.826   1.812  1.00  0.00     0.164 HD
HETATM    6  H   UNL     1      44.343 -16.996   1.042  1.00  0.00     0.164 HD
ENDROOT
BRANCH   3   7
HETATM    7  C   UNL     1      42.441 -16.090   0.970  1.00  0.00     0.162 C 
BRANCH   7   8
HETATM    8  C   UNL     1      41.281 -15.637   1.919  1.00  0.00     0.238 C 
BRANCH   8   9
HETATM    9  N   UNL     1      41.705 -14.731   3.078  1.00  0.00    -0.061 N 
HETATM   10  H   UNL     1      40.837 -14.244   3.333  1.00  0.00     0.280 HD
HETATM   11  C   UNL     1      42.722 -13.647   2.826  1.00  0.00     0.236 C 
HETATM   12  C   UNL     1      43.870 -13.967   3.762  1.00  0.00     0.029 C 
HETATM   13  C   UNL     1      43.176 -14.570   4.965  1.00  0.00     0.029 C 
HETATM   14  C   UNL     1      42.123 -15.465   4.342  1.00  0.00     0.236 C 
ENDBRANCH   8   9
BRANCH   8  15
HETATM   15  C   UNL     1      40.138 -14.993   1.136  1.00  0.00    -0.023 A 
HETATM   16  C   UNL     1      40.362 -14.580  -0.195  1.00  0.00     0.046 A 
HETATM   17  C   UNL     1      39.342 -13.986  -0.942  1.00  0.00     0.068 A 
HETATM   18  C   UNL     1      38.081 -13.823  -0.370  1.00  0.00     0.037 A 
HETATM   19  C   UNL     1      37.840 -14.225   0.941  1.00  0.00     0.003 A 
HETATM   20  C   UNL     1      38.861 -14.807   1.691  1.00  0.00     0.009 A 
BRANCH  17  21
HETATM   21  O   UNL     1      39.445 -13.545  -2.230  1.00  0.00    -0.356 OA
HETATM   22  C   UNL     1      38.624 -14.180  -3.203  1.00  0.00     0.210 C 
ENDBRANCH  17  21
ENDBRANCH   8  15
ENDBRANCH   7   8
ENDBRANCH   3   7
BRANCH   1  23
HETATM   23  C   UNL     1      43.999 -20.314   2.933  1.00  0.00     0.086 C 
HETATM   24  C   UNL     1      44.095 -21.427   1.887  1.00  0.00     0.032 C 
BRANCH  23  25
HETATM   25  C   UNL     1      45.066 -20.527   4.027  1.00  0.00     0.063 C 
BRANCH  25  26
HETATM   26  C   UNL     1      44.717 -19.870   5.343  1.00  0.00    -0.056 A 
HETATM   27  C   UNL     1      45.068 -18.533   5.585  1.00  0.00     0.010 A 
HETATM   28  C   UNL     1      44.738 -17.922   6.797  1.00  0.00     0.037 A 
HETATM   29  C   UNL     1      44.070 -18.653   7.772  1.00  0.00     0.065 A 
HETATM   30  C   UNL     1      43.723 -19.980   7.554  1.00  0.00     0.037 A 
HETATM   31  C   UNL     1      44.039 -20.587   6.339  1.00  0.00     0.010 A 
BRANCH  29  32
HETATM   32  O   UNL     1      43.728 -18.096   8.967  1.00  0.00    -0.361 OA
HETATM   33  H   UNL     1      44.528 -18.021   9.515  1.00  0.00     0.217 HD
ENDBRANCH  29  32
ENDBRANCH  25  26
ENDBRANCH  23  25
ENDBRANCH   1  23
TORSDOF 9
ENDMDL
MODEL 6
REMARK VINA RESULT:      -8.2      3.095      8.484
REMARK  9 active torsions:
REMARK  status: ('A' for Active; 'I' for Inactive)
REMARK    1  A    between atoms: C_2  and  N_3 
REMARK    2  A    between atoms: C_2  and  C_23 
REMARK       I    between atoms: N_3  and  C_4 
REMARK       I    between atoms: C_4  and  N_5 
REMARK    3  A    between atoms: N_5  and  C_6 
REMARK    4  A    between atoms: C_6  and  C_7 
REMARK    5  A    between atoms: C_7  and  N_8 
REMARK    6  A    between atoms: C_7  and  C_14 
REMARK    7  A    between atoms: C_16  and  O_17 
REMARK    8  A    between atoms: C_23  and  C_24 
REMARK    9  A    between atoms: C_27  and  O_28 
ROOT
HETATM    1  N   UNL     1      43.887 -19.378   2.039  1.00  0.00    -0.339 N 
HETATM    2  C   UNL     1      42.904 -18.439   2.126  1.00  0.00     0.316 C 
HETATM    3  N   UNL     1      43.080 -17.416   1.227  1.00  0.00    -0.341 N 
HETATM    4  O   UNL     1      42.018 -18.425   2.970  1.00  0.00    -0.248 OA
HETATM    5  H   UNL     1      44.409 -19.451   1.179  1.00  0.00     0.164 HD
HETATM    6  H   UNL     1      43.615 -17.673   0.408  1.00  0.00     0.164 HD
ENDROOT
BRANCH   3   7
HETATM    7  C   UNL     1      42.020 -16.440   1.024  1.00  0.00     0.162 C 
BRANCH   7   8
HETATM    8  C   UNL     1      42.236 -15.001   1.601  1.00  0.00     0.238 C 
BRANCH   8   9
HETATM    9  N   UNL     1      41.600 -13.871   0.788  1.00  0.00    -0.061 N 
HETATM   10  H   UNL     1      40.633 -13.841   1.134  1.00  0.00     0.280 HD
HETATM   11  C   UNL     1      41.493 -14.017  -0.709  1.00  0.00     0.236 C 
HETATM   12  C   UNL     1      42.274 -12.844  -1.268  1.00  0.00     0.029 C 
HETATM   13  C   UNL     1      42.037 -11.753  -0.247  1.00  0.00     0.029 C 
HETATM   14  C   UNL     1      42.156 -12.486   1.074  1.00  0.00     0.236 C 
ENDBRANCH   8   9
BRANCH   8  15
HETATM   15  C   UNL     1      41.799 -14.914   3.062  1.00  0.00    -0.023 A 
HETATM   16  C   UNL     1      42.779 -14.947   4.077  1.00  0.00     0.046 A 
HETATM   17  C   UNL     1      42.417 -14.872   5.424  1.00  0.00     0.068 A 
HETATM   18  C   UNL     1      41.072 -14.737   5.766  1.00  0.00     0.037 A 
HETATM   19  C   UNL     1      40.090 -14.701   4.779  1.00  0.00     0.003 A 
HETATM   20  C   UNL     1      40.450 -14.788   3.434  1.00  0.00     0.009 A 
BRANCH  17  21
HETATM   21  O   UNL     1      43.274 -14.899   6.487  1.00  0.00    -0.356 OA
HETATM   22  C   UNL     1      44.402 -14.034   6.435  1.00  0.00     0.210 C 
ENDBRANCH  17  21
ENDBRANCH   8  15
ENDBRANCH   7   8
ENDBRANCH   3   7
BRANCH   1  23
HETATM   23  C   UNL     1      43.962 -20.517   2.955  1.00  0.00     0.086 C 
HETATM   24  C   UNL     1      44.077 -21.826   2.171  1.00  0.00     0.032 C 
BRANCH  23  25
HETATM   25  C   UNL     1      45.154 -20.380   3.925  1.00  0.00     0.063 C 
BRANCH  25  26
HETATM   26  C   UNL     1      44.776 -19.780   5.261  1.00  0.00    -0.056 A 
HETATM   27  C   UNL     1      45.119 -18.455   5.567  1.00  0.00     0.010 A 
HETATM   28  C   UNL     1      44.763 -17.896   6.797  1.00  0.00     0.037 A 
HETATM   29  C   UNL     1      44.076 -18.668   7.725  1.00  0.00     0.065 A 
HETATM   30  C   UNL     1      43.736 -19.985   7.444  1.00  0.00     0.037 A 
HETATM   31  C   UNL     1      44.079 -20.540   6.211  1.00  0.00     0.010 A 
BRANCH  29  32
HETATM   32  O   UNL     1      43.708 -18.163   8.936  1.00  0.00    -0.361 OA
HETATM   33  H   UNL     1      43.629 -17.197   8.859  1.00  0.00     0.217 HD
ENDBRANCH  29  32
ENDBRANCH  25  26
ENDBRANCH  23  25
ENDBRANCH   1  23
TORSDOF 9
ENDMDL
MODEL 7
REMARK VINA RESULT:      -8.0      1.634      2.196
REMARK  9 active torsions:
REMARK  status: ('A' for Active; 'I' for Inactive)
REMARK    1  A    between atoms: C_2  and  N_3 
REMARK    2  A    between atoms: C_2  and  C_23 
REMARK       I    between atoms: N_3  and  C_4 
REMARK       I    between atoms: C_4  and  N_5 
REMARK    3  A    between atoms: N_5  and  C_6 
REMARK    4  A    between atoms: C_6  and  C_7 
REMARK    5  A    between atoms: C_7  and  N_8 
REMARK    6  A    between atoms: C_7  and  C_14 
REMARK    7  A    between atoms: C_16  and  O_17 
REMARK    8  A    between atoms: C_23  and  C_24 
REMARK    9  A    between atoms: C_27  and  O_28 
ROOT
HETATM    1  N   UNL     1      41.852 -15.088  -0.558  1.00  0.00    -0.339 N 
HETATM    2  C   UNL     1      41.417 -15.472   0.675  1.00  0.00     0.316 C 
HETATM    3  N   UNL     1      41.932 -16.687   1.054  1.00  0.00    -0.341 N 
HETATM    4  O   UNL     1      40.581 -14.877   1.342  1.00  0.00    -0.248 OA
HETATM    5  H   UNL     1      42.709 -15.486  -0.912  1.00  0.00     0.164 HD
HETATM    6  H   UNL     1      42.812 -16.919   0.612  1.00  0.00     0.164 HD
ENDROOT
BRANCH   3   7
HETATM    7  C   UNL     1      41.755 -17.154   2.421  1.00  0.00     0.162 C 
BRANCH   7   8
HETATM    8  C   UNL     1      42.898 -16.848   3.447  1.00  0.00     0.238 C 
BRANCH   8   9
HETATM    9  N   UNL     1      42.466 -16.065   4.689  1.00  0.00    -0.061 N 
HETATM   10  H   UNL     1      43.056 -16.452   5.435  1.00  0.00     0.280 HD
HETATM   11  C   UNL     1      41.047 -16.199   5.181  1.00  0.00     0.236 C 
HETATM   12  C   UNL     1      40.485 -14.792   5.131  1.00  0.00     0.029 C 
HETATM   13  C   UNL     1      41.687 -13.929   5.451  1.00  0.00     0.029 C 
HETATM   14  C   UNL     1      42.801 -14.583   4.658  1.00  0.00     0.236 C 
ENDBRANCH   8   9
BRANCH   8  15
HETATM   15  C   UNL     1      43.637 -18.122   3.855  1.00  0.00    -0.023 A 
HETATM   16  C   UNL     1      43.930 -19.092   2.873  1.00  0.00     0.046 A 
HETATM   17  C   UNL     1      44.602 -20.270   3.208  1.00  0.00     0.068 A 
HETATM   18  C   UNL     1      45.009 -20.474   4.526  1.00  0.00     0.037 A 
HETATM   19  C   UNL     1      44.731 -19.528   5.509  1.00  0.00     0.003 A 
HETATM   20  C   UNL     1      44.049 -18.357   5.177  1.00  0.00     0.009 A 
BRANCH  17  21
HETATM   21  O   UNL     1      44.933 -21.276   2.347  1.00  0.00    -0.356 OA
HETATM   22  C   UNL     1      43.874 -21.879   1.613  1.00  0.00     0.210 C 
ENDBRANCH  17  21
ENDBRANCH   8  15
ENDBRANCH   7   8
ENDBRANCH   3   7
BRANCH   1  23
HETATM   23  C   UNL     1      41.370 -13.871  -1.212  1.00  0.00     0.086 C 
HETATM   24  C   UNL     1      42.292 -12.692  -0.890  1.00  0.00     0.032 C 
BRANCH  23  25
HETATM   25  C   UNL     1      41.270 -14.056  -2.740  1.00  0.00     0.063 C 
BRANCH  25  26
HETATM   26  C   UNL     1      39.852 -14.248  -3.230  1.00  0.00    -0.056 A 
HETATM   27  C   UNL     1      38.917 -13.209  -3.125  1.00  0.00     0.010 A 
HETATM   28  C   UNL     1      37.609 -13.382  -3.585  1.00  0.00     0.037 A 
HETATM   29  C   UNL     1      37.235 -14.600  -4.138  1.00  0.00     0.065 A 
HETATM   30  C   UNL     1      38.144 -15.645  -4.243  1.00  0.00     0.037 A 
HETATM   31  C   UNL     1      39.454 -15.468  -3.796  1.00  0.00     0.010 A 
BRANCH  29  32
HETATM   32  O   UNL     1      35.971 -14.812  -4.601  1.00  0.00    -0.361 OA
HETATM   33  H   UNL     1      35.873 -14.359  -5.455  1.00  0.00     0.217 HD
ENDBRANCH  29  32
ENDBRANCH  25  26
ENDBRANCH  23  25
ENDBRANCH   1  23
TORSDOF 9
ENDMDL
MODEL 8
REMARK VINA RESULT:      -8.0      2.306      8.745
REMARK  9 active torsions:
REMARK  status: ('A' for Active; 'I' for Inactive)
REMARK    1  A    between atoms: C_2  and  N_3 
REMARK    2  A    between atoms: C_2  and  C_23 
REMARK       I    between atoms: N_3  and  C_4 
REMARK       I    between atoms: C_4  and  N_5 
REMARK    3  A    between atoms: N_5  and  C_6 
REMARK    4  A    between atoms: C_6  and  C_7 
REMARK    5  A    between atoms: C_7  and  N_8 
REMARK    6  A    between atoms: C_7  and  C_14 
REMARK    7  A    between atoms: C_16  and  O_17 
REMARK    8  A    between atoms: C_23  and  C_24 
REMARK    9  A    between atoms: C_27  and  O_28 
ROOT
HETATM    1  N   UNL     1      41.322 -16.856   2.657  1.00  0.00    -0.339 N 
HETATM    2  C   UNL     1      41.247 -15.704   1.934  1.00  0.00     0.316 C 
HETATM    3  N   UNL     1      40.557 -15.870   0.758  1.00  0.00    -0.341 N 
HETATM    4  O   UNL     1      41.811 -14.656   2.220  1.00  0.00    -0.248 OA
HETATM    5  H   UNL     1      40.635 -17.575   2.490  1.00  0.00     0.164 HD
HETATM    6  H   UNL     1      39.891 -16.631   0.774  1.00  0.00     0.164 HD
ENDROOT
BRANCH   3   7
HETATM    7  C   UNL     1      40.189 -14.708  -0.036  1.00  0.00     0.162 C 
BRANCH   7   8
HETATM    8  C   UNL     1      41.137 -14.302  -1.214  1.00  0.00     0.238 C 
BRANCH   8   9
HETATM    9  N   UNL     1      40.534 -14.443  -2.614  1.00  0.00    -0.061 N 
HETATM   10  H   UNL     1      41.232 -13.999  -3.222  1.00  0.00     0.280 HD
HETATM   11  C   UNL     1      39.228 -13.753  -2.921  1.00  0.00     0.236 C 
HETATM   12  C   UNL     1      38.285 -14.871  -3.317  1.00  0.00     0.029 C 
HETATM   13  C   UNL     1      39.196 -15.864  -4.007  1.00  0.00     0.029 C 
HETATM   14  C   UNL     1      40.427 -15.871  -3.123  1.00  0.00     0.236 C 
ENDBRANCH   8   9
BRANCH   8  15
HETATM   15  C   UNL     1      41.698 -12.894  -1.019  1.00  0.00    -0.023 A 
HETATM   16  C   UNL     1      41.189 -12.088   0.022  1.00  0.00     0.046 A 
HETATM   17  C   UNL     1      41.676 -10.796   0.230  1.00  0.00     0.068 A 
HETATM   18  C   UNL     1      42.695 -10.308  -0.587  1.00  0.00     0.037 A 
HETATM   19  C   UNL     1      43.211 -11.088  -1.619  1.00  0.00     0.003 A 
HETATM   20  C   UNL     1      42.717 -12.374  -1.835  1.00  0.00     0.009 A 
BRANCH  17  21
HETATM   21  O   UNL     1      41.258  -9.928   1.198  1.00  0.00    -0.356 OA
HETATM   22  C   UNL     1      40.690 -10.491   2.374  1.00  0.00     0.210 C 
ENDBRANCH  17  21
ENDBRANCH   8  15
ENDBRANCH   7   8
ENDBRANCH   3   7
BRANCH   1  23
HETATM   23  C   UNL     1      42.082 -16.947   3.904  1.00  0.00     0.086 C 
HETATM   24  C   UNL     1      41.491 -18.028   4.811  1.00  0.00     0.032 C 
BRANCH  23  25
HETATM   25  C   UNL     1      43.572 -17.245   3.633  1.00  0.00     0.063 C 
BRANCH  25  26
HETATM   26  C   UNL     1      43.849 -18.703   3.341  1.00  0.00    -0.056 A 
HETATM   27  C   UNL     1      44.523 -19.499   4.279  1.00  0.00     0.010 A 
HETATM   28  C   UNL     1      44.773 -20.848   4.015  1.00  0.00     0.037 A 
HETATM   29  C   UNL     1      44.359 -21.396   2.807  1.00  0.00     0.065 A 
HETATM   30  C   UNL     1      43.698 -20.621   1.862  1.00  0.00     0.037 A 
HETATM   31  C   UNL     1      43.436 -19.278   2.131  1.00  0.00     0.010 A 
BRANCH  29  32
HETATM   32  O   UNL     1      44.580 -22.707   2.509  1.00  0.00    -0.361 OA
HETATM   33  H   UNL     1      44.154 -23.256   3.189  1.00  0.00     0.217 HD
ENDBRANCH  29  32
ENDBRANCH  25  26
ENDBRANCH  23  25
ENDBRANCH   1  23
TORSDOF 9
ENDMDL
MODEL 9
REMARK VINA RESULT:      -7.7      1.639      8.279
REMARK  9 active torsions:
REMARK  status: ('A' for Active; 'I' for Inactive)
REMARK    1  A    between atoms: C_2  and  N_3 
REMARK    2  A    between atoms: C_2  and  C_23 
REMARK       I    between atoms: N_3  and  C_4 
REMARK       I    between atoms: C_4  and  N_5 
REMARK    3  A    between atoms: N_5  and  C_6 
REMARK    4  A    between atoms: C_6  and  C_7 
REMARK    5  A    between atoms: C_7  and  N_8 
REMARK    6  A    between atoms: C_7  and  C_14 
REMARK    7  A    between atoms: C_16  and  O_17 
REMARK    8  A    between atoms: C_23  and  C_24 
REMARK    9  A    between atoms: C_27  and  O_28 
ROOT
HETATM    1  N   UNL     1      41.601 -16.913   2.160  1.00  0.00    -0.339 N 
HETATM    2  C   UNL     1      40.753 -15.862   2.334  1.00  0.00     0.316 C 
HETATM    3  N   UNL     1      39.899 -15.700   1.271  1.00  0.00    -0.341 N 
HETATM    4  O   UNL     1      40.796 -15.071   3.267  1.00  0.00    -0.248 OA
HETATM    5  H   UNL     1      41.337 -17.645   1.517  1.00  0.00     0.164 HD
HETATM    6  H   UNL     1      39.729 -16.546   0.744  1.00  0.00     0.164 HD
ENDROOT
BRANCH   3   7
HETATM    7  C   UNL     1      38.783 -14.771   1.374  1.00  0.00     0.162 C 
BRANCH   7   8
HETATM    8  C   UNL     1      38.731 -13.583   0.356  1.00  0.00     0.238 C 
BRANCH   8   9
HETATM    9  N   UNL     1      38.861 -12.189   0.975  1.00  0.00    -0.061 N 
HETATM   10  H   UNL     1      39.472 -11.689   0.317  1.00  0.00     0.280 HD
HETATM   11  C   UNL     1      39.514 -12.046   2.327  1.00  0.00     0.236 C 
HETATM   12  C   UNL     1      38.451 -11.418   3.205  1.00  0.00     0.029 C 
HETATM   13  C   UNL     1      37.695 -10.524   2.246  1.00  0.00     0.029 C 
HETATM   14  C   UNL     1      37.575 -11.379   1.001  1.00  0.00     0.236 C 
ENDBRANCH   8   9
BRANCH   8  15
HETATM   15  C   UNL     1      39.755 -13.762  -0.764  1.00  0.00    -0.023 A 
HETATM   16  C   UNL     1      39.396 -14.497  -1.914  1.00  0.00     0.046 A 
HETATM   17  C   UNL     1      40.306 -14.684  -2.957  1.00  0.00     0.068 A 
HETATM   18  C   UNL     1      41.575 -14.115  -2.869  1.00  0.00     0.037 A 
HETATM   19  C   UNL     1      41.948 -13.384  -1.743  1.00  0.00     0.003 A 
HETATM   20  C   UNL     1      41.044 -13.208  -0.696  1.00  0.00     0.009 A 
BRANCH  17  21
HETATM   21  O   UNL     1      40.072 -15.378  -4.109  1.00  0.00    -0.356 OA
HETATM   22  C   UNL     1      38.855 -16.110  -4.192  1.00  0.00     0.210 C 
ENDBRANCH  17  21
ENDBRANCH   8  15
ENDBRANCH   7   8
ENDBRANCH   3   7
BRANCH   1  23
HETATM   23  C   UNL     1      42.660 -17.230   3.119  1.00  0.00     0.086 C 
HETATM   24  C   UNL     1      42.145 -18.203   4.181  1.00  0.00     0.032 C 
BRANCH  23  25
HETATM   25  C   UNL     1      43.896 -17.827   2.414  1.00  0.00     0.063 C 
BRANCH  25  26
HETATM   26  C   UNL     1      44.106 -19.295   2.712  1.00  0.00    -0.056 A 
HETATM   27  C   UNL     1      43.698 -20.272   1.793  1.00  0.00     0.010 A 
HETATM   28  C   UNL     1      43.900 -21.628   2.063  1.00  0.00     0.037 A 
HETATM   29  C   UNL     1      44.498 -22.005   3.259  1.00  0.00     0.065 A 
HETATM   30  C   UNL     1      44.900 -21.052   4.187  1.00  0.00     0.037 A 
HETATM   31  C   UNL     1      44.712 -19.698   3.911  1.00  0.00     0.010 A 
BRANCH  29  32
HETATM   32  O   UNL     1      44.715 -23.316   3.563  1.00  0.00    -0.361 OA
HETATM   33  H   UNL     1      44.904 -23.798   2.740  1.00  0.00     0.217 HD
ENDBRANCH  29  32
ENDBRANCH  25  26
ENDBRANCH  23  25
ENDBRANCH   1  23
TORSDOF 9
ENDMDL
MODEL 10
REMARK VINA RESULT:      -7.7      2.826      9.379
REMARK  9 active torsions:
REMARK  status: ('A' for Active; 'I' for Inactive)
REMARK    1  A    between atoms: C_2  and  N_3 
REMARK    2  A    between atoms: C_2  and  C_23 
REMARK       I    between atoms: N_3  and  C_4 
REMARK       I    between atoms: C_4  and  N_5 
REMARK    3  A    between atoms: N_5  and  C_6 
REMARK    4  A    between atoms: C_6  and  C_7 
REMARK    5  A    between atoms: C_7  and  N_8 
REMARK    6  A    between atoms: C_7  and  C_14 
REMARK    7  A    between atoms: C_16  and  O_17 
REMARK    8  A    between atoms: C_23  and  C_24 
REMARK    9  A    between atoms: C_27  and  O_28 
ROOT
HETATM    1  N   UNL     1      42.689 -17.964   1.229  1.00  0.00    -0.339 N 
HETATM    2  C   UNL     1      41.943 -16.827   1.301  1.00  0.00     0.316 C 
HETATM    3  N   UNL     1      41.870 -16.174   0.096  1.00  0.00    -0.341 N 
HETATM    4  O   UNL     1      41.472 -16.359   2.330  1.00  0.00    -0.248 OA
HETATM    5  H   UNL     1      42.814 -18.402   0.329  1.00  0.00     0.164 HD
HETATM    6  H   UNL     1      42.000 -16.773  -0.708  1.00  0.00     0.164 HD
ENDROOT
BRANCH   3   7
HETATM    7  C   UNL     1      40.942 -15.065  -0.072  1.00  0.00     0.162 C 
BRANCH   7   8
HETATM    8  C   UNL     1      40.542 -14.667  -1.532  1.00  0.00     0.238 C 
BRANCH   8   9
HETATM    9  N   UNL     1      39.047 -14.427  -1.755  1.00  0.00    -0.061 N 
HETATM   10  H   UNL     1      38.598 -15.084  -1.105  1.00  0.00     0.280 HD
HETATM   11  C   UNL     1      38.452 -14.724  -3.109  1.00  0.00     0.236 C 
HETATM   12  C   UNL     1      37.877 -13.402  -3.577  1.00  0.00     0.029 C 
HETATM   13  C   UNL     1      37.419 -12.750  -2.290  1.00  0.00     0.029 C 
HETATM   14  C   UNL     1      38.549 -13.056  -1.327  1.00  0.00     0.236 C 
ENDBRANCH   8   9
BRANCH   8  15
HETATM   15  C   UNL     1      41.350 -13.468  -2.026  1.00  0.00    -0.023 A 
HETATM   16  C   UNL     1      42.045 -12.674  -1.088  1.00  0.00     0.046 A 
HETATM   17  C   UNL     1      42.792 -11.568  -1.501  1.00  0.00     0.068 A 
HETATM   18  C   UNL     1      42.870 -11.263  -2.859  1.00  0.00     0.037 A 
HETATM   19  C   UNL     1      42.193 -12.035  -3.800  1.00  0.00     0.003 A 
HETATM   20  C   UNL     1      41.436 -13.132  -3.387  1.00  0.00     0.009 A 
BRANCH  17  21
HETATM   21  O   UNL     1      43.498 -10.730  -0.688  1.00  0.00    -0.356 OA
HETATM   22  C   UNL     1      43.902  -9.480  -1.234  1.00  0.00     0.210 C 
ENDBRANCH  17  21
ENDBRANCH   8  15
ENDBRANCH   7   8
ENDBRANCH   3   7
BRANCH   1  23
HETATM   23  C   UNL     1      42.982 -18.782   2.407  1.00  0.00     0.086 C 
HETATM   24  C   UNL     1      43.218 -20.238   2.000  1.00  0.00     0.032 C 
BRANCH  23  25
HETATM   25  C   UNL     1      44.211 -18.245   3.171  1.00  0.00     0.063 C 
BRANCH  25  26
HETATM   26  C   UNL     1      43.985 -18.122   4.661  1.00  0.00    -0.056 A 
HETATM   27  C   UNL     1      42.792 -17.575   5.156  1.00  0.00     0.010 A 
HETATM   28  C   UNL     1      42.577 -17.469   6.533  1.00  0.00     0.037 A 
HETATM   29  C   UNL     1      43.563 -17.898   7.413  1.00  0.00     0.065 A 
HETATM   30  C   UNL     1      44.756 -18.434   6.942  1.00  0.00     0.037 A 
HETATM   31  C   UNL     1      44.964 -18.553   5.568  1.00  0.00     0.010 A 
BRANCH  29  32
HETATM   32  O   UNL     1      43.396 -17.814   8.763  1.00  0.00    -0.361 OA
HETATM   33  H   UNL     1      43.256 -16.882   9.001  1.00  0.00     0.217 HD
ENDBRANCH  29  32
ENDBRANCH  25  26
ENDBRANCH  23  25
ENDBRANCH   1  23
TORSDOF 9
ENDMDL
