MODEL 1
REMARK VINA RESULT:      -8.8      0.000      0.000
REMARK  5 active torsions:
REMARK  status: ('A' for Active; 'I' for Inactive)
REMARK    1  A    between atoms: C_2  and  C_3 
REMARK    2  A    between atoms: C_3  and  C_4 
REMARK       I    between atoms: C_4  and  N_5 
REMARK    3  A    between atoms: N_5  and  C_6 
REMARK    4  A    between atoms: C_13  and  C_14 
REMARK       I    between atoms: C_14  and  N_15 
REMARK    5  A    between atoms: C_22  and  C_23 
ROOT
HETATM    1  C   UNL     1      40.470 -14.571   1.889  1.00  0.00     0.035 A 
HETATM    2  C   UNL     1      40.954 -14.558   0.573  1.00  0.00     0.046 A 
HETATM    3  C   UNL     1      40.052 -14.394  -0.499  1.00  0.00     0.030 A 
HETATM    4  C   UNL     1      38.705 -14.204  -0.218  1.00  0.00     0.063 A 
HETATM    5  N   UNL     1      38.096 -14.083  -1.437  1.00  0.00    -0.277 N 
HETATM    6  H   UNL     1      37.110 -13.933  -1.619  1.00  0.00     0.189 HD
HETATM    7  N   UNL     1      38.923 -14.209  -2.488  1.00  0.00    -0.168 NA
HETATM    8  C   UNL     1      40.138 -14.403  -1.924  1.00  0.00     0.156 A 
HETATM    9  C   UNL     1      38.194 -14.175   1.082  1.00  0.00     0.034 A 
HETATM   10  C   UNL     1      39.104 -14.379   2.128  1.00  0.00     0.032 A 
ENDROOT
BRANCH   1  11
HETATM   11  N   UNL     1      41.290 -14.885   2.994  1.00  0.00    -0.327 N 
HETATM   12  C   UNL     1      42.637 -14.588   3.119  1.00  0.00     0.226 C 
HETATM   13  O   UNL     1      43.218 -13.660   2.563  1.00  0.00    -0.273 OA
HETATM   14  H   UNL     1      40.858 -15.396   3.755  1.00  0.00     0.169 HD
BRANCH  12  15
HETATM   15  C   UNL     1      43.383 -15.576   3.998  1.00  0.00     0.141 C 
BRANCH  15  16
HETATM   16  C   UNL     1      43.577 -16.965   3.443  1.00  0.00    -0.049 A 
HETATM   17  C   UNL     1      43.576 -18.056   4.326  1.00  0.00     0.008 A 
HETATM   18  C   UNL     1      43.618 -19.367   3.846  1.00  0.00     0.017 A 
HETATM   19  C   UNL     1      43.661 -19.619   2.470  1.00  0.00     0.047 A 
HETATM   20  C   UNL     1      43.664 -18.531   1.585  1.00  0.00     0.017 A 
HETATM   21  C   UNL     1      43.619 -17.218   2.066  1.00  0.00     0.008 A 
BRANCH  19  22
HETATM   22  C   UNL     1      43.631 -21.037   1.956  1.00  0.00     0.417 C 
HETATM   23  F   UNL     1      42.383 -21.464   1.617  1.00  0.00    -0.166 F 
HETATM   24  F   UNL     1      44.398 -21.216   0.843  1.00  0.00    -0.166 F 
HETATM   25  F   UNL     1      44.096 -21.930   2.874  1.00  0.00    -0.166 F 
ENDBRANCH  19  22
ENDBRANCH  15  16
ENDBRANCH  12  15
ENDBRANCH   1  11
BRANCH   8  26
HETATM   26  C   UNL     1      41.337 -14.624  -2.745  1.00  0.00     0.270 C 
HETATM   27  N   UNL     1      42.314 -13.681  -2.573  1.00  0.00    -0.365 N 
HETATM   28  H   UNL     1      42.141 -12.914  -1.935  1.00  0.00     0.159 HD
HETATM   29  H   UNL     1      43.157 -13.733  -3.123  1.00  0.00     0.159 HD
HETATM   30  O   UNL     1      41.480 -15.546  -3.541  1.00  0.00    -0.266 OA
ENDBRANCH   8  26
TORSDOF 5
ENDMDL
MODEL 2
REMARK VINA RESULT:      -8.8      3.632      5.025
REMARK  5 active torsions:
REMARK  status: ('A' for Active; 'I' for Inactive)
REMARK    1  A    between atoms: C_2  and  C_3 
REMARK    2  A    between atoms: C_3  and  C_4 
REMARK       I    between atoms: C_4  and  N_5 
REMARK    3  A    between atoms: N_5  and  C_6 
REMARK    4  A    between atoms: C_13  and  C_14 
REMARK       I    between atoms: C_14  and  N_15 
REMARK    5  A    between atoms: C_22  and  C_23 
ROOT
HETATM    1  C   UNL     1      41.861 -15.254   3.760  1.00  0.00     0.035 A 
HETATM    2  C   UNL     1      41.234 -14.007   3.623  1.00  0.00     0.046 A 
HETATM    3  C   UNL     1      40.405 -13.527   4.658  1.00  0.00     0.030 A 
HETATM    4  C   UNL     1      40.264 -14.289   5.812  1.00  0.00     0.063 A 
HETATM    5  N   UNL     1      39.412 -13.579   6.611  1.00  0.00    -0.277 N 
HETATM    6  H   UNL     1      39.083 -13.832   7.536  1.00  0.00     0.189 HD
HETATM    7  N   UNL     1      38.959 -12.436   6.067  1.00  0.00    -0.168 NA
HETATM    8  C   UNL     1      39.564 -12.391   4.857  1.00  0.00     0.156 A 
HETATM    9  C   UNL     1      40.903 -15.518   5.996  1.00  0.00     0.034 A 
HETATM   10  C   UNL     1      41.691 -15.991   4.937  1.00  0.00     0.032 A 
ENDROOT
BRANCH   1  11
HETATM   11  N   UNL     1      42.575 -15.862   2.704  1.00  0.00    -0.327 N 
HETATM   12  C   UNL     1      42.149 -16.942   1.949  1.00  0.00     0.226 C 
HETATM   13  O   UNL     1      40.980 -17.253   1.744  1.00  0.00    -0.273 OA
HETATM   14  H   UNL     1      43.492 -15.487   2.497  1.00  0.00     0.169 HD
BRANCH  12  15
HETATM   15  C   UNL     1      43.297 -17.779   1.413  1.00  0.00     0.141 C 
BRANCH  15  16
HETATM   16  C   UNL     1      43.792 -18.896   2.297  1.00  0.00    -0.049 A 
HETATM   17  C   UNL     1      44.042 -18.630   3.652  1.00  0.00     0.008 A 
HETATM   18  C   UNL     1      44.373 -19.660   4.536  1.00  0.00     0.017 A 
HETATM   19  C   UNL     1      44.458 -20.984   4.086  1.00  0.00     0.047 A 
HETATM   20  C   UNL     1      44.209 -21.252   2.732  1.00  0.00     0.017 A 
HETATM   21  C   UNL     1      43.877 -20.220   1.847  1.00  0.00     0.008 A 
BRANCH  19  22
HETATM   22  C   UNL     1      44.741 -22.100   5.059  1.00  0.00     0.417 C 
HETATM   23  F   UNL     1      44.122 -23.270   4.737  1.00  0.00    -0.166 F 
HETATM   24  F   UNL     1      46.068 -22.398   5.156  1.00  0.00    -0.166 F 
HETATM   25  F   UNL     1      44.336 -21.799   6.325  1.00  0.00    -0.166 F 
ENDBRANCH  19  22
ENDBRANCH  15  16
ENDBRANCH  12  15
ENDBRANCH   1  11
BRANCH   8  26
HETATM   26  C   UNL     1      39.306 -11.295   3.913  1.00  0.00     0.270 C 
HETATM   27  N   UNL     1      37.978 -11.053   3.686  1.00  0.00    -0.365 N 
HETATM   28  H   UNL     1      37.292 -11.637   4.148  1.00  0.00     0.159 HD
HETATM   29  H   UNL     1      37.708 -10.341   3.025  1.00  0.00     0.159 HD
HETATM   30  O   UNL     1      40.175 -10.644   3.343  1.00  0.00    -0.266 OA
ENDBRANCH   8  26
TORSDOF 5
ENDMDL
MODEL 3
REMARK VINA RESULT:      -8.6      2.076      2.574
REMARK  5 active torsions:
REMARK  status: ('A' for Active; 'I' for Inactive)
REMARK    1  A    between atoms: C_2  and  C_3 
REMARK    2  A    between atoms: C_3  and  C_4 
REMARK       I    between atoms: C_4  and  N_5 
REMARK    3  A    between atoms: N_5  and  C_6 
REMARK    4  A    between atoms: C_13  and  C_14 
REMARK       I    between atoms: C_14  and  N_15 
REMARK    5  A    between atoms: C_22  and  C_23 
ROOT
HETATM    1  C   UNL     1      41.578 -15.049  -0.180  1.00  0.00     0.035 A 
HETATM    2  C   UNL     1      41.006 -15.585  -1.343  1.00  0.00     0.046 A 
HETATM    3  C   UNL     1      39.957 -14.893  -1.985  1.00  0.00     0.030 A 
HETATM    4  C   UNL     1      39.546 -13.670  -1.469  1.00  0.00     0.063 A 
HETATM    5  N   UNL     1      38.532 -13.256  -2.287  1.00  0.00    -0.277 N 
HETATM    6  H   UNL     1      37.993 -12.401  -2.213  1.00  0.00     0.189 HD
HETATM    7  N   UNL     1      38.224 -14.116  -3.272  1.00  0.00    -0.168 NA
HETATM    8  C   UNL     1      39.097 -15.136  -3.098  1.00  0.00     0.156 A 
HETATM    9  C   UNL     1      40.119 -13.091  -0.334  1.00  0.00     0.034 A 
HETATM   10  C   UNL     1      41.133 -13.816   0.309  1.00  0.00     0.032 A 
ENDROOT
BRANCH   1  11
HETATM   11  N   UNL     1      42.519 -15.760   0.597  1.00  0.00    -0.327 N 
HETATM   12  C   UNL     1      42.261 -16.412   1.791  1.00  0.00     0.226 C 
HETATM   13  O   UNL     1      41.175 -16.868   2.136  1.00  0.00    -0.273 OA
HETATM   14  H   UNL     1      43.473 -15.774   0.260  1.00  0.00     0.169 HD
BRANCH  12  15
HETATM   15  C   UNL     1      43.473 -16.476   2.704  1.00  0.00     0.141 C 
BRANCH  15  16
HETATM   16  C   UNL     1      43.912 -17.847   3.154  1.00  0.00    -0.049 A 
HETATM   17  C   UNL     1      44.055 -18.097   4.527  1.00  0.00     0.008 A 
HETATM   18  C   UNL     1      44.329 -19.383   4.997  1.00  0.00     0.017 A 
HETATM   19  C   UNL     1      44.463 -20.453   4.103  1.00  0.00     0.047 A 
HETATM   20  C   UNL     1      44.322 -20.205   2.730  1.00  0.00     0.017 A 
HETATM   21  C   UNL     1      44.046 -18.916   2.260  1.00  0.00     0.008 A 
BRANCH  19  22
HETATM   22  C   UNL     1      44.684 -21.853   4.621  1.00  0.00     0.417 C 
HETATM   23  F   UNL     1      44.349 -22.821   3.723  1.00  0.00    -0.166 F 
HETATM   24  F   UNL     1      45.981 -22.095   4.961  1.00  0.00    -0.166 F 
HETATM   25  F   UNL     1      43.952 -22.111   5.741  1.00  0.00    -0.166 F 
ENDBRANCH  19  22
ENDBRANCH  15  16
ENDBRANCH  12  15
ENDBRANCH   1  11
BRANCH   8  26
HETATM   26  C   UNL     1      39.072 -16.322  -3.966  1.00  0.00     0.270 C 
HETATM   27  N   UNL     1      39.252 -17.505  -3.302  1.00  0.00    -0.365 N 
HETATM   28  H   UNL     1      39.407 -17.481  -2.301  1.00  0.00     0.159 HD
HETATM   29  H   UNL     1      39.285 -18.367  -3.823  1.00  0.00     0.159 HD
HETATM   30  O   UNL     1      38.927 -16.294  -5.183  1.00  0.00    -0.266 OA
ENDBRANCH   8  26
TORSDOF 5
ENDMDL
MODEL 4
REMARK VINA RESULT:      -8.6      2.604      3.648
REMARK  5 active torsions:
REMARK  status: ('A' for Active; 'I' for Inactive)
REMARK    1  A    between atoms: C_2  and  C_3 
REMARK    2  A    between atoms: C_3  and  C_4 
REMARK       I    between atoms: C_4  and  N_5 
REMARK    3  A    between atoms: N_5  and  C_6 
REMARK    4  A    between atoms: C_13  and  C_14 
REMARK       I    between atoms: C_14  and  N_15 
REMARK    5  A    between atoms: C_22  and  C_23 
ROOT
HETATM    1  C   UNL     1      41.457 -16.213   5.436  1.00  0.00     0.035 A 
HETATM    2  C   UNL     1      41.522 -16.334   4.040  1.00  0.00     0.046 A 
HETATM    3  C   UNL     1      40.728 -15.494   3.231  1.00  0.00     0.030 A 
HETATM    4  C   UNL     1      39.930 -14.534   3.842  1.00  0.00     0.063 A 
HETATM    5  N   UNL     1      39.289 -13.894   2.817  1.00  0.00    -0.277 N 
HETATM    6  H   UNL     1      38.625 -13.131   2.889  1.00  0.00     0.189 HD
HETATM    7  N   UNL     1      39.574 -14.373   1.595  1.00  0.00    -0.168 NA
HETATM    8  C   UNL     1      40.463 -15.365   1.834  1.00  0.00     0.156 A 
HETATM    9  C   UNL     1      39.869 -14.362   5.227  1.00  0.00     0.034 A 
HETATM   10  C   UNL     1      40.638 -15.234   6.011  1.00  0.00     0.032 A 
ENDROOT
BRANCH   1  11
HETATM   11  N   UNL     1      42.102 -17.119   6.305  1.00  0.00    -0.327 N 
HETATM   12  C   UNL     1      43.391 -16.999   6.796  1.00  0.00     0.226 C 
HETATM   13  O   UNL     1      44.001 -15.945   6.949  1.00  0.00    -0.273 OA
HETATM   14  H   UNL     1      41.581 -17.945   6.574  1.00  0.00     0.169 HD
BRANCH  12  15
HETATM   15  C   UNL     1      44.038 -18.339   7.097  1.00  0.00     0.141 C 
BRANCH  15  16
HETATM   16  C   UNL     1      44.284 -19.253   5.922  1.00  0.00    -0.049 A 
HETATM   17  C   UNL     1      44.328 -20.639   6.137  1.00  0.00     0.008 A 
HETATM   18  C   UNL     1      44.419 -21.528   5.064  1.00  0.00     0.017 A 
HETATM   19  C   UNL     1      44.466 -21.052   3.747  1.00  0.00     0.047 A 
HETATM   20  C   UNL     1      44.422 -19.667   3.530  1.00  0.00     0.017 A 
HETATM   21  C   UNL     1      44.329 -18.777   4.606  1.00  0.00     0.008 A 
BRANCH  19  22
HETATM   22  C   UNL     1      44.488 -22.019   2.590  1.00  0.00     0.417 C 
HETATM   23  F   UNL     1      43.295 -22.113   1.939  1.00  0.00    -0.166 F 
HETATM   24  F   UNL     1      45.405 -21.687   1.638  1.00  0.00    -0.166 F 
HETATM   25  F   UNL     1      44.801 -23.286   2.981  1.00  0.00    -0.166 F 
ENDBRANCH  19  22
ENDBRANCH  15  16
ENDBRANCH  12  15
ENDBRANCH   1  11
BRANCH   8  26
HETATM   26  C   UNL     1      41.010 -16.182   0.742  1.00  0.00     0.270 C 
HETATM   27  N   UNL     1      40.627 -17.495   0.779  1.00  0.00    -0.365 N 
HETATM   28  H   UNL     1      40.034 -17.807   1.539  1.00  0.00     0.159 HD
HETATM   29  H   UNL     1      40.984 -18.137   0.089  1.00  0.00     0.159 HD
HETATM   30  O   UNL     1      41.764 -15.767  -0.132  1.00  0.00    -0.266 OA
ENDBRANCH   8  26
TORSDOF 5
ENDMDL
MODEL 5
REMARK VINA RESULT:      -8.4      3.107      4.859
REMARK  5 active torsions:
REMARK  status: ('A' for Active; 'I' for Inactive)
REMARK    1  A    between atoms: C_2  and  C_3 
REMARK    2  A    between atoms: C_3  and  C_4 
REMARK       I    between atoms: C_4  and  N_5 
REMARK    3  A    between atoms: N_5  and  C_6 
REMARK    4  A    between atoms: C_13  and  C_14 
REMARK       I    between atoms: C_14  and  N_15 
REMARK    5  A    between atoms: C_22  and  C_23 
ROOT
HETATM    1  C   UNL     1      40.706 -15.444   2.797  1.00  0.00     0.035 A 
HETATM    2  C   UNL     1      40.597 -14.710   3.988  1.00  0.00     0.046 A 
HETATM    3  C   UNL     1      39.810 -13.538   4.014  1.00  0.00     0.030 A 
HETATM    4  C   UNL     1      39.126 -13.165   2.863  1.00  0.00     0.063 A 
HETATM    5  N   UNL     1      38.471 -12.011   3.193  1.00  0.00    -0.277 N 
HETATM    6  H   UNL     1      37.870 -11.454   2.597  1.00  0.00     0.189 HD
HETATM    7  N   UNL     1      38.694 -11.582   4.447  1.00  0.00    -0.168 NA
HETATM    8  C   UNL     1      39.523 -12.516   4.967  1.00  0.00     0.156 A 
HETATM    9  C   UNL     1      39.183 -13.893   1.672  1.00  0.00     0.034 A 
HETATM   10  C   UNL     1      40.002 -15.031   1.660  1.00  0.00     0.032 A 
ENDROOT
BRANCH   1  11
HETATM   11  N   UNL     1      41.594 -16.531   2.658  1.00  0.00    -0.327 N 
HETATM   12  C   UNL     1      42.939 -16.448   2.337  1.00  0.00     0.226 C 
HETATM   13  O   UNL     1      43.668 -15.487   2.559  1.00  0.00    -0.273 OA
HETATM   14  H   UNL     1      41.206 -17.458   2.783  1.00  0.00     0.169 HD
BRANCH  12  15
HETATM   15  C   UNL     1      43.450 -17.678   1.607  1.00  0.00     0.141 C 
BRANCH  15  16
HETATM   16  C   UNL     1      43.913 -18.831   2.463  1.00  0.00    -0.049 A 
HETATM   17  C   UNL     1      44.080 -18.629   3.841  1.00  0.00     0.008 A 
HETATM   18  C   UNL     1      44.376 -19.697   4.691  1.00  0.00     0.017 A 
HETATM   19  C   UNL     1      44.511 -20.995   4.183  1.00  0.00     0.047 A 
HETATM   20  C   UNL     1      44.346 -21.199   2.805  1.00  0.00     0.017 A 
HETATM   21  C   UNL     1      44.047 -20.128   1.954  1.00  0.00     0.008 A 
BRANCH  19  22
HETATM   22  C   UNL     1      44.757 -22.154   5.115  1.00  0.00     0.417 C 
HETATM   23  F   UNL     1      44.374 -21.908   6.399  1.00  0.00    -0.166 F 
HETATM   24  F   UNL     1      44.094 -23.286   4.742  1.00  0.00    -0.166 F 
HETATM   25  F   UNL     1      46.074 -22.499   5.177  1.00  0.00    -0.166 F 
ENDBRANCH  19  22
ENDBRANCH  15  16
ENDBRANCH  12  15
ENDBRANCH   1  11
BRANCH   8  26
HETATM   26  C   UNL     1      40.043 -12.400   6.337  1.00  0.00     0.270 C 
HETATM   27  N   UNL     1      39.213 -12.915   7.296  1.00  0.00    -0.365 N 
HETATM   28  H   UNL     1      38.323 -13.305   7.010  1.00  0.00     0.159 HD
HETATM   29  H   UNL     1      39.474 -12.847   8.267  1.00  0.00     0.159 HD
HETATM   30  O   UNL     1      41.111 -11.877   6.638  1.00  0.00    -0.266 OA
ENDBRANCH   8  26
TORSDOF 5
ENDMDL
MODEL 6
REMARK VINA RESULT:      -8.4      2.854      3.651
REMARK  5 active torsions:
REMARK  status: ('A' for Active; 'I' for Inactive)
REMARK    1  A    between atoms: C_2  and  C_3 
REMARK    2  A    between atoms: C_3  and  C_4 
REMARK       I    between atoms: C_4  and  N_5 
REMARK    3  A    between atoms: N_5  and  C_6 
REMARK    4  A    between atoms: C_13  and  C_14 
REMARK       I    between atoms: C_14  and  N_15 
REMARK    5  A    between atoms: C_22  and  C_23 
ROOT
HETATM    1  C   UNL     1      40.874 -15.674   3.980  1.00  0.00     0.035 A 
HETATM    2  C   UNL     1      40.395 -14.358   4.056  1.00  0.00     0.046 A 
HETATM    3  C   UNL     1      39.619 -13.838   2.999  1.00  0.00     0.030 A 
HETATM    4  C   UNL     1      39.312 -14.662   1.924  1.00  0.00     0.063 A 
HETATM    5  N   UNL     1      38.568 -13.888   1.077  1.00  0.00    -0.277 N 
HETATM    6  H   UNL     1      38.168 -14.161   0.187  1.00  0.00     0.189 HD
HETATM    7  N   UNL     1      38.390 -12.622   1.491  1.00  0.00    -0.168 NA
HETATM    8  C   UNL     1      39.037 -12.574   2.679  1.00  0.00     0.156 A 
HETATM    9  C   UNL     1      39.742 -15.988   1.834  1.00  0.00     0.034 A 
HETATM   10  C   UNL     1      40.544 -16.471   2.878  1.00  0.00     0.032 A 
ENDROOT
BRANCH   1  11
HETATM   11  N   UNL     1      41.781 -16.205   4.923  1.00  0.00    -0.327 N 
HETATM   12  C   UNL     1      43.130 -15.908   5.010  1.00  0.00     0.226 C 
HETATM   13  O   UNL     1      43.658 -14.866   4.634  1.00  0.00    -0.273 OA
HETATM   14  H   UNL     1      41.414 -16.883   5.580  1.00  0.00     0.169 HD
BRANCH  12  15
HETATM   15  C   UNL     1      43.951 -17.047   5.588  1.00  0.00     0.141 C 
BRANCH  15  16
HETATM   16  C   UNL     1      44.163 -18.249   4.702  1.00  0.00    -0.049 A 
HETATM   17  C   UNL     1      44.565 -19.461   5.284  1.00  0.00     0.008 A 
HETATM   18  C   UNL     1      44.644 -20.630   4.525  1.00  0.00     0.017 A 
HETATM   19  C   UNL     1      44.320 -20.617   3.163  1.00  0.00     0.047 A 
HETATM   20  C   UNL     1      43.919 -19.407   2.578  1.00  0.00     0.017 A 
HETATM   21  C   UNL     1      43.838 -18.236   3.340  1.00  0.00     0.008 A 
BRANCH  19  22
HETATM   22  C   UNL     1      44.334 -21.897   2.366  1.00  0.00     0.417 C 
HETATM   23  F   UNL     1      43.185 -22.113   1.667  1.00  0.00    -0.166 F 
HETATM   24  F   UNL     1      45.340 -21.940   1.446  1.00  0.00    -0.166 F 
HETATM   25  F   UNL     1      44.505 -22.995   3.154  1.00  0.00    -0.166 F 
ENDBRANCH  19  22
ENDBRANCH  15  16
ENDBRANCH  12  15
ENDBRANCH   1  11
BRANCH   8  26
HETATM   26  C   UNL     1      39.112 -11.332   3.460  1.00  0.00     0.270 C 
HETATM   27  N   UNL     1      37.926 -10.956   4.029  1.00  0.00    -0.365 N 
HETATM   28  H   UNL     1      37.105 -11.524   3.861  1.00  0.00     0.159 HD
HETATM   29  H   UNL     1      37.877 -10.097   4.554  1.00  0.00     0.159 HD
HETATM   30  O   UNL     1      40.124 -10.652   3.597  1.00  0.00    -0.266 OA
ENDBRANCH   8  26
TORSDOF 5
ENDMDL
MODEL 7
REMARK VINA RESULT:      -8.4      2.347      3.010
REMARK  5 active torsions:
REMARK  status: ('A' for Active; 'I' for Inactive)
REMARK    1  A    between atoms: C_2  and  C_3 
REMARK    2  A    between atoms: C_3  and  C_4 
REMARK       I    between atoms: C_4  and  N_5 
REMARK    3  A    between atoms: N_5  and  C_6 
REMARK    4  A    between atoms: C_13  and  C_14 
REMARK       I    between atoms: C_14  and  N_15 
REMARK    5  A    between atoms: C_22  and  C_23 
ROOT
HETATM    1  C   UNL     1      41.365 -15.110   0.278  1.00  0.00     0.035 A 
HETATM    2  C   UNL     1      40.618 -14.789  -0.865  1.00  0.00     0.046 A 
HETATM    3  C   UNL     1      39.488 -13.952  -0.745  1.00  0.00     0.030 A 
HETATM    4  C   UNL     1      39.170 -13.430   0.503  1.00  0.00     0.063 A 
HETATM    5  N   UNL     1      38.046 -12.678   0.303  1.00  0.00    -0.277 N 
HETATM    6  H   UNL     1      37.531 -12.146   0.996  1.00  0.00     0.189 HD
HETATM    7  N   UNL     1      37.585 -12.689  -0.959  1.00  0.00    -0.168 NA
HETATM    8  C   UNL     1      38.466 -13.475  -1.620  1.00  0.00     0.156 A 
HETATM    9  C   UNL     1      39.914 -13.700   1.654  1.00  0.00     0.034 A 
HETATM   10  C   UNL     1      41.009 -14.565   1.517  1.00  0.00     0.032 A 
ENDROOT
BRANCH   1  11
HETATM   11  N   UNL     1      42.408 -16.061   0.257  1.00  0.00    -0.327 N 
HETATM   12  C   UNL     1      42.425 -17.266   0.939  1.00  0.00     0.226 C 
HETATM   13  O   UNL     1      41.435 -17.907   1.280  1.00  0.00    -0.273 OA
HETATM   14  H   UNL     1      43.228 -15.829  -0.290  1.00  0.00     0.169 HD
BRANCH  12  15
HETATM   15  C   UNL     1      43.828 -17.727   1.293  1.00  0.00     0.141 C 
BRANCH  15  16
HETATM   16  C   UNL     1      43.942 -18.835   2.309  1.00  0.00    -0.049 A 
HETATM   17  C   UNL     1      44.064 -20.159   1.860  1.00  0.00     0.008 A 
HETATM   18  C   UNL     1      44.306 -21.201   2.758  1.00  0.00     0.017 A 
HETATM   19  C   UNL     1      44.434 -20.944   4.129  1.00  0.00     0.047 A 
HETATM   20  C   UNL     1      44.311 -19.621   4.580  1.00  0.00     0.017 A 
HETATM   21  C   UNL     1      44.071 -18.578   3.680  1.00  0.00     0.008 A 
BRANCH  19  22
HETATM   22  C   UNL     1      44.769 -22.062   5.083  1.00  0.00     0.417 C 
HETATM   23  F   UNL     1      44.428 -21.793   6.374  1.00  0.00    -0.166 F 
HETATM   24  F   UNL     1      44.144 -23.233   4.772  1.00  0.00    -0.166 F 
HETATM   25  F   UNL     1      46.102 -22.346   5.100  1.00  0.00    -0.166 F 
ENDBRANCH  19  22
ENDBRANCH  15  16
ENDBRANCH  12  15
ENDBRANCH   1  11
BRANCH   8  26
HETATM   26  C   UNL     1      38.300 -13.778  -3.048  1.00  0.00     0.270 C 
HETATM   27  N   UNL     1      38.995 -12.944  -3.882  1.00  0.00    -0.365 N 
HETATM   28  H   UNL     1      39.536 -12.191  -3.474  1.00  0.00     0.159 HD
HETATM   29  H   UNL     1      38.912 -13.057  -4.880  1.00  0.00     0.159 HD
HETATM   30  O   UNL     1      37.595 -14.676  -3.495  1.00  0.00    -0.266 OA
ENDBRANCH   8  26
TORSDOF 5
ENDMDL
MODEL 8
REMARK VINA RESULT:      -8.3      5.057      8.160
REMARK  5 active torsions:
REMARK  status: ('A' for Active; 'I' for Inactive)
REMARK    1  A    between atoms: C_2  and  C_3 
REMARK    2  A    between atoms: C_3  and  C_4 
REMARK       I    between atoms: C_4  and  N_5 
REMARK    3  A    between atoms: N_5  and  C_6 
REMARK    4  A    between atoms: C_13  and  C_14 
REMARK       I    between atoms: C_14  and  N_15 
REMARK    5  A    between atoms: C_22  and  C_23 
ROOT
HETATM    1  C   UNL     1      43.636 -17.934   3.458  1.00  0.00     0.035 A 
HETATM    2  C   UNL     1      44.083 -19.059   4.167  1.00  0.00     0.046 A 
HETATM    3  C   UNL     1      44.216 -20.295   3.499  1.00  0.00     0.030 A 
HETATM    4  C   UNL     1      43.940 -20.354   2.138  1.00  0.00     0.063 A 
HETATM    5  N   UNL     1      44.150 -21.658   1.785  1.00  0.00    -0.277 N 
HETATM    6  H   UNL     1      44.046 -22.070   0.865  1.00  0.00     0.189 HD
HETATM    7  N   UNL     1      44.508 -22.461   2.801  1.00  0.00    -0.168 NA
HETATM    8  C   UNL     1      44.551 -21.632   3.870  1.00  0.00     0.156 A 
HETATM    9  C   UNL     1      43.528 -19.245   1.395  1.00  0.00     0.034 A 
HETATM   10  C   UNL     1      43.366 -18.038   2.089  1.00  0.00     0.032 A 
ENDROOT
BRANCH   1  11
HETATM   11  N   UNL     1      43.332 -16.711   4.095  1.00  0.00    -0.327 N 
HETATM   12  C   UNL     1      42.224 -16.458   4.885  1.00  0.00     0.226 C 
HETATM   13  O   UNL     1      41.595 -17.297   5.523  1.00  0.00    -0.273 OA
HETATM   14  H   UNL     1      43.973 -15.943   3.939  1.00  0.00     0.169 HD
BRANCH  12  15
HETATM   15  C   UNL     1      41.797 -15.001   4.857  1.00  0.00     0.141 C 
BRANCH  15  16
HETATM   16  C   UNL     1      40.841 -14.595   3.764  1.00  0.00    -0.049 A 
HETATM   17  C   UNL     1      40.373 -15.573   2.873  1.00  0.00     0.008 A 
HETATM   18  C   UNL     1      39.387 -15.272   1.931  1.00  0.00     0.017 A 
HETATM   19  C   UNL     1      38.841 -13.984   1.859  1.00  0.00     0.047 A 
HETATM   20  C   UNL     1      39.308 -13.004   2.748  1.00  0.00     0.017 A 
HETATM   21  C   UNL     1      40.295 -13.307   3.693  1.00  0.00     0.008 A 
BRANCH  19  22
HETATM   22  C   UNL     1      37.724 -13.685   0.891  1.00  0.00     0.417 C 
HETATM   23  F   UNL     1      38.133 -13.623  -0.406  1.00  0.00    -0.166 F 
HETATM   24  F   UNL     1      36.730 -14.619   0.921  1.00  0.00    -0.166 F 
HETATM   25  F   UNL     1      37.119 -12.492   1.151  1.00  0.00    -0.166 F 
ENDBRANCH  19  22
ENDBRANCH  15  16
ENDBRANCH  12  15
ENDBRANCH   1  11
BRANCH   8  26
HETATM   26  C   UNL     1      44.877 -22.131   5.213  1.00  0.00     0.270 C 
HETATM   27  N   UNL     1      45.800 -23.141   5.227  1.00  0.00    -0.365 N 
HETATM   28  H   UNL     1      46.164 -23.478   4.344  1.00  0.00     0.159 HD
HETATM   29  H   UNL     1      46.057 -23.568   6.103  1.00  0.00     0.159 HD
HETATM   30  O   UNL     1      44.373 -21.720   6.253  1.00  0.00    -0.266 OA
ENDBRANCH   8  26
TORSDOF 5
ENDMDL
MODEL 9
REMARK VINA RESULT:      -8.2      2.679      3.930
REMARK  5 active torsions:
REMARK  status: ('A' for Active; 'I' for Inactive)
REMARK    1  A    between atoms: C_2  and  C_3 
REMARK    2  A    between atoms: C_3  and  C_4 
REMARK       I    between atoms: C_4  and  N_5 
REMARK    3  A    between atoms: N_5  and  C_6 
REMARK    4  A    between atoms: C_13  and  C_14 
REMARK       I    between atoms: C_14  and  N_15 
REMARK    5  A    between atoms: C_22  and  C_23 
ROOT
HETATM    1  C   UNL     1      40.901 -14.674  -1.116  1.00  0.00     0.035 A 
HETATM    2  C   UNL     1      41.411 -13.381  -0.930  1.00  0.00     0.046 A 
HETATM    3  C   UNL     1      41.811 -12.623  -2.051  1.00  0.00     0.030 A 
HETATM    4  C   UNL     1      41.647 -13.166  -3.320  1.00  0.00     0.063 A 
HETATM    5  N   UNL     1      42.122 -12.216  -4.181  1.00  0.00    -0.277 N 
HETATM    6  H   UNL     1      42.159 -12.268  -5.193  1.00  0.00     0.189 HD
HETATM    7  N   UNL     1      42.609 -11.115  -3.585  1.00  0.00    -0.168 NA
HETATM    8  C   UNL     1      42.426 -11.353  -2.265  1.00  0.00     0.156 A 
HETATM    9  C   UNL     1      41.109 -14.436  -3.542  1.00  0.00     0.034 A 
HETATM   10  C   UNL     1      40.755 -15.184  -2.410  1.00  0.00     0.032 A 
ENDROOT
BRANCH   1  11
HETATM   11  N   UNL     1      40.629 -15.542  -0.036  1.00  0.00    -0.327 N 
HETATM   12  C   UNL     1      41.572 -16.168   0.763  1.00  0.00     0.226 C 
HETATM   13  O   UNL     1      42.708 -15.758   0.980  1.00  0.00    -0.273 OA
HETATM   14  H   UNL     1      39.655 -15.742   0.157  1.00  0.00     0.169 HD
BRANCH  12  15
HETATM   15  C   UNL     1      41.082 -17.487   1.333  1.00  0.00     0.141 C 
BRANCH  15  16
HETATM   16  C   UNL     1      41.952 -18.138   2.380  1.00  0.00    -0.049 A 
HETATM   17  C   UNL     1      42.966 -19.017   1.970  1.00  0.00     0.008 A 
HETATM   18  C   UNL     1      43.879 -19.537   2.890  1.00  0.00     0.017 A 
HETATM   19  C   UNL     1      43.801 -19.189   4.244  1.00  0.00     0.047 A 
HETATM   20  C   UNL     1      42.788 -18.311   4.657  1.00  0.00     0.017 A 
HETATM   21  C   UNL     1      41.875 -17.789   3.734  1.00  0.00     0.008 A 
BRANCH  19  22
HETATM   22  C   UNL     1      44.835 -19.694   5.219  1.00  0.00     0.417 C 
HETATM   23  F   UNL     1      45.679 -20.618   4.682  1.00  0.00    -0.166 F 
HETATM   24  F   UNL     1      45.633 -18.704   5.709  1.00  0.00    -0.166 F 
HETATM   25  F   UNL     1      44.272 -20.290   6.308  1.00  0.00    -0.166 F 
ENDBRANCH  19  22
ENDBRANCH  15  16
ENDBRANCH  12  15
ENDBRANCH   1  11
BRANCH   8  26
HETATM   26  C   UNL     1      42.863 -10.389  -1.246  1.00  0.00     0.270 C 
HETATM   27  N   UNL     1      41.869  -9.569  -0.787  1.00  0.00    -0.365 N 
HETATM   28  H   UNL     1      40.941  -9.663  -1.183  1.00  0.00     0.159 HD
HETATM   29  H   UNL     1      42.086  -8.853  -0.112  1.00  0.00     0.159 HD
HETATM   30  O   UNL     1      44.013 -10.284  -0.831  1.00  0.00    -0.266 OA
ENDBRANCH   8  26
TORSDOF 5
ENDMDL
MODEL 10
REMARK VINA RESULT:      -8.1      2.329      3.413
REMARK  5 active torsions:
REMARK  status: ('A' for Active; 'I' for Inactive)
REMARK    1  A    between atoms: C_2  and  C_3 
REMARK    2  A    between atoms: C_3  and  C_4 
REMARK       I    between atoms: C_4  and  N_5 
REMARK    3  A    between atoms: N_5  and  C_6 
REMARK    4  A    between atoms: C_13  and  C_14 
REMARK       I    between atoms: C_14  and  N_15 
REMARK    5  A    between atoms: C_22  and  C_23 
ROOT
HETATM    1  C   UNL     1      41.059 -15.497  -0.971  1.00  0.00     0.035 A 
HETATM    2  C   UNL     1      40.113 -14.598  -0.456  1.00  0.00     0.046 A 
HETATM    3  C   UNL     1      39.175 -14.002  -1.325  1.00  0.00     0.030 A 
HETATM    4  C   UNL     1      39.186 -14.357  -2.668  1.00  0.00     0.063 A 
HETATM    5  N   UNL     1      38.185 -13.623  -3.242  1.00  0.00    -0.277 N 
HETATM    6  H   UNL     1      37.902 -13.626  -4.216  1.00  0.00     0.189 HD
HETATM    7  N   UNL     1      37.543 -12.798  -2.398  1.00  0.00    -0.168 NA
HETATM    8  C   UNL     1      38.146 -13.020  -1.207  1.00  0.00     0.156 A 
HETATM    9  C   UNL     1      40.090 -15.276  -3.206  1.00  0.00     0.034 A 
HETATM   10  C   UNL     1      41.037 -15.825  -2.331  1.00  0.00     0.032 A 
ENDROOT
BRANCH   1  11
HETATM   11  N   UNL     1      42.120 -16.008  -0.191  1.00  0.00    -0.327 N 
HETATM   12  C   UNL     1      41.992 -16.724   0.987  1.00  0.00     0.226 C 
HETATM   13  O   UNL     1      41.024 -17.407   1.306  1.00  0.00    -0.273 OA
HETATM   14  H   UNL     1      43.060 -15.811  -0.512  1.00  0.00     0.169 HD
BRANCH  12  15
HETATM   15  C   UNL     1      43.178 -16.547   1.919  1.00  0.00     0.141 C 
BRANCH  15  16
HETATM   16  C   UNL     1      43.699 -17.790   2.597  1.00  0.00    -0.049 A 
HETATM   17  C   UNL     1      43.776 -17.816   3.998  1.00  0.00     0.008 A 
HETATM   18  C   UNL     1      44.123 -18.988   4.675  1.00  0.00     0.017 A 
HETATM   19  C   UNL     1      44.400 -20.163   3.966  1.00  0.00     0.047 A 
HETATM   20  C   UNL     1      44.325 -20.139   2.565  1.00  0.00     0.017 A 
HETATM   21  C   UNL     1      43.975 -18.965   1.888  1.00  0.00     0.008 A 
BRANCH  19  22
HETATM   22  C   UNL     1      44.702 -21.443   4.705  1.00  0.00     0.417 C 
HETATM   23  F   UNL     1      44.284 -22.560   4.046  1.00  0.00    -0.166 F 
HETATM   24  F   UNL     1      46.033 -21.624   4.934  1.00  0.00    -0.166 F 
HETATM   25  F   UNL     1      44.105 -21.486   5.929  1.00  0.00    -0.166 F 
ENDBRANCH  19  22
ENDBRANCH  15  16
ENDBRANCH  12  15
ENDBRANCH   1  11
BRANCH   8  26
HETATM   26  C   UNL     1      37.755 -12.277  -0.001  1.00  0.00     0.270 C 
HETATM   27  N   UNL     1      37.006 -13.002   0.885  1.00  0.00    -0.365 N 
HETATM   28  H   UNL     1      36.763 -13.956   0.649  1.00  0.00     0.159 HD
HETATM   29  H   UNL     1      36.664 -12.561   1.725  1.00  0.00     0.159 HD
HETATM   30  O   UNL     1      38.036 -11.103   0.219  1.00  0.00    -0.266 OA
ENDBRANCH   8  26
TORSDOF 5
ENDMDL
