MODEL 1
REMARK VINA RESULT:      -7.6      0.000      0.000
REMARK  11 active torsions:
REMARK  status: ('A' for Active; 'I' for Inactive)
REMARK    1  A    between atoms: C_2  and  O_3 
REMARK    2  A    between atoms: O_3  and  C_4 
REMARK    3  A    between atoms: C_7  and  C_8 
REMARK       I    between atoms: C_8  and  N_9 
REMARK    4  A    between atoms: N_9  and  C_10 
REMARK    5  A    between atoms: C_10  and  N_11 
REMARK    6  A    between atoms: N_11  and  C_12 
REMARK    7  A    between atoms: C_13  and  C_14 
REMARK       I    between atoms: C_14  and  N_15 
REMARK    8  A    between atoms: N_15  and  C_16 
REMARK    9  A    between atoms: C_16  and  C_17 
REMARK   10  A    between atoms: C_17  and  C_18 
REMARK   11  A    between atoms: C_18  and  O_19 
ROOT
HETATM    1  N   UNL     1      41.850 -13.799   4.901  1.00  0.00    -0.332 N 
HETATM    2  H   UNL     1      41.236 -13.059   5.234  1.00  0.00     0.168 HD
ENDROOT
BRANCH   1   3
HETATM    3  C   UNL     1      42.096 -13.748   3.528  1.00  0.00     0.179 C 
HETATM    4  S   UNL     1      41.663 -12.479   2.528  1.00  0.00    -0.040 SA
BRANCH   3   5
HETATM    5  N   UNL     1      42.812 -14.891   3.149  1.00  0.00    -0.299 N 
HETATM    6  C   UNL     1      42.389 -15.938   2.333  1.00  0.00     0.257 C 
HETATM    7  O   UNL     1      41.608 -15.837   1.394  1.00  0.00    -0.267 OA
HETATM    8  H   UNL     1      43.525 -15.119   3.825  1.00  0.00     0.171 HD
BRANCH   6   9
HETATM    9  C   UNL     1      43.017 -17.262   2.589  1.00  0.00     0.032 A 
HETATM   10  C   UNL     1      43.021 -18.193   1.544  1.00  0.00     0.020 A 
HETATM   11  C   UNL     1      43.602 -19.454   1.716  1.00  0.00     0.038 A 
HETATM   12  C   UNL     1      44.197 -19.787   2.931  1.00  0.00     0.068 A 
HETATM   13  C   UNL     1      44.193 -18.856   3.975  1.00  0.00     0.038 A 
HETATM   14  C   UNL     1      43.613 -17.594   3.809  1.00  0.00     0.020 A 
BRANCH  12  15
HETATM   15  O   UNL     1      44.811 -20.974   3.225  1.00  0.00    -0.352 OA
BRANCH  15  16
HETATM   16  C   UNL     1      45.152 -21.202   4.593  1.00  0.00     0.171 C 
HETATM   17  C   UNL     1      44.723 -22.613   4.955  1.00  0.00     0.034 C 
ENDBRANCH  15  16
ENDBRANCH  12  15
ENDBRANCH   6   9
ENDBRANCH   3   5
ENDBRANCH   1   3
BRANCH   1  18
HETATM   18  C   UNL     1      41.990 -14.908   5.777  1.00  0.00     0.050 A 
HETATM   19  C   UNL     1      43.177 -15.097   6.508  1.00  0.00     0.058 A 
HETATM   20  C   UNL     1      43.370 -16.263   7.265  1.00  0.00     0.019 A 
HETATM   21  C   UNL     1      42.375 -17.237   7.317  1.00  0.00     0.001 A 
HETATM   22  C   UNL     1      41.192 -17.053   6.606  1.00  0.00     0.002 A 
HETATM   23  C   UNL     1      41.004 -15.903   5.834  1.00  0.00     0.030 A 
BRANCH  19  24
HETATM   24  C   UNL     1      44.256 -14.078   6.571  1.00  0.00     0.253 C 
HETATM   25  N   UNL     1      44.567 -13.621   7.837  1.00  0.00    -0.357 N 
HETATM   26  H   UNL     1      44.182 -14.124   8.632  1.00  0.00     0.162 HD
HETATM   27  O   UNL     1      44.832 -13.719   5.553  1.00  0.00    -0.268 OA
BRANCH  25  28
HETATM   28  C   UNL     1      45.732 -12.789   8.070  1.00  0.00     0.125 C 
BRANCH  28  29
HETATM   29  C   UNL     1      45.498 -11.809   9.215  1.00  0.00     0.046 C 
BRANCH  29  30
HETATM   30  C   UNL     1      44.127 -12.006   9.843  1.00  0.00     0.165 C 
BRANCH  30  31
HETATM   31  O   UNL     1      44.129 -13.163  10.670  1.00  0.00    -0.401 OA
HETATM   32  H   UNL     1      43.250 -13.575  10.611  1.00  0.00     0.209 HD
ENDBRANCH  30  31
ENDBRANCH  29  30
ENDBRANCH  28  29
ENDBRANCH  25  28
ENDBRANCH  19  24
ENDBRANCH   1  18
TORSDOF 11
ENDMDL
MODEL 2
REMARK VINA RESULT:      -7.0      3.342      7.433
REMARK  11 active torsions:
REMARK  status: ('A' for Active; 'I' for Inactive)
REMARK    1  A    between atoms: C_2  and  O_3 
REMARK    2  A    between atoms: O_3  and  C_4 
REMARK    3  A    between atoms: C_7  and  C_8 
REMARK       I    between atoms: C_8  and  N_9 
REMARK    4  A    between atoms: N_9  and  C_10 
REMARK    5  A    between atoms: C_10  and  N_11 
REMARK    6  A    between atoms: N_11  and  C_12 
REMARK    7  A    between atoms: C_13  and  C_14 
REMARK       I    between atoms: C_14  and  N_15 
REMARK    8  A    between atoms: N_15  and  C_16 
REMARK    9  A    between atoms: C_16  and  C_17 
REMARK   10  A    between atoms: C_17  and  C_18 
REMARK   11  A    between atoms: C_18  and  O_19 
ROOT
HETATM    1  N   UNL     1      44.369 -18.754   5.001  1.00  0.00    -0.332 N 
HETATM    2  H   UNL     1      45.189 -18.152   4.979  1.00  0.00     0.168 HD
ENDROOT
BRANCH   1   3
HETATM    3  C   UNL     1      43.713 -18.762   6.233  1.00  0.00     0.179 C 
HETATM    4  S   UNL     1      43.918 -19.927   7.415  1.00  0.00    -0.040 SA
BRANCH   3   5
HETATM    5  N   UNL     1      42.916 -17.615   6.334  1.00  0.00    -0.299 N 
HETATM    6  C   UNL     1      41.861 -17.226   5.512  1.00  0.00     0.257 C 
HETATM    7  O   UNL     1      41.092 -17.987   4.934  1.00  0.00    -0.267 OA
HETATM    8  H   UNL     1      43.404 -16.869   6.808  1.00  0.00     0.171 HD
BRANCH   6   9
HETATM    9  C   UNL     1      41.614 -15.763   5.411  1.00  0.00     0.032 A 
HETATM   10  C   UNL     1      42.651 -14.961   4.917  1.00  0.00     0.020 A 
HETATM   11  C   UNL     1      42.482 -13.579   4.788  1.00  0.00     0.038 A 
HETATM   12  C   UNL     1      41.269 -12.989   5.139  1.00  0.00     0.068 A 
HETATM   13  C   UNL     1      40.234 -13.790   5.631  1.00  0.00     0.038 A 
HETATM   14  C   UNL     1      40.396 -15.174   5.762  1.00  0.00     0.020 A 
BRANCH  12  15
HETATM   15  O   UNL     1      40.969 -11.657   5.049  1.00  0.00    -0.352 OA
BRANCH  15  16
HETATM   16  C   UNL     1      40.492 -11.022   6.235  1.00  0.00     0.171 C 
HETATM   17  C   UNL     1      41.666 -10.852   7.182  1.00  0.00     0.034 C 
ENDBRANCH  15  16
ENDBRANCH  12  15
ENDBRANCH   6   9
ENDBRANCH   3   5
ENDBRANCH   1   3
BRANCH   1  18
HETATM   18  C   UNL     1      44.303 -19.721   3.963  1.00  0.00     0.050 A 
HETATM   19  C   UNL     1      43.724 -19.399   2.721  1.00  0.00     0.058 A 
HETATM   20  C   UNL     1      43.532 -20.391   1.747  1.00  0.00     0.019 A 
HETATM   21  C   UNL     1      43.934 -21.702   1.993  1.00  0.00     0.001 A 
HETATM   22  C   UNL     1      44.518 -22.027   3.214  1.00  0.00     0.002 A 
HETATM   23  C   UNL     1      44.692 -21.047   4.197  1.00  0.00     0.030 A 
BRANCH  19  24
HETATM   24  C   UNL     1      43.338 -18.015   2.346  1.00  0.00     0.253 C 
HETATM   25  N   UNL     1      42.048 -17.867   1.874  1.00  0.00    -0.357 N 
HETATM   26  H   UNL     1      41.409 -18.650   1.982  1.00  0.00     0.162 HD
HETATM   27  O   UNL     1      44.124 -17.089   2.492  1.00  0.00    -0.268 OA
BRANCH  25  28
HETATM   28  C   UNL     1      41.470 -16.552   1.670  1.00  0.00     0.125 C 
BRANCH  28  29
HETATM   29  C   UNL     1      40.001 -16.519   2.079  1.00  0.00     0.046 C 
BRANCH  29  30
HETATM   30  C   UNL     1      39.472 -15.093   2.135  1.00  0.00     0.165 C 
BRANCH  30  31
HETATM   31  O   UNL     1      38.382 -14.940   1.236  1.00  0.00    -0.401 OA
HETATM   32  H   UNL     1      37.568 -14.855   1.763  1.00  0.00     0.209 HD
ENDBRANCH  30  31
ENDBRANCH  29  30
ENDBRANCH  28  29
ENDBRANCH  25  28
ENDBRANCH  19  24
ENDBRANCH   1  18
TORSDOF 11
ENDMDL
MODEL 3
REMARK VINA RESULT:      -6.8      3.013      5.275
REMARK  11 active torsions:
REMARK  status: ('A' for Active; 'I' for Inactive)
REMARK    1  A    between atoms: C_2  and  O_3 
REMARK    2  A    between atoms: O_3  and  C_4 
REMARK    3  A    between atoms: C_7  and  C_8 
REMARK       I    between atoms: C_8  and  N_9 
REMARK    4  A    between atoms: N_9  and  C_10 
REMARK    5  A    between atoms: C_10  and  N_11 
REMARK    6  A    between atoms: N_11  and  C_12 
REMARK    7  A    between atoms: C_13  and  C_14 
REMARK       I    between atoms: C_14  and  N_15 
REMARK    8  A    between atoms: N_15  and  C_16 
REMARK    9  A    between atoms: C_16  and  C_17 
REMARK   10  A    between atoms: C_17  and  C_18 
REMARK   11  A    between atoms: C_18  and  O_19 
ROOT
HETATM    1  N   UNL     1      43.968 -12.680   8.402  1.00  0.00    -0.332 N 
HETATM    2  H   UNL     1      43.241 -13.361   8.198  1.00  0.00     0.168 HD
ENDROOT
BRANCH   1   3
HETATM    3  C   UNL     1      45.197 -12.978   7.811  1.00  0.00     0.179 C 
HETATM    4  S   UNL     1      46.602 -12.098   8.032  1.00  0.00    -0.040 SA
BRANCH   3   5
HETATM    5  N   UNL     1      45.071 -14.158   7.065  1.00  0.00    -0.299 N 
HETATM    6  C   UNL     1      43.913 -14.716   6.530  1.00  0.00     0.257 C 
HETATM    7  O   UNL     1      42.940 -14.087   6.127  1.00  0.00    -0.267 OA
HETATM    8  H   UNL     1      45.818 -14.804   7.271  1.00  0.00     0.171 HD
BRANCH   6   9
HETATM    9  C   UNL     1      43.914 -16.194   6.366  1.00  0.00     0.032 A 
HETATM   10  C   UNL     1      42.771 -16.789   5.818  1.00  0.00     0.020 A 
HETATM   11  C   UNL     1      42.710 -18.174   5.630  1.00  0.00     0.038 A 
HETATM   12  C   UNL     1      43.799 -18.973   5.974  1.00  0.00     0.068 A 
HETATM   13  C   UNL     1      44.941 -18.378   6.520  1.00  0.00     0.038 A 
HETATM   14  C   UNL     1      45.008 -16.994   6.711  1.00  0.00     0.020 A 
BRANCH  12  15
HETATM   15  O   UNL     1      43.875 -20.331   5.828  1.00  0.00    -0.352 OA
BRANCH  15  16
HETATM   16  C   UNL     1      44.838 -20.825   4.895  1.00  0.00     0.171 C 
HETATM   17  C   UNL     1      44.903 -22.335   5.044  1.00  0.00     0.034 C 
ENDBRANCH  15  16
ENDBRANCH  12  15
ENDBRANCH   6   9
ENDBRANCH   3   5
ENDBRANCH   1   3
BRANCH   1  18
HETATM   18  C   UNL     1      43.711 -11.837   9.516  1.00  0.00     0.050 A 
HETATM   19  C   UNL     1      42.825 -10.750   9.400  1.00  0.00     0.058 A 
HETATM   20  C   UNL     1      42.677  -9.836  10.456  1.00  0.00     0.019 A 
HETATM   21  C   UNL     1      43.392 -10.011  11.639  1.00  0.00     0.001 A 
HETATM   22  C   UNL     1      44.262 -11.090  11.766  1.00  0.00     0.002 A 
HETATM   23  C   UNL     1      44.429 -11.991  10.710  1.00  0.00     0.030 A 
BRANCH  19  24
HETATM   24  C   UNL     1      41.968 -10.531   8.207  1.00  0.00     0.253 C 
HETATM   25  N   UNL     1      40.898 -11.395   8.080  1.00  0.00    -0.357 N 
HETATM   26  H   UNL     1      40.666 -11.985   8.875  1.00  0.00     0.162 HD
HETATM   27  O   UNL     1      42.205  -9.615   7.431  1.00  0.00    -0.268 OA
BRANCH  25  28
HETATM   28  C   UNL     1      39.864 -11.169   7.086  1.00  0.00     0.125 C 
BRANCH  28  29
HETATM   29  C   UNL     1      40.177 -11.892   5.781  1.00  0.00     0.046 C 
BRANCH  29  30
HETATM   30  C   UNL     1      39.516 -13.261   5.732  1.00  0.00     0.165 C 
BRANCH  30  31
HETATM   31  O   UNL     1      40.096 -14.120   6.705  1.00  0.00    -0.401 OA
HETATM   32  H   UNL     1      40.586 -14.817   6.235  1.00  0.00     0.209 HD
ENDBRANCH  30  31
ENDBRANCH  29  30
ENDBRANCH  28  29
ENDBRANCH  25  28
ENDBRANCH  19  24
ENDBRANCH   1  18
TORSDOF 11
ENDMDL
MODEL 4
REMARK VINA RESULT:      -6.8      2.955      6.441
REMARK  11 active torsions:
REMARK  status: ('A' for Active; 'I' for Inactive)
REMARK    1  A    between atoms: C_2  and  O_3 
REMARK    2  A    between atoms: O_3  and  C_4 
REMARK    3  A    between atoms: C_7  and  C_8 
REMARK       I    between atoms: C_8  and  N_9 
REMARK    4  A    between atoms: N_9  and  C_10 
REMARK    5  A    between atoms: C_10  and  N_11 
REMARK    6  A    between atoms: N_11  and  C_12 
REMARK    7  A    between atoms: C_13  and  C_14 
REMARK       I    between atoms: C_14  and  N_15 
REMARK    8  A    between atoms: N_15  and  C_16 
REMARK    9  A    between atoms: C_16  and  C_17 
REMARK   10  A    between atoms: C_17  and  C_18 
REMARK   11  A    between atoms: C_18  and  O_19 
ROOT
HETATM    1  N   UNL     1      43.085 -16.991   2.854  1.00  0.00    -0.332 N 
HETATM    2  H   UNL     1      43.539 -16.150   3.201  1.00  0.00     0.168 HD
ENDROOT
BRANCH   1   3
HETATM    3  C   UNL     1      41.812 -16.764   2.326  1.00  0.00     0.179 C 
HETATM    4  S   UNL     1      41.270 -17.345   0.855  1.00  0.00    -0.040 SA
BRANCH   3   5
HETATM    5  N   UNL     1      41.058 -16.031   3.253  1.00  0.00    -0.299 N 
HETATM    6  C   UNL     1      40.020 -15.137   3.000  1.00  0.00     0.257 C 
HETATM    7  O   UNL     1      39.225 -15.214   2.071  1.00  0.00    -0.267 OA
HETATM    8  H   UNL     1      41.573 -15.880   4.108  1.00  0.00     0.171 HD
BRANCH   6   9
HETATM    9  C   UNL     1      39.829 -14.056   4.004  1.00  0.00     0.032 A 
HETATM   10  C   UNL     1      39.555 -12.768   3.528  1.00  0.00     0.020 A 
HETATM   11  C   UNL     1      39.356 -11.708   4.419  1.00  0.00     0.038 A 
HETATM   12  C   UNL     1      39.416 -11.931   5.793  1.00  0.00     0.068 A 
HETATM   13  C   UNL     1      39.689 -13.218   6.268  1.00  0.00     0.038 A 
HETATM   14  C   UNL     1      39.889 -14.283   5.382  1.00  0.00     0.020 A 
BRANCH  12  15
HETATM   15  O   UNL     1      39.227 -10.990   6.768  1.00  0.00    -0.352 OA
BRANCH  15  16
HETATM   16  C   UNL     1      39.439 -11.408   8.117  1.00  0.00     0.171 C 
HETATM   17  C   UNL     1      38.936 -10.307   9.034  1.00  0.00     0.034 C 
ENDBRANCH  15  16
ENDBRANCH  12  15
ENDBRANCH   6   9
ENDBRANCH   3   5
ENDBRANCH   1   3
BRANCH   1  18
HETATM   18  C   UNL     1      43.634 -18.213   3.324  1.00  0.00     0.050 A 
HETATM   19  C   UNL     1      43.862 -18.412   4.699  1.00  0.00     0.058 A 
HETATM   20  C   UNL     1      44.532 -19.560   5.151  1.00  0.00     0.019 A 
HETATM   21  C   UNL     1      44.960 -20.525   4.241  1.00  0.00     0.001 A 
HETATM   22  C   UNL     1      44.730 -20.341   2.881  1.00  0.00     0.002 A 
HETATM   23  C   UNL     1      44.081 -19.190   2.423  1.00  0.00     0.030 A 
BRANCH  19  24
HETATM   24  C   UNL     1      43.372 -17.474   5.742  1.00  0.00     0.253 C 
HETATM   25  N   UNL     1      44.355 -16.853   6.488  1.00  0.00    -0.357 N 
HETATM   26  H   UNL     1      45.316 -16.932   6.168  1.00  0.00     0.162 HD
HETATM   27  O   UNL     1      42.174 -17.266   5.877  1.00  0.00    -0.268 OA
BRANCH  25  28
HETATM   28  C   UNL     1      44.034 -15.763   7.391  1.00  0.00     0.125 C 
BRANCH  28  29
HETATM   29  C   UNL     1      44.499 -14.422   6.834  1.00  0.00     0.046 C 
BRANCH  29  30
HETATM   30  C   UNL     1      43.438 -13.793   5.944  1.00  0.00     0.165 C 
BRANCH  30  31
HETATM   31  O   UNL     1      43.323 -14.524   4.730  1.00  0.00    -0.401 OA
HETATM   32  H   UNL     1      43.612 -13.945   4.003  1.00  0.00     0.209 HD
ENDBRANCH  30  31
ENDBRANCH  29  30
ENDBRANCH  28  29
ENDBRANCH  25  28
ENDBRANCH  19  24
ENDBRANCH   1  18
TORSDOF 11
ENDMDL
MODEL 5
REMARK VINA RESULT:      -6.7      4.960      8.722
REMARK  11 active torsions:
REMARK  status: ('A' for Active; 'I' for Inactive)
REMARK    1  A    between atoms: C_2  and  O_3 
REMARK    2  A    between atoms: O_3  and  C_4 
REMARK    3  A    between atoms: C_7  and  C_8 
REMARK       I    between atoms: C_8  and  N_9 
REMARK    4  A    between atoms: N_9  and  C_10 
REMARK    5  A    between atoms: C_10  and  N_11 
REMARK    6  A    between atoms: N_11  and  C_12 
REMARK    7  A    between atoms: C_13  and  C_14 
REMARK       I    between atoms: C_14  and  N_15 
REMARK    8  A    between atoms: N_15  and  C_16 
REMARK    9  A    between atoms: C_16  and  C_17 
REMARK   10  A    between atoms: C_17  and  C_18 
REMARK   11  A    between atoms: C_18  and  O_19 
ROOT
HETATM    1  N   UNL     1      41.883 -13.895  -0.534  1.00  0.00    -0.332 N 
HETATM    2  H   UNL     1      42.348 -14.771  -0.762  1.00  0.00     0.168 HD
ENDROOT
BRANCH   1   3
HETATM    3  C   UNL     1      40.908 -14.020   0.457  1.00  0.00     0.179 C 
HETATM    4  S   UNL     1      39.449 -13.203   0.471  1.00  0.00    -0.040 SA
BRANCH   3   5
HETATM    5  N   UNL     1      41.326 -14.978   1.391  1.00  0.00    -0.299 N 
HETATM    6  C   UNL     1      42.540 -15.043   2.071  1.00  0.00     0.257 C 
HETATM    7  O   UNL     1      43.212 -14.079   2.418  1.00  0.00    -0.267 OA
HETATM    8  H   UNL     1      40.850 -15.857   1.252  1.00  0.00     0.171 HD
BRANCH   6   9
HETATM    9  C   UNL     1      42.994 -16.401   2.472  1.00  0.00     0.032 A 
HETATM   10  C   UNL     1      42.457 -16.947   3.645  1.00  0.00     0.020 A 
HETATM   11  C   UNL     1      42.835 -18.223   4.074  1.00  0.00     0.038 A 
HETATM   12  C   UNL     1      43.742 -18.970   3.325  1.00  0.00     0.068 A 
HETATM   13  C   UNL     1      44.277 -18.426   2.153  1.00  0.00     0.038 A 
HETATM   14  C   UNL     1      43.903 -17.149   1.718  1.00  0.00     0.020 A 
BRANCH  12  15
HETATM   15  O   UNL     1      44.182 -20.231   3.623  1.00  0.00    -0.352 OA
BRANCH  15  16
HETATM   16  C   UNL     1      44.802 -20.964   2.565  1.00  0.00     0.171 C 
HETATM   17  C   UNL     1      43.738 -21.820   1.902  1.00  0.00     0.034 C 
ENDBRANCH  15  16
ENDBRANCH  12  15
ENDBRANCH   6   9
ENDBRANCH   3   5
ENDBRANCH   1   3
BRANCH   1  18
HETATM   18  C   UNL     1      42.021 -12.868  -1.505  1.00  0.00     0.050 A 
HETATM   19  C   UNL     1      41.672 -13.101  -2.848  1.00  0.00     0.058 A 
HETATM   20  C   UNL     1      41.939 -12.135  -3.831  1.00  0.00     0.019 A 
HETATM   21  C   UNL     1      42.534 -10.925  -3.481  1.00  0.00     0.001 A 
HETATM   22  C   UNL     1      42.872 -10.681  -2.153  1.00  0.00     0.002 A 
HETATM   23  C   UNL     1      42.628 -11.648  -1.173  1.00  0.00     0.030 A 
BRANCH  19  24
HETATM   24  C   UNL     1      40.966 -14.328  -3.297  1.00  0.00     0.253 C 
HETATM   25  N   UNL     1      39.590 -14.231  -3.360  1.00  0.00    -0.357 N 
HETATM   26  H   UNL     1      39.174 -13.307  -3.276  1.00  0.00     0.162 HD
HETATM   27  O   UNL     1      41.598 -15.327  -3.614  1.00  0.00    -0.268 OA
BRANCH  25  28
HETATM   28  C   UNL     1      38.791 -15.274  -3.977  1.00  0.00     0.125 C 
BRANCH  28  29
HETATM   29  C   UNL     1      37.340 -15.214  -3.511  1.00  0.00     0.046 C 
BRANCH  29  30
HETATM   30  C   UNL     1      36.522 -14.256  -4.363  1.00  0.00     0.165 C 
BRANCH  30  31
HETATM   31  O   UNL     1      36.647 -14.595  -5.737  1.00  0.00    -0.401 OA
HETATM   32  H   UNL     1      37.315 -14.007  -6.131  1.00  0.00     0.209 HD
ENDBRANCH  30  31
ENDBRANCH  29  30
ENDBRANCH  28  29
ENDBRANCH  25  28
ENDBRANCH  19  24
ENDBRANCH   1  18
TORSDOF 11
ENDMDL
MODEL 6
REMARK VINA RESULT:      -6.7      3.130      6.102
REMARK  11 active torsions:
REMARK  status: ('A' for Active; 'I' for Inactive)
REMARK    1  A    between atoms: C_2  and  O_3 
REMARK    2  A    between atoms: O_3  and  C_4 
REMARK    3  A    between atoms: C_7  and  C_8 
REMARK       I    between atoms: C_8  and  N_9 
REMARK    4  A    between atoms: N_9  and  C_10 
REMARK    5  A    between atoms: C_10  and  N_11 
REMARK    6  A    between atoms: N_11  and  C_12 
REMARK    7  A    between atoms: C_13  and  C_14 
REMARK       I    between atoms: C_14  and  N_15 
REMARK    8  A    between atoms: N_15  and  C_16 
REMARK    9  A    between atoms: C_16  and  C_17 
REMARK   10  A    between atoms: C_17  and  C_18 
REMARK   11  A    between atoms: C_18  and  O_19 
ROOT
HETATM    1  N   UNL     1      43.563 -12.366  10.103  1.00  0.00    -0.332 N 
HETATM    2  H   UNL     1      43.291 -13.274  10.472  1.00  0.00     0.168 HD
ENDROOT
BRANCH   1   3
HETATM    3  C   UNL     1      44.635 -12.422   9.211  1.00  0.00     0.179 C 
HETATM    4  S   UNL     1      45.906 -11.336   9.175  1.00  0.00    -0.040 SA
BRANCH   3   5
HETATM    5  N   UNL     1      44.499 -13.561   8.405  1.00  0.00    -0.299 N 
HETATM    6  C   UNL     1      44.978 -13.761   7.113  1.00  0.00     0.257 C 
HETATM    7  O   UNL     1      46.007 -13.278   6.653  1.00  0.00    -0.267 OA
HETATM    8  H   UNL     1      43.683 -14.097   8.662  1.00  0.00     0.171 HD
BRANCH   6   9
HETATM    9  C   UNL     1      44.205 -14.709   6.268  1.00  0.00     0.032 A 
HETATM   10  C   UNL     1      43.643 -14.217   5.084  1.00  0.00     0.020 A 
HETATM   11  C   UNL     1      42.911 -15.058   4.239  1.00  0.00     0.038 A 
HETATM   12  C   UNL     1      42.748 -16.403   4.566  1.00  0.00     0.068 A 
HETATM   13  C   UNL     1      43.310 -16.895   5.748  1.00  0.00     0.038 A 
HETATM   14  C   UNL     1      44.043 -16.058   6.597  1.00  0.00     0.020 A 
BRANCH  12  15
HETATM   15  O   UNL     1      42.071 -17.332   3.824  1.00  0.00    -0.352 OA
BRANCH  15  16
HETATM   16  C   UNL     1      42.795 -18.502   3.442  1.00  0.00     0.171 C 
HETATM   17  C   UNL     1      43.588 -18.175   2.189  1.00  0.00     0.034 C 
ENDBRANCH  15  16
ENDBRANCH  12  15
ENDBRANCH   6   9
ENDBRANCH   3   5
ENDBRANCH   1   3
BRANCH   1  18
HETATM   18  C   UNL     1      43.094 -11.248  10.843  1.00  0.00     0.050 A 
HETATM   19  C   UNL     1      42.348 -10.235  10.213  1.00  0.00     0.058 A 
HETATM   20  C   UNL     1      42.004  -9.066  10.909  1.00  0.00     0.019 A 
HETATM   21  C   UNL     1      42.381  -8.907  12.241  1.00  0.00     0.001 A 
HETATM   22  C   UNL     1      43.110  -9.909  12.876  1.00  0.00     0.002 A 
HETATM   23  C   UNL     1      43.473 -11.067  12.181  1.00  0.00     0.030 A 
BRANCH  19  24
HETATM   24  C   UNL     1      41.838 -10.355   8.823  1.00  0.00     0.253 C 
HETATM   25  N   UNL     1      40.769 -11.213   8.655  1.00  0.00    -0.357 N 
HETATM   26  H   UNL     1      40.298 -11.554   9.489  1.00  0.00     0.162 HD
HETATM   27  O   UNL     1      42.335  -9.695   7.920  1.00  0.00    -0.268 OA
BRANCH  25  28
HETATM   28  C   UNL     1      40.040 -11.268   7.401  1.00  0.00     0.125 C 
BRANCH  28  29
HETATM   29  C   UNL     1      40.742 -12.165   6.387  1.00  0.00     0.046 C 
BRANCH  29  30
HETATM   30  C   UNL     1      39.837 -13.298   5.927  1.00  0.00     0.165 C 
BRANCH  30  31
HETATM   31  O   UNL     1      40.231 -14.518   6.541  1.00  0.00    -0.401 OA
HETATM   32  H   UNL     1      40.390 -14.341   7.484  1.00  0.00     0.209 HD
ENDBRANCH  30  31
ENDBRANCH  29  30
ENDBRANCH  28  29
ENDBRANCH  25  28
ENDBRANCH  19  24
ENDBRANCH   1  18
TORSDOF 11
ENDMDL
MODEL 7
REMARK VINA RESULT:      -6.7      3.703      7.688
REMARK  11 active torsions:
REMARK  status: ('A' for Active; 'I' for Inactive)
REMARK    1  A    between atoms: C_2  and  O_3 
REMARK    2  A    between atoms: O_3  and  C_4 
REMARK    3  A    between atoms: C_7  and  C_8 
REMARK       I    between atoms: C_8  and  N_9 
REMARK    4  A    between atoms: N_9  and  C_10 
REMARK    5  A    between atoms: C_10  and  N_11 
REMARK    6  A    between atoms: N_11  and  C_12 
REMARK    7  A    between atoms: C_13  and  C_14 
REMARK       I    between atoms: C_14  and  N_15 
REMARK    8  A    between atoms: N_15  and  C_16 
REMARK    9  A    between atoms: C_16  and  C_17 
REMARK   10  A    between atoms: C_17  and  C_18 
REMARK   11  A    between atoms: C_18  and  O_19 
ROOT
HETATM    1  N   UNL     1      44.279 -18.283   4.877  1.00  0.00    -0.332 N 
HETATM    2  H   UNL     1      45.043 -17.620   4.763  1.00  0.00     0.168 HD
ENDROOT
BRANCH   1   3
HETATM    3  C   UNL     1      43.652 -18.207   6.122  1.00  0.00     0.179 C 
HETATM    4  S   UNL     1      43.998 -19.196   7.426  1.00  0.00    -0.040 SA
BRANCH   3   5
HETATM    5  N   UNL     1      42.746 -17.139   6.114  1.00  0.00    -0.299 N 
HETATM    6  C   UNL     1      41.680 -16.923   5.243  1.00  0.00     0.257 C 
HETATM    7  O   UNL     1      41.004 -17.798   4.716  1.00  0.00    -0.267 OA
HETATM    8  H   UNL     1      43.148 -16.313   6.533  1.00  0.00     0.171 HD
BRANCH   6   9
HETATM    9  C   UNL     1      41.297 -15.503   5.017  1.00  0.00     0.032 A 
HETATM   10  C   UNL     1      40.192 -15.008   5.720  1.00  0.00     0.020 A 
HETATM   11  C   UNL     1      39.784 -13.679   5.559  1.00  0.00     0.038 A 
HETATM   12  C   UNL     1      40.488 -12.832   4.705  1.00  0.00     0.068 A 
HETATM   13  C   UNL     1      41.592 -13.327   4.005  1.00  0.00     0.038 A 
HETATM   14  C   UNL     1      42.006 -14.655   4.161  1.00  0.00     0.020 A 
BRANCH  12  15
HETATM   15  O   UNL     1      40.205 -11.514   4.470  1.00  0.00    -0.352 OA
BRANCH  15  16
HETATM   16  C   UNL     1      38.839 -11.183   4.221  1.00  0.00     0.171 C 
HETATM   17  C   UNL     1      38.524 -11.541   2.779  1.00  0.00     0.034 C 
ENDBRANCH  15  16
ENDBRANCH  12  15
ENDBRANCH   6   9
ENDBRANCH   3   5
ENDBRANCH   1   3
BRANCH   1  18
HETATM   18  C   UNL     1      44.274 -19.363   3.955  1.00  0.00     0.050 A 
HETATM   19  C   UNL     1      43.672 -19.222   2.691  1.00  0.00     0.058 A 
HETATM   20  C   UNL     1      43.544 -20.328   1.836  1.00  0.00     0.019 A 
HETATM   21  C   UNL     1      44.033 -21.573   2.224  1.00  0.00     0.001 A 
HETATM   22  C   UNL     1      44.640 -21.720   3.468  1.00  0.00     0.002 A 
HETATM   23  C   UNL     1      44.752 -20.626   4.332  1.00  0.00     0.030 A 
BRANCH  19  24
HETATM   24  C   UNL     1      43.193 -17.918   2.167  1.00  0.00     0.253 C 
HETATM   25  N   UNL     1      41.903 -17.915   1.673  1.00  0.00    -0.357 N 
HETATM   26  H   UNL     1      41.320 -18.726   1.861  1.00  0.00     0.162 HD
HETATM   27  O   UNL     1      43.909 -16.927   2.218  1.00  0.00    -0.268 OA
BRANCH  25  28
HETATM   28  C   UNL     1      41.235 -16.674   1.325  1.00  0.00     0.125 C 
BRANCH  28  29
HETATM   29  C   UNL     1      41.431 -16.329  -0.147  1.00  0.00     0.046 C 
BRANCH  29  30
HETATM   30  C   UNL     1      41.057 -14.882  -0.433  1.00  0.00     0.165 C 
BRANCH  30  31
HETATM   31  O   UNL     1      39.752 -14.816  -0.993  1.00  0.00    -0.401 OA
HETATM   32  H   UNL     1      39.342 -13.985  -0.698  1.00  0.00     0.209 HD
ENDBRANCH  30  31
ENDBRANCH  29  30
ENDBRANCH  28  29
ENDBRANCH  25  28
ENDBRANCH  19  24
ENDBRANCH   1  18
TORSDOF 11
ENDMDL
MODEL 8
REMARK VINA RESULT:      -6.6      2.714      5.340
REMARK  11 active torsions:
REMARK  status: ('A' for Active; 'I' for Inactive)
REMARK    1  A    between atoms: C_2  and  O_3 
REMARK    2  A    between atoms: O_3  and  C_4 
REMARK    3  A    between atoms: C_7  and  C_8 
REMARK       I    between atoms: C_8  and  N_9 
REMARK    4  A    between atoms: N_9  and  C_10 
REMARK    5  A    between atoms: C_10  and  N_11 
REMARK    6  A    between atoms: N_11  and  C_12 
REMARK    7  A    between atoms: C_13  and  C_14 
REMARK       I    between atoms: C_14  and  N_15 
REMARK    8  A    between atoms: N_15  and  C_16 
REMARK    9  A    between atoms: C_16  and  C_17 
REMARK   10  A    between atoms: C_17  and  C_18 
REMARK   11  A    between atoms: C_18  and  O_19 
ROOT
HETATM    1  N   UNL     1      42.261 -10.221   8.430  1.00  0.00    -0.332 N 
HETATM    2  H   UNL     1      42.683  -9.459   7.904  1.00  0.00     0.168 HD
ENDROOT
BRANCH   1   3
HETATM    3  C   UNL     1      41.153 -10.790   7.800  1.00  0.00     0.179 C 
HETATM    4  S   UNL     1      39.578 -10.253   7.967  1.00  0.00    -0.040 SA
BRANCH   3   5
HETATM    5  N   UNL     1      41.586 -11.830   6.966  1.00  0.00    -0.299 N 
HETATM    6  C   UNL     1      41.249 -12.062   5.635  1.00  0.00     0.257 C 
HETATM    7  O   UNL     1      40.996 -11.196   4.805  1.00  0.00    -0.267 OA
HETATM    8  H   UNL     1      41.852 -12.644   7.502  1.00  0.00     0.171 HD
BRANCH   6   9
HETATM    9  C   UNL     1      41.289 -13.480   5.187  1.00  0.00     0.032 A 
HETATM   10  C   UNL     1      41.922 -13.759   3.969  1.00  0.00     0.020 A 
HETATM   11  C   UNL     1      42.002 -15.072   3.494  1.00  0.00     0.038 A 
HETATM   12  C   UNL     1      41.462 -16.118   4.240  1.00  0.00     0.068 A 
HETATM   13  C   UNL     1      40.831 -15.838   5.456  1.00  0.00     0.038 A 
HETATM   14  C   UNL     1      40.747 -14.527   5.937  1.00  0.00     0.020 A 
BRANCH  12  15
HETATM   15  O   UNL     1      41.485 -17.443   3.899  1.00  0.00    -0.352 OA
BRANCH  15  16
HETATM   16  C   UNL     1      42.179 -18.324   4.783  1.00  0.00     0.171 C 
HETATM   17  C   UNL     1      43.624 -18.407   4.325  1.00  0.00     0.034 C 
ENDBRANCH  15  16
ENDBRANCH  12  15
ENDBRANCH   6   9
ENDBRANCH   3   5
ENDBRANCH   1   3
BRANCH   1  18
HETATM   18  C   UNL     1      42.612 -10.272   9.804  1.00  0.00     0.050 A 
HETATM   19  C   UNL     1      43.762 -10.966  10.224  1.00  0.00     0.058 A 
HETATM   20  C   UNL     1      44.034 -11.135  11.590  1.00  0.00     0.019 A 
HETATM   21  C   UNL     1      43.175 -10.597  12.547  1.00  0.00     0.001 A 
HETATM   22  C   UNL     1      42.041  -9.900  12.142  1.00  0.00     0.002 A 
HETATM   23  C   UNL     1      41.755  -9.746  10.781  1.00  0.00     0.030 A 
BRANCH  19  24
HETATM   24  C   UNL     1      44.770 -11.504   9.274  1.00  0.00     0.253 C 
HETATM   25  N   UNL     1      44.497 -12.761   8.769  1.00  0.00    -0.357 N 
HETATM   26  H   UNL     1      43.570 -13.146   8.929  1.00  0.00     0.162 HD
HETATM   27  O   UNL     1      45.745 -10.836   8.958  1.00  0.00    -0.268 OA
BRANCH  25  28
HETATM   28  C   UNL     1      45.278 -13.319   7.681  1.00  0.00     0.125 C 
BRANCH  28  29
HETATM   29  C   UNL     1      44.391 -14.029   6.664  1.00  0.00     0.046 C 
BRANCH  29  30
HETATM   30  C   UNL     1      44.344 -15.528   6.920  1.00  0.00     0.165 C 
BRANCH  30  31
HETATM   31  O   UNL     1      43.714 -15.792   8.167  1.00  0.00    -0.401 OA
HETATM   32  H   UNL     1      44.002 -15.110   8.798  1.00  0.00     0.209 HD
ENDBRANCH  30  31
ENDBRANCH  29  30
ENDBRANCH  28  29
ENDBRANCH  25  28
ENDBRANCH  19  24
ENDBRANCH   1  18
TORSDOF 11
ENDMDL
MODEL 9
REMARK VINA RESULT:      -6.5      3.355      6.697
REMARK  11 active torsions:
REMARK  status: ('A' for Active; 'I' for Inactive)
REMARK    1  A    between atoms: C_2  and  O_3 
REMARK    2  A    between atoms: O_3  and  C_4 
REMARK    3  A    between atoms: C_7  and  C_8 
REMARK       I    between atoms: C_8  and  N_9 
REMARK    4  A    between atoms: N_9  and  C_10 
REMARK    5  A    between atoms: C_10  and  N_11 
REMARK    6  A    between atoms: N_11  and  C_12 
REMARK    7  A    between atoms: C_13  and  C_14 
REMARK       I    between atoms: C_14  and  N_15 
REMARK    8  A    between atoms: N_15  and  C_16 
REMARK    9  A    between atoms: C_16  and  C_17 
REMARK   10  A    between atoms: C_17  and  C_18 
REMARK   11  A    between atoms: C_18  and  O_19 
ROOT
HETATM    1  N   UNL     1      40.648 -12.738   3.290  1.00  0.00    -0.332 N 
HETATM    2  H   UNL     1      41.457 -12.871   2.688  1.00  0.00     0.168 HD
ENDROOT
BRANCH   1   3
HETATM    3  C   UNL     1      40.824 -13.238   4.582  1.00  0.00     0.179 C 
HETATM    4  S   UNL     1      40.003 -12.698   5.935  1.00  0.00    -0.040 SA
BRANCH   3   5
HETATM    5  N   UNL     1      41.742 -14.296   4.542  1.00  0.00    -0.299 N 
HETATM    6  C   UNL     1      42.814 -14.470   3.669  1.00  0.00     0.257 C 
HETATM    7  O   UNL     1      43.483 -13.570   3.176  1.00  0.00    -0.267 OA
HETATM    8  H   UNL     1      41.348 -15.140   4.931  1.00  0.00     0.171 HD
BRANCH   6   9
HETATM    9  C   UNL     1      43.214 -15.877   3.397  1.00  0.00     0.032 A 
HETATM   10  C   UNL     1      43.454 -16.239   2.066  1.00  0.00     0.020 A 
HETATM   11  C   UNL     1      43.842 -17.543   1.742  1.00  0.00     0.038 A 
HETATM   12  C   UNL     1      44.005 -18.492   2.749  1.00  0.00     0.068 A 
HETATM   13  C   UNL     1      43.766 -18.130   4.078  1.00  0.00     0.038 A 
HETATM   14  C   UNL     1      43.378 -16.827   4.409  1.00  0.00     0.020 A 
BRANCH  12  15
HETATM   15  O   UNL     1      44.393 -19.792   2.571  1.00  0.00    -0.352 OA
BRANCH  15  16
HETATM   16  C   UNL     1      43.490 -20.643   1.863  1.00  0.00     0.171 C 
HETATM   17  C   UNL     1      44.205 -21.952   1.577  1.00  0.00     0.034 C 
ENDBRANCH  15  16
ENDBRANCH  12  15
ENDBRANCH   6   9
ENDBRANCH   3   5
ENDBRANCH   1   3
BRANCH   1  18
HETATM   18  C   UNL     1      39.431 -12.460   2.614  1.00  0.00     0.050 A 
HETATM   19  C   UNL     1      38.987 -13.291   1.569  1.00  0.00     0.058 A 
HETATM   20  C   UNL     1      37.860 -12.941   0.809  1.00  0.00     0.019 A 
HETATM   21  C   UNL     1      37.156 -11.774   1.099  1.00  0.00     0.001 A 
HETATM   22  C   UNL     1      37.580 -10.952   2.138  1.00  0.00     0.002 A 
HETATM   23  C   UNL     1      38.715 -11.286   2.885  1.00  0.00     0.030 A 
BRANCH  19  24
HETATM   24  C   UNL     1      39.631 -14.590   1.242  1.00  0.00     0.253 C 
HETATM   25  N   UNL     1      40.063 -14.725  -0.063  1.00  0.00    -0.357 N 
HETATM   26  H   UNL     1      40.079 -13.894  -0.648  1.00  0.00     0.162 HD
HETATM   27  O   UNL     1      39.783 -15.443   2.106  1.00  0.00    -0.268 OA
BRANCH  25  28
HETATM   28  C   UNL     1      40.890 -15.847  -0.467  1.00  0.00     0.125 C 
BRANCH  28  29
HETATM   29  C   UNL     1      41.016 -15.929  -1.985  1.00  0.00     0.046 C 
BRANCH  29  30
HETATM   30  C   UNL     1      41.339 -14.570  -2.590  1.00  0.00     0.165 C 
BRANCH  30  31
HETATM   31  O   UNL     1      42.251 -14.721  -3.670  1.00  0.00    -0.401 OA
HETATM   32  H   UNL     1      42.899 -15.402  -3.422  1.00  0.00     0.209 HD
ENDBRANCH  30  31
ENDBRANCH  29  30
ENDBRANCH  28  29
ENDBRANCH  25  28
ENDBRANCH  19  24
ENDBRANCH   1  18
TORSDOF 11
ENDMDL
MODEL 10
REMARK VINA RESULT:      -6.5      3.710      5.601
REMARK  11 active torsions:
REMARK  status: ('A' for Active; 'I' for Inactive)
REMARK    1  A    between atoms: C_2  and  O_3 
REMARK    2  A    between atoms: O_3  and  C_4 
REMARK    3  A    between atoms: C_7  and  C_8 
REMARK       I    between atoms: C_8  and  N_9 
REMARK    4  A    between atoms: N_9  and  C_10 
REMARK    5  A    between atoms: C_10  and  N_11 
REMARK    6  A    between atoms: N_11  and  C_12 
REMARK    7  A    between atoms: C_13  and  C_14 
REMARK       I    between atoms: C_14  and  N_15 
REMARK    8  A    between atoms: N_15  and  C_16 
REMARK    9  A    between atoms: C_16  and  C_17 
REMARK   10  A    between atoms: C_17  and  C_18 
REMARK   11  A    between atoms: C_18  and  O_19 
ROOT
HETATM    1  N   UNL     1      41.967 -14.148   0.969  1.00  0.00    -0.332 N 
HETATM    2  H   UNL     1      41.939 -13.225   0.541  1.00  0.00     0.168 HD
ENDROOT
BRANCH   1   3
HETATM    3  C   UNL     1      41.777 -15.192   0.063  1.00  0.00     0.179 C 
HETATM    4  S   UNL     1      40.981 -15.053  -1.401  1.00  0.00    -0.040 SA
BRANCH   3   5
HETATM    5  N   UNL     1      42.413 -16.342   0.551  1.00  0.00    -0.299 N 
HETATM    6  C   UNL     1      41.838 -17.428   1.206  1.00  0.00     0.257 C 
HETATM    7  O   UNL     1      40.707 -17.859   1.011  1.00  0.00    -0.267 OA
HETATM    8  H   UNL     1      43.384 -16.164   0.760  1.00  0.00     0.171 HD
BRANCH   6   9
HETATM    9  C   UNL     1      42.719 -18.162   2.154  1.00  0.00     0.032 A 
HETATM   10  C   UNL     1      42.709 -17.760   3.495  1.00  0.00     0.020 A 
HETATM   11  C   UNL     1      43.507 -18.414   4.440  1.00  0.00     0.038 A 
HETATM   12  C   UNL     1      44.312 -19.483   4.052  1.00  0.00     0.068 A 
HETATM   13  C   UNL     1      44.321 -19.885   2.713  1.00  0.00     0.038 A 
HETATM   14  C   UNL     1      43.524 -19.236   1.763  1.00  0.00     0.020 A 
BRANCH  12  15
HETATM   15  O   UNL     1      45.125 -20.215   4.874  1.00  0.00    -0.352 OA
BRANCH  15  16
HETATM   16  C   UNL     1      44.597 -21.443   5.375  1.00  0.00     0.171 C 
HETATM   17  C   UNL     1      43.876 -21.148   6.679  1.00  0.00     0.034 C 
ENDBRANCH  15  16
ENDBRANCH  12  15
ENDBRANCH   6   9
ENDBRANCH   3   5
ENDBRANCH   1   3
BRANCH   1  18
HETATM   18  C   UNL     1      41.790 -14.164   2.378  1.00  0.00     0.050 A 
HETATM   19  C   UNL     1      40.499 -14.139   2.937  1.00  0.00     0.058 A 
HETATM   20  C   UNL     1      40.326 -14.015   4.325  1.00  0.00     0.019 A 
HETATM   21  C   UNL     1      41.435 -13.938   5.165  1.00  0.00     0.001 A 
HETATM   22  C   UNL     1      42.716 -13.973   4.621  1.00  0.00     0.002 A 
HETATM   23  C   UNL     1      42.894 -14.076   3.238  1.00  0.00     0.030 A 
BRANCH  19  24
HETATM   24  C   UNL     1      39.265 -14.293   2.125  1.00  0.00     0.253 C 
HETATM   25  N   UNL     1      38.757 -13.125   1.592  1.00  0.00    -0.357 N 
HETATM   26  H   UNL     1      39.337 -12.291   1.632  1.00  0.00     0.162 HD
HETATM   27  O   UNL     1      38.781 -15.401   1.934  1.00  0.00    -0.268 OA
BRANCH  25  28
HETATM   28  C   UNL     1      37.686 -13.151   0.612  1.00  0.00     0.125 C 
BRANCH  28  29
HETATM   29  C   UNL     1      36.746 -11.962   0.782  1.00  0.00     0.046 C 
BRANCH  29  30
HETATM   30  C   UNL     1      37.478 -10.750   1.340  1.00  0.00     0.165 C 
BRANCH  30  31
HETATM   31  O   UNL     1      37.325 -10.695   2.752  1.00  0.00    -0.401 OA
HETATM   32  H   UNL     1      38.052 -10.158   3.112  1.00  0.00     0.209 HD
ENDBRANCH  30  31
ENDBRANCH  29  30
ENDBRANCH  28  29
ENDBRANCH  25  28
ENDBRANCH  19  24
ENDBRANCH   1  18
TORSDOF 11
ENDMDL
