MODEL 1
REMARK VINA RESULT:      -8.7      0.000      0.000
REMARK  5 active torsions:
REMARK  status: ('A' for Active; 'I' for Inactive)
REMARK    1  A    between atoms: C_4  and  C_5 
REMARK    2  A    between atoms: C_5  and  C_6 
REMARK    3  A    between atoms: C_6  and  C_7 
REMARK       I    between atoms: C_7  and  N_8 
REMARK    4  A    between atoms: N_8  and  C_9 
REMARK    5  A    between atoms: C_11  and  C_12 
ROOT
HETATM    1  C   UNL     1      42.673 -16.677   3.940  1.00  0.00     0.222 C 
HETATM    2  N   UNL     1      41.586 -16.945   3.136  1.00  0.00    -0.327 N 
HETATM    3  O   UNL     1      43.355 -15.653   3.895  1.00  0.00    -0.273 OA
HETATM    4  H   UNL     1      41.147 -17.852   3.226  1.00  0.00     0.169 HD
ENDROOT
BRANCH   2   5
HETATM    5  C   UNL     1      40.962 -16.086   2.205  1.00  0.00     0.035 A 
HETATM    6  C   UNL     1      41.354 -15.953   0.870  1.00  0.00     0.042 A 
HETATM    7  C   UNL     1      40.715 -15.040   0.012  1.00  0.00    -0.021 A 
HETATM    8  C   UNL     1      39.658 -14.269   0.512  1.00  0.00     0.012 A 
HETATM    9  C   UNL     1      39.254 -14.399   1.840  1.00  0.00     0.003 A 
HETATM   10  C   UNL     1      39.906 -15.299   2.682  1.00  0.00     0.029 A 
BRANCH   7  11
HETATM   11  C   UNL     1      41.141 -14.883  -1.370  1.00  0.00     0.010 A 
HETATM   12  C   UNL     1      40.910 -15.688  -2.511  1.00  0.00     0.152 A 
HETATM   13  N   UNL     1      41.455 -15.187  -3.622  1.00  0.00    -0.187 NA
HETATM   14  N   UNL     1      42.044 -14.057  -3.198  1.00  0.00    -0.289 N 
HETATM   15  H   UNL     1      42.537 -13.486  -3.876  1.00  0.00     0.188 HD
HETATM   16  C   UNL     1      41.879 -13.827  -1.864  1.00  0.00     0.123 A 
ENDBRANCH   7  11
ENDBRANCH   2   5
BRANCH   1  17
HETATM   17  C   UNL     1      42.990 -17.710   5.020  1.00  0.00     0.108 C 
BRANCH  17  18
HETATM   18  C   UNL     1      44.342 -18.420   4.985  1.00  0.00     0.048 C 
BRANCH  18  19
HETATM   19  C   UNL     1      44.392 -19.850   4.482  1.00  0.00    -0.057 A 
HETATM   20  C   UNL     1      44.214 -20.215   3.139  1.00  0.00     0.013 A 
HETATM   21  C   UNL     1      44.319 -21.552   2.729  1.00  0.00    -0.061 A 
HETATM   22  C   UNL     1      44.184 -21.925   1.281  1.00  0.00     0.048 C 
HETATM   23  C   UNL     1      44.580 -22.541   3.682  1.00  0.00     0.007 A 
HETATM   24  C   UNL     1      44.733 -22.200   5.023  1.00  0.00     0.001 A 
HETATM   25  C   UNL     1      44.644 -20.865   5.419  1.00  0.00     0.007 A 
ENDBRANCH  18  19
ENDBRANCH  17  18
ENDBRANCH   1  17
TORSDOF 5
ENDMDL
MODEL 2
REMARK VINA RESULT:      -8.4      2.792      3.954
REMARK  5 active torsions:
REMARK  status: ('A' for Active; 'I' for Inactive)
REMARK    1  A    between atoms: C_4  and  C_5 
REMARK    2  A    between atoms: C_5  and  C_6 
REMARK    3  A    between atoms: C_6  and  C_7 
REMARK       I    between atoms: C_7  and  N_8 
REMARK    4  A    between atoms: N_8  and  C_9 
REMARK    5  A    between atoms: C_11  and  C_12 
ROOT
HETATM    1  C   UNL     1      42.167 -16.948   0.696  1.00  0.00     0.222 C 
HETATM    2  N   UNL     1      42.185 -15.839  -0.124  1.00  0.00    -0.327 N 
HETATM    3  O   UNL     1      41.162 -17.589   1.003  1.00  0.00    -0.273 OA
HETATM    4  H   UNL     1      43.068 -15.361  -0.247  1.00  0.00     0.169 HD
ENDROOT
BRANCH   2   5
HETATM    5  C   UNL     1      41.115 -15.291  -0.865  1.00  0.00     0.035 A 
HETATM    6  C   UNL     1      40.143 -14.440  -0.332  1.00  0.00     0.042 A 
HETATM    7  C   UNL     1      39.078 -13.970  -1.121  1.00  0.00    -0.021 A 
HETATM    8  C   UNL     1      39.011 -14.354  -2.466  1.00  0.00     0.012 A 
HETATM    9  C   UNL     1      39.980 -15.197  -3.009  1.00  0.00     0.003 A 
HETATM   10  C   UNL     1      41.024 -15.665  -2.211  1.00  0.00     0.029 A 
BRANCH   7  11
HETATM   11  C   UNL     1      38.051 -13.105  -0.559  1.00  0.00     0.010 A 
HETATM   12  C   UNL     1      37.485 -11.901  -1.041  1.00  0.00     0.152 A 
HETATM   13  N   UNL     1      36.536 -11.413  -0.238  1.00  0.00    -0.187 NA
HETATM   14  N   UNL     1      36.492 -12.301   0.768  1.00  0.00    -0.289 N 
HETATM   15  H   UNL     1      35.833 -12.143   1.522  1.00  0.00     0.188 HD
HETATM   16  C   UNL     1      37.372 -13.333   0.619  1.00  0.00     0.123 A 
ENDBRANCH   7  11
ENDBRANCH   2   5
BRANCH   1  17
HETATM   17  C   UNL     1      43.524 -17.451   1.187  1.00  0.00     0.108 C 
BRANCH  17  18
HETATM   18  C   UNL     1      43.625 -18.038   2.595  1.00  0.00     0.048 C 
BRANCH  18  19
HETATM   19  C   UNL     1      43.927 -19.517   2.738  1.00  0.00    -0.057 A 
HETATM   20  C   UNL     1      44.450 -20.101   3.902  1.00  0.00     0.013 A 
HETATM   21  C   UNL     1      44.663 -21.485   3.988  1.00  0.00    -0.061 A 
HETATM   22  C   UNL     1      45.168 -22.108   5.257  1.00  0.00     0.048 C 
HETATM   23  C   UNL     1      44.373 -22.291   2.883  1.00  0.00     0.007 A 
HETATM   24  C   UNL     1      43.880 -21.724   1.711  1.00  0.00     0.001 A 
HETATM   25  C   UNL     1      43.655 -20.349   1.641  1.00  0.00     0.007 A 
ENDBRANCH  18  19
ENDBRANCH  17  18
ENDBRANCH   1  17
TORSDOF 5
ENDMDL
MODEL 3
REMARK VINA RESULT:      -8.4      2.278      3.112
REMARK  5 active torsions:
REMARK  status: ('A' for Active; 'I' for Inactive)
REMARK    1  A    between atoms: C_4  and  C_5 
REMARK    2  A    between atoms: C_5  and  C_6 
REMARK    3  A    between atoms: C_6  and  C_7 
REMARK       I    between atoms: C_7  and  N_8 
REMARK    4  A    between atoms: N_8  and  C_9 
REMARK    5  A    between atoms: C_11  and  C_12 
ROOT
HETATM    1  C   UNL     1      42.268 -16.736   0.993  1.00  0.00     0.222 C 
HETATM    2  N   UNL     1      42.445 -15.596   0.238  1.00  0.00    -0.327 N 
HETATM    3  O   UNL     1      41.187 -17.152   1.411  1.00  0.00    -0.273 OA
HETATM    4  H   UNL     1      43.393 -15.326   0.012  1.00  0.00     0.169 HD
ENDROOT
BRANCH   2   5
HETATM    5  C   UNL     1      41.452 -14.754  -0.308  1.00  0.00     0.035 A 
HETATM    6  C   UNL     1      40.614 -15.108  -1.369  1.00  0.00     0.042 A 
HETATM    7  C   UNL     1      39.679 -14.198  -1.892  1.00  0.00    -0.021 A 
HETATM    8  C   UNL     1      39.583 -12.923  -1.320  1.00  0.00     0.012 A 
HETATM    9  C   UNL     1      40.408 -12.562  -0.256  1.00  0.00     0.003 A 
HETATM   10  C   UNL     1      41.340 -13.472   0.244  1.00  0.00     0.029 A 
BRANCH   7  11
HETATM   11  C   UNL     1      38.826 -14.558  -3.015  1.00  0.00     0.010 A 
HETATM   12  C   UNL     1      38.913 -15.622  -3.945  1.00  0.00     0.152 A 
HETATM   13  N   UNL     1      37.910 -15.627  -4.826  1.00  0.00    -0.187 NA
HETATM   14  N   UNL     1      37.175 -14.562  -4.468  1.00  0.00    -0.289 N 
HETATM   15  H   UNL     1      36.339 -14.351  -5.002  1.00  0.00     0.188 HD
HETATM   16  C   UNL     1      37.675 -13.895  -3.388  1.00  0.00     0.123 A 
ENDBRANCH   7  11
ENDBRANCH   2   5
BRANCH   1  17
HETATM   17  C   UNL     1      43.515 -17.579   1.252  1.00  0.00     0.108 C 
BRANCH  17  18
HETATM   18  C   UNL     1      43.745 -18.142   2.655  1.00  0.00     0.048 C 
BRANCH  18  19
HETATM   19  C   UNL     1      44.025 -19.625   2.799  1.00  0.00    -0.057 A 
HETATM   20  C   UNL     1      44.551 -20.215   3.959  1.00  0.00     0.013 A 
HETATM   21  C   UNL     1      44.743 -21.602   4.046  1.00  0.00    -0.061 A 
HETATM   22  C   UNL     1      45.252 -22.229   5.311  1.00  0.00     0.048 C 
HETATM   23  C   UNL     1      44.428 -22.406   2.947  1.00  0.00     0.007 A 
HETATM   24  C   UNL     1      43.931 -21.834   1.779  1.00  0.00     0.001 A 
HETATM   25  C   UNL     1      43.727 -20.456   1.707  1.00  0.00     0.007 A 
ENDBRANCH  18  19
ENDBRANCH  17  18
ENDBRANCH   1  17
TORSDOF 5
ENDMDL
MODEL 4
REMARK VINA RESULT:      -8.3      1.667      2.402
REMARK  5 active torsions:
REMARK  status: ('A' for Active; 'I' for Inactive)
REMARK    1  A    between atoms: C_4  and  C_5 
REMARK    2  A    between atoms: C_5  and  C_6 
REMARK    3  A    between atoms: C_6  and  C_7 
REMARK       I    between atoms: C_7  and  N_8 
REMARK    4  A    between atoms: N_8  and  C_9 
REMARK    5  A    between atoms: C_11  and  C_12 
ROOT
HETATM    1  C   UNL     1      41.254 -17.083   2.221  1.00  0.00     0.222 C 
HETATM    2  N   UNL     1      40.714 -15.819   2.325  1.00  0.00    -0.327 N 
HETATM    3  O   UNL     1      41.035 -17.877   1.306  1.00  0.00    -0.273 OA
HETATM    4  H   UNL     1      40.921 -15.287   3.160  1.00  0.00     0.169 HD
ENDROOT
BRANCH   2   5
HETATM    5  C   UNL     1      39.919 -15.135   1.379  1.00  0.00     0.035 A 
HETATM    6  C   UNL     1      40.390 -14.653   0.155  1.00  0.00     0.042 A 
HETATM    7  C   UNL     1      39.550 -13.938  -0.716  1.00  0.00    -0.021 A 
HETATM    8  C   UNL     1      38.216 -13.725  -0.347  1.00  0.00     0.012 A 
HETATM    9  C   UNL     1      37.734 -14.207   0.869  1.00  0.00     0.003 A 
HETATM   10  C   UNL     1      38.582 -14.904   1.728  1.00  0.00     0.029 A 
BRANCH   7  11
HETATM   11  C   UNL     1      40.048 -13.414  -1.979  1.00  0.00     0.010 A 
HETATM   12  C   UNL     1      41.368 -13.275  -2.472  1.00  0.00     0.152 A 
HETATM   13  N   UNL     1      41.413 -12.765  -3.706  1.00  0.00    -0.187 NA
HETATM   14  N   UNL     1      40.119 -12.569  -4.009  1.00  0.00    -0.289 N 
HETATM   15  H   UNL     1      39.890 -12.177  -4.916  1.00  0.00     0.188 HD
HETATM   16  C   UNL     1      39.265 -12.947  -3.014  1.00  0.00     0.123 A 
ENDBRANCH   7  11
ENDBRANCH   2   5
BRANCH   1  17
HETATM   17  C   UNL     1      42.267 -17.479   3.295  1.00  0.00     0.108 C 
BRANCH  17  18
HETATM   18  C   UNL     1      43.649 -17.964   2.861  1.00  0.00     0.048 C 
BRANCH  18  19
HETATM   19  C   UNL     1      43.935 -19.453   2.897  1.00  0.00    -0.057 A 
HETATM   20  C   UNL     1      44.468 -20.121   4.010  1.00  0.00     0.013 A 
HETATM   21  C   UNL     1      44.666 -21.510   3.998  1.00  0.00    -0.061 A 
HETATM   22  C   UNL     1      45.183 -22.224   5.213  1.00  0.00     0.048 C 
HETATM   23  C   UNL     1      44.350 -22.235   2.845  1.00  0.00     0.007 A 
HETATM   24  C   UNL     1      43.845 -21.584   1.723  1.00  0.00     0.001 A 
HETATM   25  C   UNL     1      43.636 -20.205   1.750  1.00  0.00     0.007 A 
ENDBRANCH  18  19
ENDBRANCH  17  18
ENDBRANCH   1  17
TORSDOF 5
ENDMDL
MODEL 5
REMARK VINA RESULT:      -8.1      2.205      3.579
REMARK  5 active torsions:
REMARK  status: ('A' for Active; 'I' for Inactive)
REMARK    1  A    between atoms: C_4  and  C_5 
REMARK    2  A    between atoms: C_5  and  C_6 
REMARK    3  A    between atoms: C_6  and  C_7 
REMARK       I    between atoms: C_7  and  N_8 
REMARK    4  A    between atoms: N_8  and  C_9 
REMARK    5  A    between atoms: C_11  and  C_12 
ROOT
HETATM    1  C   UNL     1      41.761 -16.768   0.663  1.00  0.00     0.222 C 
HETATM    2  N   UNL     1      40.852 -15.987  -0.019  1.00  0.00    -0.327 N 
HETATM    3  O   UNL     1      42.931 -16.952   0.330  1.00  0.00    -0.273 OA
HETATM    4  H   UNL     1      39.900 -15.968   0.323  1.00  0.00     0.169 HD
ENDROOT
BRANCH   2   5
HETATM    5  C   UNL     1      41.087 -15.158  -1.137  1.00  0.00     0.035 A 
HETATM    6  C   UNL     1      41.669 -13.889  -1.069  1.00  0.00     0.042 A 
HETATM    7  C   UNL     1      41.828 -13.100  -2.222  1.00  0.00    -0.021 A 
HETATM    8  C   UNL     1      41.407 -13.612  -3.455  1.00  0.00     0.012 A 
HETATM    9  C   UNL     1      40.831 -14.879  -3.536  1.00  0.00     0.003 A 
HETATM   10  C   UNL     1      40.669 -15.645  -2.382  1.00  0.00     0.029 A 
BRANCH   7  11
HETATM   11  C   UNL     1      42.410 -11.768  -2.147  1.00  0.00     0.010 A 
HETATM   12  C   UNL     1      43.161 -11.138  -1.125  1.00  0.00     0.152 A 
HETATM   13  N   UNL     1      43.543  -9.900  -1.448  1.00  0.00    -0.187 NA
HETATM   14  N   UNL     1      43.035  -9.727  -2.678  1.00  0.00    -0.289 N 
HETATM   15  H   UNL     1      43.194  -8.842  -3.146  1.00  0.00     0.188 HD
HETATM   16  C   UNL     1      42.356 -10.816  -3.143  1.00  0.00     0.123 A 
ENDBRANCH   7  11
ENDBRANCH   2   5
BRANCH   1  17
HETATM   17  C   UNL     1      41.279 -17.379   1.979  1.00  0.00     0.108 C 
BRANCH  17  18
HETATM   18  C   UNL     1      42.247 -17.438   3.160  1.00  0.00     0.048 C 
BRANCH  18  19
HETATM   19  C   UNL     1      43.112 -18.673   3.321  1.00  0.00    -0.057 A 
HETATM   20  C   UNL     1      43.190 -19.705   2.373  1.00  0.00     0.013 A 
HETATM   21  C   UNL     1      44.046 -20.800   2.559  1.00  0.00    -0.061 A 
HETATM   22  C   UNL     1      44.167 -21.869   1.513  1.00  0.00     0.048 C 
HETATM   23  C   UNL     1      44.814 -20.876   3.725  1.00  0.00     0.007 A 
HETATM   24  C   UNL     1      44.728 -19.876   4.689  1.00  0.00     0.001 A 
HETATM   25  C   UNL     1      43.887 -18.781   4.487  1.00  0.00     0.007 A 
ENDBRANCH  18  19
ENDBRANCH  17  18
ENDBRANCH   1  17
TORSDOF 5
ENDMDL
MODEL 6
REMARK VINA RESULT:      -7.9      2.734      7.877
REMARK  5 active torsions:
REMARK  status: ('A' for Active; 'I' for Inactive)
REMARK    1  A    between atoms: C_4  and  C_5 
REMARK    2  A    between atoms: C_5  and  C_6 
REMARK    3  A    between atoms: C_6  and  C_7 
REMARK       I    between atoms: C_7  and  N_8 
REMARK    4  A    between atoms: N_8  and  C_9 
REMARK    5  A    between atoms: C_11  and  C_12 
ROOT
HETATM    1  C   UNL     1      41.867 -17.021   1.129  1.00  0.00     0.222 C 
HETATM    2  N   UNL     1      43.054 -17.004   1.832  1.00  0.00    -0.327 N 
HETATM    3  O   UNL     1      40.992 -17.880   1.233  1.00  0.00    -0.273 OA
HETATM    4  H   UNL     1      43.721 -16.277   1.608  1.00  0.00     0.169 HD
ENDROOT
BRANCH   2   5
HETATM    5  C   UNL     1      43.457 -17.866   2.874  1.00  0.00     0.035 A 
HETATM    6  C   UNL     1      43.378 -17.550   4.233  1.00  0.00     0.042 A 
HETATM    7  C   UNL     1      43.844 -18.441   5.215  1.00  0.00    -0.021 A 
HETATM    8  C   UNL     1      44.379 -19.671   4.813  1.00  0.00     0.012 A 
HETATM    9  C   UNL     1      44.456 -20.000   3.460  1.00  0.00     0.003 A 
HETATM   10  C   UNL     1      44.001 -19.100   2.497  1.00  0.00     0.029 A 
BRANCH   7  11
HETATM   11  C   UNL     1      43.785 -18.100   6.629  1.00  0.00     0.010 A 
HETATM   12  C   UNL     1      43.479 -16.881   7.279  1.00  0.00     0.152 A 
HETATM   13  N   UNL     1      43.508 -16.978   8.611  1.00  0.00    -0.187 NA
HETATM   14  N   UNL     1      43.839 -18.262   8.822  1.00  0.00    -0.289 N 
HETATM   15  H   UNL     1      43.927 -18.587   9.779  1.00  0.00     0.188 HD
HETATM   16  C   UNL     1      44.008 -18.976   7.671  1.00  0.00     0.123 A 
ENDBRANCH   7  11
ENDBRANCH   2   5
BRANCH   1  17
HETATM   17  C   UNL     1      41.602 -15.825   0.215  1.00  0.00     0.108 C 
BRANCH  17  18
HETATM   18  C   UNL     1      41.274 -14.473   0.849  1.00  0.00     0.048 C 
BRANCH  18  19
HETATM   19  C   UNL     1      41.591 -14.270   2.318  1.00  0.00    -0.057 A 
HETATM   20  C   UNL     1      40.775 -14.726   3.365  1.00  0.00     0.013 A 
HETATM   21  C   UNL     1      41.147 -14.548   4.706  1.00  0.00    -0.061 A 
HETATM   22  C   UNL     1      40.298 -15.089   5.818  1.00  0.00     0.048 C 
HETATM   23  C   UNL     1      42.340 -13.880   5.001  1.00  0.00     0.007 A 
HETATM   24  C   UNL     1      43.147 -13.397   3.975  1.00  0.00     0.001 A 
HETATM   25  C   UNL     1      42.777 -13.595   2.644  1.00  0.00     0.007 A 
ENDBRANCH  18  19
ENDBRANCH  17  18
ENDBRANCH   1  17
TORSDOF 5
ENDMDL
MODEL 7
REMARK VINA RESULT:      -7.9      1.517      3.235
REMARK  5 active torsions:
REMARK  status: ('A' for Active; 'I' for Inactive)
REMARK    1  A    between atoms: C_4  and  C_5 
REMARK    2  A    between atoms: C_5  and  C_6 
REMARK    3  A    between atoms: C_6  and  C_7 
REMARK       I    between atoms: C_7  and  N_8 
REMARK    4  A    between atoms: N_8  and  C_9 
REMARK    5  A    between atoms: C_11  and  C_12 
ROOT
HETATM    1  C   UNL     1      43.540 -18.506   2.091  1.00  0.00     0.222 C 
HETATM    2  N   UNL     1      42.196 -18.358   1.820  1.00  0.00    -0.327 N 
HETATM    3  O   UNL     1      44.400 -17.643   1.916  1.00  0.00    -0.273 OA
HETATM    4  H   UNL     1      41.600 -19.166   1.946  1.00  0.00     0.169 HD
ENDROOT
BRANCH   2   5
HETATM    5  C   UNL     1      41.517 -17.189   1.415  1.00  0.00     0.035 A 
HETATM    6  C   UNL     1      41.554 -16.665   0.120  1.00  0.00     0.042 A 
HETATM    7  C   UNL     1      40.889 -15.468  -0.199  1.00  0.00    -0.021 A 
HETATM    8  C   UNL     1      40.167 -14.807   0.803  1.00  0.00     0.012 A 
HETATM    9  C   UNL     1      40.117 -15.326   2.096  1.00  0.00     0.003 A 
HETATM   10  C   UNL     1      40.792 -16.507   2.401  1.00  0.00     0.029 A 
BRANCH   7  11
HETATM   11  C   UNL     1      40.950 -14.909  -1.541  1.00  0.00     0.010 A 
HETATM   12  C   UNL     1      41.042 -15.536  -2.807  1.00  0.00     0.152 A 
HETATM   13  N   UNL     1      41.049 -14.667  -3.821  1.00  0.00    -0.187 NA
HETATM   14  N   UNL     1      40.966 -13.475  -3.209  1.00  0.00    -0.289 N 
HETATM   15  H   UNL     1      40.955 -12.638  -3.783  1.00  0.00     0.188 HD
HETATM   16  C   UNL     1      40.897 -13.565  -1.850  1.00  0.00     0.123 A 
ENDBRANCH   7  11
ENDBRANCH   2   5
BRANCH   1  17
HETATM   17  C   UNL     1      43.961 -19.826   2.736  1.00  0.00     0.108 C 
BRANCH  17  18
HETATM   18  C   UNL     1      44.343 -19.833   4.216  1.00  0.00     0.048 C 
BRANCH  18  19
HETATM   19  C   UNL     1      43.852 -18.697   5.092  1.00  0.00    -0.057 A 
HETATM   20  C   UNL     1      42.501 -18.348   5.239  1.00  0.00     0.013 A 
HETATM   21  C   UNL     1      42.106 -17.316   6.102  1.00  0.00    -0.061 A 
HETATM   22  C   UNL     1      40.654 -16.988   6.296  1.00  0.00     0.048 C 
HETATM   23  C   UNL     1      43.081 -16.606   6.809  1.00  0.00     0.007 A 
HETATM   24  C   UNL     1      44.428 -16.921   6.655  1.00  0.00     0.001 A 
HETATM   25  C   UNL     1      44.810 -17.961   5.807  1.00  0.00     0.007 A 
ENDBRANCH  18  19
ENDBRANCH  17  18
ENDBRANCH   1  17
TORSDOF 5
ENDMDL
MODEL 8
REMARK VINA RESULT:      -7.7      2.700      8.216
REMARK  5 active torsions:
REMARK  status: ('A' for Active; 'I' for Inactive)
REMARK    1  A    between atoms: C_4  and  C_5 
REMARK    2  A    between atoms: C_5  and  C_6 
REMARK    3  A    between atoms: C_6  and  C_7 
REMARK       I    between atoms: C_7  and  N_8 
REMARK    4  A    between atoms: N_8  and  C_9 
REMARK    5  A    between atoms: C_11  and  C_12 
ROOT
HETATM    1  C   UNL     1      41.169 -15.471   1.156  1.00  0.00     0.222 C 
HETATM    2  N   UNL     1      42.478 -15.820   1.410  1.00  0.00    -0.327 N 
HETATM    3  O   UNL     1      40.181 -16.000   1.664  1.00  0.00    -0.273 OA
HETATM    4  H   UNL     1      43.201 -15.352   0.877  1.00  0.00     0.169 HD
ENDROOT
BRANCH   2   5
HETATM    5  C   UNL     1      42.962 -16.740   2.365  1.00  0.00     0.035 A 
HETATM    6  C   UNL     1      43.273 -18.074   2.087  1.00  0.00     0.042 A 
HETATM    7  C   UNL     1      43.705 -18.946   3.102  1.00  0.00    -0.021 A 
HETATM    8  C   UNL     1      43.837 -18.453   4.407  1.00  0.00     0.012 A 
HETATM    9  C   UNL     1      43.536 -17.122   4.693  1.00  0.00     0.003 A 
HETATM   10  C   UNL     1      43.097 -16.273   3.679  1.00  0.00     0.029 A 
BRANCH   7  11
HETATM   11  C   UNL     1      44.003 -20.342   2.818  1.00  0.00     0.010 A 
HETATM   12  C   UNL     1      43.761 -21.128   1.666  1.00  0.00     0.152 A 
HETATM   13  N   UNL     1      44.212 -22.379   1.784  1.00  0.00    -0.187 NA
HETATM   14  N   UNL     1      44.743 -22.404   3.017  1.00  0.00    -0.289 N 
HETATM   15  H   UNL     1      45.158 -23.268   3.347  1.00  0.00     0.188 HD
HETATM   16  C   UNL     1      44.650 -21.210   3.672  1.00  0.00     0.123 A 
ENDBRANCH   7  11
ENDBRANCH   2   5
BRANCH   1  17
HETATM   17  C   UNL     1      40.952 -14.276   0.228  1.00  0.00     0.108 C 
BRANCH  17  18
HETATM   18  C   UNL     1      41.336 -14.410  -1.245  1.00  0.00     0.048 C 
BRANCH  18  19
HETATM   19  C   UNL     1      40.252 -14.767  -2.243  1.00  0.00    -0.057 A 
HETATM   20  C   UNL     1      39.127 -13.966  -2.499  1.00  0.00     0.013 A 
HETATM   21  C   UNL     1      38.182 -14.330  -3.469  1.00  0.00    -0.061 A 
HETATM   22  C   UNL     1      37.014 -13.438  -3.776  1.00  0.00     0.048 C 
HETATM   23  C   UNL     1      38.351 -15.525  -4.175  1.00  0.00     0.007 A 
HETATM   24  C   UNL     1      39.446 -16.344  -3.915  1.00  0.00     0.001 A 
HETATM   25  C   UNL     1      40.391 -15.966  -2.960  1.00  0.00     0.007 A 
ENDBRANCH  18  19
ENDBRANCH  17  18
ENDBRANCH   1  17
TORSDOF 5
ENDMDL
MODEL 9
REMARK VINA RESULT:      -7.7      2.471      8.339
REMARK  5 active torsions:
REMARK  status: ('A' for Active; 'I' for Inactive)
REMARK    1  A    between atoms: C_4  and  C_5 
REMARK    2  A    between atoms: C_5  and  C_6 
REMARK    3  A    between atoms: C_6  and  C_7 
REMARK       I    between atoms: C_7  and  N_8 
REMARK    4  A    between atoms: N_8  and  C_9 
REMARK    5  A    between atoms: C_11  and  C_12 
ROOT
HETATM    1  C   UNL     1      42.491 -16.102   2.275  1.00  0.00     0.222 C 
HETATM    2  N   UNL     1      42.385 -16.533   3.581  1.00  0.00    -0.327 N 
HETATM    3  O   UNL     1      43.423 -16.362   1.515  1.00  0.00    -0.273 OA
HETATM    4  H   UNL     1      41.600 -16.196   4.124  1.00  0.00     0.169 HD
ENDROOT
BRANCH   2   5
HETATM    5  C   UNL     1      43.226 -17.434   4.268  1.00  0.00     0.035 A 
HETATM    6  C   UNL     1      43.462 -18.753   3.869  1.00  0.00     0.042 A 
HETATM    7  C   UNL     1      44.276 -19.608   4.631  1.00  0.00    -0.021 A 
HETATM    8  C   UNL     1      44.868 -19.114   5.801  1.00  0.00     0.012 A 
HETATM    9  C   UNL     1      44.645 -17.798   6.204  1.00  0.00     0.003 A 
HETATM   10  C   UNL     1      43.825 -16.965   5.444  1.00  0.00     0.029 A 
BRANCH   7  11
HETATM   11  C   UNL     1      44.500 -20.989   4.229  1.00  0.00     0.010 A 
HETATM   12  C   UNL     1      44.482 -21.600   2.952  1.00  0.00     0.152 A 
HETATM   13  N   UNL     1      44.765 -22.904   2.995  1.00  0.00    -0.187 NA
HETATM   14  N   UNL     1      44.962 -23.138   4.302  1.00  0.00    -0.289 N 
HETATM   15  H   UNL     1      45.194 -24.081   4.594  1.00  0.00     0.188 HD
HETATM   16  C   UNL     1      44.822 -22.026   5.080  1.00  0.00     0.123 A 
ENDBRANCH   7  11
ENDBRANCH   2   5
BRANCH   1  17
HETATM   17  C   UNL     1      41.307 -15.308   1.724  1.00  0.00     0.108 C 
BRANCH  17  18
HETATM   18  C   UNL     1      40.802 -15.622   0.316  1.00  0.00     0.048 C 
BRANCH  18  19
HETATM   19  C   UNL     1      41.239 -14.722  -0.824  1.00  0.00    -0.057 A 
HETATM   20  C   UNL     1      41.869 -13.481  -0.645  1.00  0.00     0.013 A 
HETATM   21  C   UNL     1      42.292 -12.716  -1.742  1.00  0.00    -0.061 A 
HETATM   22  C   UNL     1      43.017 -11.417  -1.540  1.00  0.00     0.048 C 
HETATM   23  C   UNL     1      42.057 -13.189  -3.036  1.00  0.00     0.007 A 
HETATM   24  C   UNL     1      41.409 -14.406  -3.232  1.00  0.00     0.001 A 
HETATM   25  C   UNL     1      41.007 -15.168  -2.135  1.00  0.00     0.007 A 
ENDBRANCH  18  19
ENDBRANCH  17  18
ENDBRANCH   1  17
TORSDOF 5
ENDMDL
MODEL 10
REMARK VINA RESULT:      -7.6      2.500      7.547
REMARK  5 active torsions:
REMARK  status: ('A' for Active; 'I' for Inactive)
REMARK    1  A    between atoms: C_4  and  C_5 
REMARK    2  A    between atoms: C_5  and  C_6 
REMARK    3  A    between atoms: C_6  and  C_7 
REMARK       I    between atoms: C_7  and  N_8 
REMARK    4  A    between atoms: N_8  and  C_9 
REMARK    5  A    between atoms: C_11  and  C_12 
ROOT
HETATM    1  C   UNL     1      42.858 -14.491   3.185  1.00  0.00     0.222 C 
HETATM    2  N   UNL     1      42.368 -15.678   3.686  1.00  0.00    -0.327 N 
HETATM    3  O   UNL     1      44.047 -14.177   3.135  1.00  0.00    -0.273 OA
HETATM    4  H   UNL     1      41.363 -15.789   3.732  1.00  0.00     0.169 HD
ENDROOT
BRANCH   2   5
HETATM    5  C   UNL     1      43.100 -16.804   4.121  1.00  0.00     0.035 A 
HETATM    6  C   UNL     1      43.255 -17.978   3.378  1.00  0.00     0.042 A 
HETATM    7  C   UNL     1      43.959 -19.078   3.896  1.00  0.00    -0.021 A 
HETATM    8  C   UNL     1      44.525 -18.979   5.174  1.00  0.00     0.012 A 
HETATM    9  C   UNL     1      44.383 -17.810   5.921  1.00  0.00     0.003 A 
HETATM   10  C   UNL     1      43.671 -16.731   5.398  1.00  0.00     0.029 A 
BRANCH   7  11
HETATM   11  C   UNL     1      44.098 -20.310   3.133  1.00  0.00     0.010 A 
HETATM   12  C   UNL     1      44.619 -21.575   3.497  1.00  0.00     0.152 A 
HETATM   13  N   UNL     1      44.549 -22.471   2.510  1.00  0.00    -0.187 NA
HETATM   14  N   UNL     1      43.986 -21.783   1.503  1.00  0.00    -0.289 N 
HETATM   15  H   UNL     1      43.827 -22.259   0.622  1.00  0.00     0.188 HD
HETATM   16  C   UNL     1      43.692 -20.490   1.828  1.00  0.00     0.123 A 
ENDBRANCH   7  11
ENDBRANCH   2   5
BRANCH   1  17
HETATM   17  C   UNL     1      41.832 -13.537   2.574  1.00  0.00     0.108 C 
BRANCH  17  18
HETATM   18  C   UNL     1      40.803 -14.094   1.591  1.00  0.00     0.048 C 
BRANCH  18  19
HETATM   19  C   UNL     1      41.133 -14.069   0.111  1.00  0.00    -0.057 A 
HETATM   20  C   UNL     1      40.660 -15.012  -0.813  1.00  0.00     0.013 A 
HETATM   21  C   UNL     1      40.963 -14.907  -2.179  1.00  0.00    -0.061 A 
HETATM   22  C   UNL     1      40.405 -15.888  -3.168  1.00  0.00     0.048 C 
HETATM   23  C   UNL     1      41.774 -13.857  -2.620  1.00  0.00     0.007 A 
HETATM   24  C   UNL     1      42.274 -12.928  -1.712  1.00  0.00     0.001 A 
HETATM   25  C   UNL     1      41.953 -13.031  -0.358  1.00  0.00     0.007 A 
ENDBRANCH  18  19
ENDBRANCH  17  18
ENDBRANCH   1  17
TORSDOF 5
ENDMDL
