MODEL 1
REMARK VINA RESULT:      -8.5      0.000      0.000
REMARK  8 active torsions:
REMARK  status: ('A' for Active; 'I' for Inactive)
REMARK    1  A    between atoms: C_3  and  S_4 
REMARK    2  A    between atoms: S_4  and  C_5 
REMARK    3  A    between atoms: C_5  and  C_6 
REMARK       I    between atoms: C_6  and  N_7 
REMARK    4  A    between atoms: N_7  and  C_8 
REMARK    5  A    between atoms: C_8  and  C_9 
REMARK    6  A    between atoms: C_18  and  C_19 
REMARK    7  A    between atoms: C_19  and  O_20 
REMARK    8  A    between atoms: O_20  and  C_21 
ROOT
HETATM    1  C   UNL     1      41.507 -13.985  -0.079  1.00  0.00     0.160 C 
HETATM    2  N   UNL     1      40.735 -14.844   0.780  1.00  0.00    -0.314 N 
HETATM    3  C   UNL     1      39.579 -14.545   1.445  1.00  0.00     0.191 A 
HETATM    4  N   UNL     1      39.161 -15.600   2.104  1.00  0.00    -0.123 NA
HETATM    5  N   UNL     1      40.070 -16.606   1.906  1.00  0.00    -0.132 NA
HETATM    6  C   UNL     1      41.019 -16.151   1.110  1.00  0.00     0.154 A 
ENDROOT
BRANCH   3   7
HETATM    7  S   UNL     1      38.827 -12.991   1.448  1.00  0.00    -0.081 SA
BRANCH   7   8
HETATM    8  C   UNL     1      39.215 -12.413   3.125  1.00  0.00     0.185 C 
BRANCH   8   9
HETATM    9  C   UNL     1      40.691 -12.552   3.460  1.00  0.00     0.227 C 
HETATM   10  N   UNL     1      41.004 -13.567   4.332  1.00  0.00    -0.356 N 
HETATM   11  H   UNL     1      40.244 -14.130   4.709  1.00  0.00     0.162 HD
HETATM   12  O   UNL     1      41.528 -11.762   3.024  1.00  0.00    -0.273 OA
BRANCH  10  13
HETATM   13  C   UNL     1      42.320 -13.729   4.902  1.00  0.00     0.161 C 
BRANCH  13  14
HETATM   14  C   UNL     1      42.415 -14.946   5.788  1.00  0.00    -0.041 A 
HETATM   15  C   UNL     1      41.362 -15.873   5.822  1.00  0.00     0.009 A 
HETATM   16  C   UNL     1      41.450 -17.022   6.611  1.00  0.00     0.001 A 
HETATM   17  C   UNL     1      42.591 -17.258   7.375  1.00  0.00     0.000 A 
HETATM   18  C   UNL     1      43.645 -16.348   7.349  1.00  0.00     0.001 A 
HETATM   19  C   UNL     1      43.561 -15.201   6.557  1.00  0.00     0.009 A 
ENDBRANCH  13  14
ENDBRANCH  10  13
ENDBRANCH   8   9
ENDBRANCH   7   8
ENDBRANCH   3   7
BRANCH   6  20
HETATM   20  C   UNL     1      42.218 -16.906   0.651  1.00  0.00     0.256 C 
BRANCH  20  21
HETATM   21  O   UNL     1      43.230 -16.701   1.637  1.00  0.00    -0.344 OA
BRANCH  21  22
HETATM   22  C   UNL     1      43.604 -17.822   2.328  1.00  0.00     0.069 A 
HETATM   23  C   UNL     1      43.641 -19.112   1.798  1.00  0.00     0.044 A 
HETATM   24  C   UNL     1      44.033 -20.202   2.595  1.00  0.00    -0.049 A 
HETATM   25  C   UNL     1      44.359 -19.992   3.947  1.00  0.00    -0.052 A 
HETATM   26  C   UNL     1      44.025 -21.588   1.996  1.00  0.00     0.039 C 
HETATM   27  C   UNL     1      44.821 -21.123   4.834  1.00  0.00     0.039 C 
HETATM   28  C   UNL     1      44.309 -18.692   4.471  1.00  0.00     0.010 A 
HETATM   29  C   UNL     1      44.453 -22.502   4.290  1.00  0.00     0.005 C 
HETATM   30  C   UNL     1      44.816 -22.607   2.814  1.00  0.00     0.005 C 
HETATM   31  C   UNL     1      43.922 -17.619   3.669  1.00  0.00     0.037 A 
ENDBRANCH  21  22
ENDBRANCH  20  21
ENDBRANCH   6  20
TORSDOF 8
ENDMDL
MODEL 2
REMARK VINA RESULT:      -8.3      2.029      4.552
REMARK  8 active torsions:
REMARK  status: ('A' for Active; 'I' for Inactive)
REMARK    1  A    between atoms: C_3  and  S_4 
REMARK    2  A    between atoms: S_4  and  C_5 
REMARK    3  A    between atoms: C_5  and  C_6 
REMARK       I    between atoms: C_6  and  N_7 
REMARK    4  A    between atoms: N_7  and  C_8 
REMARK    5  A    between atoms: C_8  and  C_9 
REMARK    6  A    between atoms: C_18  and  C_19 
REMARK    7  A    between atoms: C_19  and  O_20 
REMARK    8  A    between atoms: O_20  and  C_21 
ROOT
HETATM    1  C   UNL     1      39.495 -11.606   3.483  1.00  0.00     0.160 C 
HETATM    2  N   UNL     1      40.699 -12.120   2.883  1.00  0.00    -0.314 N 
HETATM    3  C   UNL     1      40.995 -12.224   1.554  1.00  0.00     0.191 A 
HETATM    4  N   UNL     1      42.204 -12.715   1.405  1.00  0.00    -0.123 NA
HETATM    5  N   UNL     1      42.707 -12.976   2.653  1.00  0.00    -0.132 NA
HETATM    6  C   UNL     1      41.800 -12.619   3.544  1.00  0.00     0.154 A 
ENDROOT
BRANCH   3   7
HETATM    7  S   UNL     1      39.909 -11.816   0.275  1.00  0.00    -0.081 SA
BRANCH   7   8
HETATM    8  C   UNL     1      39.492 -13.460  -0.373  1.00  0.00     0.185 C 
BRANCH   8   9
HETATM    9  C   UNL     1      39.349 -14.500   0.728  1.00  0.00     0.227 C 
HETATM   10  N   UNL     1      40.355 -15.433   0.789  1.00  0.00    -0.356 N 
HETATM   11  H   UNL     1      41.099 -15.387   0.094  1.00  0.00     0.162 HD
HETATM   12  O   UNL     1      38.364 -14.527   1.464  1.00  0.00    -0.273 OA
BRANCH  10  13
HETATM   13  C   UNL     1      40.292 -16.595   1.644  1.00  0.00     0.161 C 
BRANCH  13  14
HETATM   14  C   UNL     1      41.643 -17.232   1.847  1.00  0.00    -0.041 A 
HETATM   15  C   UNL     1      41.761 -18.629   1.891  1.00  0.00     0.009 A 
HETATM   16  C   UNL     1      43.010 -19.235   2.045  1.00  0.00     0.001 A 
HETATM   17  C   UNL     1      44.157 -18.451   2.157  1.00  0.00     0.000 A 
HETATM   18  C   UNL     1      44.055 -17.063   2.112  1.00  0.00     0.001 A 
HETATM   19  C   UNL     1      42.808 -16.455   1.953  1.00  0.00     0.009 A 
ENDBRANCH  13  14
ENDBRANCH  10  13
ENDBRANCH   8   9
ENDBRANCH   7   8
ENDBRANCH   3   7
BRANCH   6  20
HETATM   20  C   UNL     1      41.924 -12.749   5.022  1.00  0.00     0.256 C 
BRANCH  20  21
HETATM   21  O   UNL     1      41.044 -13.804   5.413  1.00  0.00    -0.344 OA
BRANCH  21  22
HETATM   22  C   UNL     1      41.629 -15.035   5.529  1.00  0.00     0.069 A 
HETATM   23  C   UNL     1      42.974 -15.257   5.830  1.00  0.00     0.044 A 
HETATM   24  C   UNL     1      43.480 -16.565   5.919  1.00  0.00    -0.049 A 
HETATM   25  C   UNL     1      42.631 -17.658   5.670  1.00  0.00    -0.052 A 
HETATM   26  C   UNL     1      44.949 -16.763   6.209  1.00  0.00     0.039 C 
HETATM   27  C   UNL     1      43.118 -19.081   5.790  1.00  0.00     0.039 C 
HETATM   28  C   UNL     1      41.284 -17.423   5.360  1.00  0.00     0.010 A 
HETATM   29  C   UNL     1      44.640 -19.203   5.729  1.00  0.00     0.005 C 
HETATM   30  C   UNL     1      45.293 -18.184   6.653  1.00  0.00     0.005 C 
HETATM   31  C   UNL     1      40.792 -16.120   5.278  1.00  0.00     0.037 A 
ENDBRANCH  21  22
ENDBRANCH  20  21
ENDBRANCH   6  20
TORSDOF 8
ENDMDL
MODEL 3
REMARK VINA RESULT:      -8.2      4.364      5.107
REMARK  8 active torsions:
REMARK  status: ('A' for Active; 'I' for Inactive)
REMARK    1  A    between atoms: C_3  and  S_4 
REMARK    2  A    between atoms: S_4  and  C_5 
REMARK    3  A    between atoms: C_5  and  C_6 
REMARK       I    between atoms: C_6  and  N_7 
REMARK    4  A    between atoms: N_7  and  C_8 
REMARK    5  A    between atoms: C_8  and  C_9 
REMARK    6  A    between atoms: C_18  and  C_19 
REMARK    7  A    between atoms: C_19  and  O_20 
REMARK    8  A    between atoms: O_20  and  C_21 
ROOT
HETATM    1  C   UNL     1      39.701 -14.050   4.418  1.00  0.00     0.160 C 
HETATM    2  N   UNL     1      40.938 -13.834   5.122  1.00  0.00    -0.314 N 
HETATM    3  C   UNL     1      41.388 -12.676   5.690  1.00  0.00     0.191 A 
HETATM    4  N   UNL     1      42.549 -12.886   6.266  1.00  0.00    -0.123 NA
HETATM    5  N   UNL     1      42.896 -14.193   6.047  1.00  0.00    -0.132 NA
HETATM    6  C   UNL     1      41.926 -14.765   5.356  1.00  0.00     0.154 A 
ENDROOT
BRANCH   3   7
HETATM    7  S   UNL     1      40.563 -11.161   5.606  1.00  0.00    -0.081 SA
BRANCH   7   8
HETATM    8  C   UNL     1      40.328 -10.788   7.367  1.00  0.00     0.185 C 
BRANCH   8   9
HETATM    9  C   UNL     1      41.586 -10.230   8.016  1.00  0.00     0.227 C 
HETATM   10  N   UNL     1      42.134 -11.011   9.004  1.00  0.00    -0.356 N 
HETATM   11  H   UNL     1      41.660 -11.878   9.252  1.00  0.00     0.162 HD
HETATM   12  O   UNL     1      42.032  -9.125   7.710  1.00  0.00    -0.273 OA
BRANCH  10  13
HETATM   13  C   UNL     1      43.213 -10.558   9.849  1.00  0.00     0.161 C 
BRANCH  13  14
HETATM   14  C   UNL     1      42.806 -10.468  11.299  1.00  0.00    -0.041 A 
HETATM   15  C   UNL     1      41.608 -11.057  11.730  1.00  0.00     0.009 A 
HETATM   16  C   UNL     1      41.234 -11.012  13.074  1.00  0.00     0.001 A 
HETATM   17  C   UNL     1      42.054 -10.377  14.005  1.00  0.00     0.000 A 
HETATM   18  C   UNL     1      43.248  -9.791  13.593  1.00  0.00     0.001 A 
HETATM   19  C   UNL     1      43.626  -9.840  12.250  1.00  0.00     0.009 A 
ENDBRANCH  13  14
ENDBRANCH  10  13
ENDBRANCH   8   9
ENDBRANCH   7   8
ENDBRANCH   3   7
BRANCH   6  20
HETATM   20  C   UNL     1      41.900 -16.176   4.883  1.00  0.00     0.256 C 
BRANCH  20  21
HETATM   21  O   UNL     1      43.095 -16.374   4.127  1.00  0.00    -0.344 OA
BRANCH  21  22
HETATM   22  C   UNL     1      43.554 -17.662   4.091  1.00  0.00     0.069 A 
HETATM   23  C   UNL     1      43.407 -18.534   3.011  1.00  0.00     0.044 A 
HETATM   24  C   UNL     1      43.908 -19.845   3.077  1.00  0.00    -0.049 A 
HETATM   25  C   UNL     1      44.534 -20.292   4.255  1.00  0.00    -0.052 A 
HETATM   26  C   UNL     1      43.697 -20.770   1.902  1.00  0.00     0.039 C 
HETATM   27  C   UNL     1      45.122 -21.678   4.361  1.00  0.00     0.039 C 
HETATM   28  C   UNL     1      44.669 -19.410   5.337  1.00  0.00     0.010 A 
HETATM   29  C   UNL     1      44.573 -22.645   3.314  1.00  0.00     0.005 C 
HETATM   30  C   UNL     1      44.596 -22.005   1.933  1.00  0.00     0.005 C 
HETATM   31  C   UNL     1      44.169 -18.110   5.258  1.00  0.00     0.037 A 
ENDBRANCH  21  22
ENDBRANCH  20  21
ENDBRANCH   6  20
TORSDOF 8
ENDMDL
MODEL 4
REMARK VINA RESULT:      -8.2      1.506      2.303
REMARK  8 active torsions:
REMARK  status: ('A' for Active; 'I' for Inactive)
REMARK    1  A    between atoms: C_3  and  S_4 
REMARK    2  A    between atoms: S_4  and  C_5 
REMARK    3  A    between atoms: C_5  and  C_6 
REMARK       I    between atoms: C_6  and  N_7 
REMARK    4  A    between atoms: N_7  and  C_8 
REMARK    5  A    between atoms: C_8  and  C_9 
REMARK    6  A    between atoms: C_18  and  C_19 
REMARK    7  A    between atoms: C_19  and  O_20 
REMARK    8  A    between atoms: O_20  and  C_21 
ROOT
HETATM    1  C   UNL     1      40.583 -16.155   4.370  1.00  0.00     0.160 C 
HETATM    2  N   UNL     1      40.525 -15.149   3.342  1.00  0.00    -0.314 N 
HETATM    3  C   UNL     1      40.321 -13.806   3.493  1.00  0.00     0.191 A 
HETATM    4  N   UNL     1      40.365 -13.216   2.321  1.00  0.00    -0.123 NA
HETATM    5  N   UNL     1      40.563 -14.184   1.371  1.00  0.00    -0.132 NA
HETATM    6  C   UNL     1      40.658 -15.349   1.985  1.00  0.00     0.154 A 
ENDROOT
BRANCH   3   7
HETATM    7  S   UNL     1      40.003 -13.030   5.002  1.00  0.00    -0.081 SA
BRANCH   7   8
HETATM    8  C   UNL     1      41.580 -12.180   5.301  1.00  0.00     0.185 C 
BRANCH   8   9
HETATM    9  C   UNL     1      42.772 -13.119   5.208  1.00  0.00     0.227 C 
HETATM   10  N   UNL     1      43.107 -13.763   6.375  1.00  0.00    -0.356 N 
HETATM   11  H   UNL     1      42.565 -13.555   7.213  1.00  0.00     0.162 HD
HETATM   12  O   UNL     1      43.422 -13.234   4.170  1.00  0.00    -0.273 OA
BRANCH  10  13
HETATM   13  C   UNL     1      44.313 -14.542   6.519  1.00  0.00     0.161 C 
BRANCH  13  14
HETATM   14  C   UNL     1      44.026 -15.994   6.808  1.00  0.00    -0.041 A 
HETATM   15  C   UNL     1      45.082 -16.915   6.889  1.00  0.00     0.009 A 
HETATM   16  C   UNL     1      44.836 -18.256   7.190  1.00  0.00     0.001 A 
HETATM   17  C   UNL     1      43.533 -18.694   7.413  1.00  0.00     0.000 A 
HETATM   18  C   UNL     1      42.475 -17.791   7.339  1.00  0.00     0.001 A 
HETATM   19  C   UNL     1      42.719 -16.448   7.044  1.00  0.00     0.009 A 
ENDBRANCH  13  14
ENDBRANCH  10  13
ENDBRANCH   8   9
ENDBRANCH   7   8
ENDBRANCH   3   7
BRANCH   6  20
HETATM   20  C   UNL     1      40.855 -16.672   1.332  1.00  0.00     0.256 C 
BRANCH  20  21
HETATM   21  O   UNL     1      42.255 -16.796   1.078  1.00  0.00    -0.344 OA
BRANCH  21  22
HETATM   22  C   UNL     1      42.889 -17.782   1.785  1.00  0.00     0.069 A 
HETATM   23  C   UNL     1      42.934 -19.127   1.415  1.00  0.00     0.044 A 
HETATM   24  C   UNL     1      43.606 -20.066   2.217  1.00  0.00    -0.049 A 
HETATM   25  C   UNL     1      44.210 -19.650   3.417  1.00  0.00    -0.052 A 
HETATM   26  C   UNL     1      43.601 -21.518   1.804  1.00  0.00     0.039 C 
HETATM   27  C   UNL     1      44.975 -20.612   4.292  1.00  0.00     0.039 C 
HETATM   28  C   UNL     1      44.150 -18.297   3.782  1.00  0.00     0.010 A 
HETATM   29  C   UNL     1      44.633 -22.076   4.018  1.00  0.00     0.005 C 
HETATM   30  C   UNL     1      44.658 -22.357   2.521  1.00  0.00     0.005 C 
HETATM   31  C   UNL     1      43.483 -17.375   2.977  1.00  0.00     0.037 A 
ENDBRANCH  21  22
ENDBRANCH  20  21
ENDBRANCH   6  20
TORSDOF 8
ENDMDL
MODEL 5
REMARK VINA RESULT:      -8.2      4.386      4.832
REMARK  8 active torsions:
REMARK  status: ('A' for Active; 'I' for Inactive)
REMARK    1  A    between atoms: C_3  and  S_4 
REMARK    2  A    between atoms: S_4  and  C_5 
REMARK    3  A    between atoms: C_5  and  C_6 
REMARK       I    between atoms: C_6  and  N_7 
REMARK    4  A    between atoms: N_7  and  C_8 
REMARK    5  A    between atoms: C_8  and  C_9 
REMARK    6  A    between atoms: C_18  and  C_19 
REMARK    7  A    between atoms: C_19  and  O_20 
REMARK    8  A    between atoms: O_20  and  C_21 
ROOT
HETATM    1  C   UNL     1      39.885 -13.254   2.657  1.00  0.00     0.160 C 
HETATM    2  N   UNL     1      40.143 -13.946   3.893  1.00  0.00    -0.314 N 
HETATM    3  C   UNL     1      39.981 -13.476   5.166  1.00  0.00     0.191 A 
HETATM    4  N   UNL     1      40.294 -14.414   6.029  1.00  0.00    -0.123 NA
HETATM    5  N   UNL     1      40.707 -15.513   5.322  1.00  0.00    -0.132 NA
HETATM    6  C   UNL     1      40.618 -15.231   4.035  1.00  0.00     0.154 A 
ENDROOT
BRANCH   3   7
HETATM    7  S   UNL     1      39.488 -11.868   5.559  1.00  0.00    -0.081 SA
BRANCH   7   8
HETATM    8  C   UNL     1      40.685 -11.438   6.855  1.00  0.00     0.185 C 
BRANCH   8   9
HETATM    9  C   UNL     1      40.013 -11.079   8.171  1.00  0.00     0.227 C 
HETATM   10  N   UNL     1      40.800 -11.214   9.289  1.00  0.00    -0.356 N 
HETATM   11  H   UNL     1      41.750 -11.561   9.171  1.00  0.00     0.162 HD
HETATM   12  O   UNL     1      38.827 -10.755   8.221  1.00  0.00    -0.273 OA
BRANCH  10  13
HETATM   13  C   UNL     1      40.278 -11.097  10.630  1.00  0.00     0.161 C 
BRANCH  13  14
HETATM   14  C   UNL     1      41.323 -10.633  11.613  1.00  0.00    -0.041 A 
HETATM   15  C   UNL     1      41.079 -10.726  12.992  1.00  0.00     0.009 A 
HETATM   16  C   UNL     1      42.050 -10.331  13.916  1.00  0.00     0.001 A 
HETATM   17  C   UNL     1      43.276  -9.840  13.473  1.00  0.00     0.000 A 
HETATM   18  C   UNL     1      43.533  -9.744  12.107  1.00  0.00     0.001 A 
HETATM   19  C   UNL     1      42.566 -10.143  11.182  1.00  0.00     0.009 A 
ENDBRANCH  13  14
ENDBRANCH  10  13
ENDBRANCH   8   9
ENDBRANCH   7   8
ENDBRANCH   3   7
BRANCH   6  20
HETATM   20  C   UNL     1      40.985 -16.135   2.911  1.00  0.00     0.256 C 
BRANCH  20  21
HETATM   21  O   UNL     1      42.411 -16.139   2.841  1.00  0.00    -0.344 OA
BRANCH  21  22
HETATM   22  C   UNL     1      43.004 -17.341   3.119  1.00  0.00     0.069 A 
HETATM   23  C   UNL     1      42.966 -18.461   2.288  1.00  0.00     0.044 A 
HETATM   24  C   UNL     1      43.602 -19.656   2.670  1.00  0.00    -0.049 A 
HETATM   25  C   UNL     1      44.253 -19.730   3.914  1.00  0.00    -0.052 A 
HETATM   26  C   UNL     1      43.507 -20.858   1.761  1.00  0.00     0.039 C 
HETATM   27  C   UNL     1      44.982 -20.977   4.352  1.00  0.00     0.039 C 
HETATM   28  C   UNL     1      44.277 -18.600   4.744  1.00  0.00     0.010 A 
HETATM   29  C   UNL     1      44.554 -22.225   3.582  1.00  0.00     0.005 C 
HETATM   30  C   UNL     1      44.530 -21.945   2.085  1.00  0.00     0.005 C 
HETATM   31  C   UNL     1      43.645 -17.420   4.353  1.00  0.00     0.037 A 
ENDBRANCH  21  22
ENDBRANCH  20  21
ENDBRANCH   6  20
TORSDOF 8
ENDMDL
MODEL 6
REMARK VINA RESULT:      -8.1      3.539      4.686
REMARK  8 active torsions:
REMARK  status: ('A' for Active; 'I' for Inactive)
REMARK    1  A    between atoms: C_3  and  S_4 
REMARK    2  A    between atoms: S_4  and  C_5 
REMARK    3  A    between atoms: C_5  and  C_6 
REMARK       I    between atoms: C_6  and  N_7 
REMARK    4  A    between atoms: N_7  and  C_8 
REMARK    5  A    between atoms: C_8  and  C_9 
REMARK    6  A    between atoms: C_18  and  C_19 
REMARK    7  A    between atoms: C_19  and  O_20 
REMARK    8  A    between atoms: O_20  and  C_21 
ROOT
HETATM    1  C   UNL     1      40.357 -15.699   5.295  1.00  0.00     0.160 C 
HETATM    2  N   UNL     1      41.342 -14.661   5.452  1.00  0.00    -0.314 N 
HETATM    3  C   UNL     1      41.129 -13.318   5.593  1.00  0.00     0.191 A 
HETATM    4  N   UNL     1      42.278 -12.700   5.741  1.00  0.00    -0.123 NA
HETATM    5  N   UNL     1      43.273 -13.639   5.660  1.00  0.00    -0.132 NA
HETATM    6  C   UNL     1      42.710 -14.820   5.484  1.00  0.00     0.154 A 
ENDROOT
BRANCH   3   7
HETATM    7  S   UNL     1      39.578 -12.562   5.531  1.00  0.00    -0.081 SA
BRANCH   7   8
HETATM    8  C   UNL     1      39.135 -12.517   7.291  1.00  0.00     0.185 C 
BRANCH   8   9
HETATM    9  C   UNL     1      39.609 -11.246   7.977  1.00  0.00     0.227 C 
HETATM   10  N   UNL     1      40.940 -11.223   8.320  1.00  0.00    -0.356 N 
HETATM   11  H   UNL     1      41.503 -12.049   8.122  1.00  0.00     0.162 HD
HETATM   12  O   UNL     1      38.830 -10.335   8.256  1.00  0.00    -0.273 OA
BRANCH  10  13
HETATM   13  C   UNL     1      41.518 -10.184   9.137  1.00  0.00     0.161 C 
BRANCH  13  14
HETATM   14  C   UNL     1      42.856 -10.581   9.708  1.00  0.00    -0.041 A 
HETATM   15  C   UNL     1      43.743 -11.357   8.945  1.00  0.00     0.009 A 
HETATM   16  C   UNL     1      44.999 -11.704   9.447  1.00  0.00     0.001 A 
HETATM   17  C   UNL     1      45.384 -11.281  10.717  1.00  0.00     0.000 A 
HETATM   18  C   UNL     1      44.516 -10.508  11.485  1.00  0.00     0.001 A 
HETATM   19  C   UNL     1      43.262 -10.155  10.983  1.00  0.00     0.009 A 
ENDBRANCH  13  14
ENDBRANCH  10  13
ENDBRANCH   8   9
ENDBRANCH   7   8
ENDBRANCH   3   7
BRANCH   6  20
HETATM   20  C   UNL     1      43.423 -16.117   5.325  1.00  0.00     0.256 C 
BRANCH  20  21
HETATM   21  O   UNL     1      43.579 -16.325   3.921  1.00  0.00    -0.344 OA
BRANCH  21  22
HETATM   22  C   UNL     1      43.692 -17.633   3.536  1.00  0.00     0.069 A 
HETATM   23  C   UNL     1      44.208 -18.659   4.330  1.00  0.00     0.044 A 
HETATM   24  C   UNL     1      44.290 -19.973   3.837  1.00  0.00    -0.049 A 
HETATM   25  C   UNL     1      43.878 -20.248   2.520  1.00  0.00    -0.052 A 
HETATM   26  C   UNL     1      44.888 -21.048   4.713  1.00  0.00     0.039 C 
HETATM   27  C   UNL     1      43.911 -21.648   1.958  1.00  0.00     0.039 C 
HETATM   28  C   UNL     1      43.370 -19.208   1.729  1.00  0.00     0.010 A 
HETATM   29  C   UNL     1      44.832 -22.587   2.736  1.00  0.00     0.005 C 
HETATM   30  C   UNL     1      44.576 -22.464   4.232  1.00  0.00     0.005 C 
HETATM   31  C   UNL     1      43.291 -17.909   2.231  1.00  0.00     0.037 A 
ENDBRANCH  21  22
ENDBRANCH  20  21
ENDBRANCH   6  20
TORSDOF 8
ENDMDL
MODEL 7
REMARK VINA RESULT:      -8.1      4.254      5.295
REMARK  8 active torsions:
REMARK  status: ('A' for Active; 'I' for Inactive)
REMARK    1  A    between atoms: C_3  and  S_4 
REMARK    2  A    between atoms: S_4  and  C_5 
REMARK    3  A    between atoms: C_5  and  C_6 
REMARK       I    between atoms: C_6  and  N_7 
REMARK    4  A    between atoms: N_7  and  C_8 
REMARK    5  A    between atoms: C_8  and  C_9 
REMARK    6  A    between atoms: C_18  and  C_19 
REMARK    7  A    between atoms: C_19  and  O_20 
REMARK    8  A    between atoms: O_20  and  C_21 
ROOT
HETATM    1  C   UNL     1      41.520 -15.838   5.344  1.00  0.00     0.160 C 
HETATM    2  N   UNL     1      42.397 -15.001   4.568  1.00  0.00    -0.314 N 
HETATM    3  C   UNL     1      43.027 -13.854   4.961  1.00  0.00     0.191 A 
HETATM    4  N   UNL     1      43.766 -13.394   3.979  1.00  0.00    -0.123 NA
HETATM    5  N   UNL     1      43.598 -14.225   2.902  1.00  0.00    -0.132 NA
HETATM    6  C   UNL     1      42.772 -15.193   3.256  1.00  0.00     0.154 A 
ENDROOT
BRANCH   3   7
HETATM    7  S   UNL     1      42.826 -13.109   6.506  1.00  0.00    -0.081 SA
BRANCH   7   8
HETATM    8  C   UNL     1      44.279 -13.738   7.394  1.00  0.00     0.185 C 
BRANCH   8   9
HETATM    9  C   UNL     1      44.778 -12.767   8.453  1.00  0.00     0.227 C 
HETATM   10  N   UNL     1      43.842 -11.878   8.924  1.00  0.00    -0.356 N 
HETATM   11  H   UNL     1      42.905 -11.908   8.526  1.00  0.00     0.162 HD
HETATM   12  O   UNL     1      45.956 -12.748   8.805  1.00  0.00    -0.273 OA
BRANCH  10  13
HETATM   13  C   UNL     1      44.180 -10.773   9.788  1.00  0.00     0.161 C 
BRANCH  13  14
HETATM   14  C   UNL     1      43.323 -10.731  11.028  1.00  0.00    -0.041 A 
HETATM   15  C   UNL     1      43.837 -10.196  12.219  1.00  0.00     0.009 A 
HETATM   16  C   UNL     1      43.045 -10.119  13.367  1.00  0.00     0.001 A 
HETATM   17  C   UNL     1      41.729 -10.577  13.338  1.00  0.00     0.000 A 
HETATM   18  C   UNL     1      41.204 -11.108  12.163  1.00  0.00     0.001 A 
HETATM   19  C   UNL     1      41.993 -11.181  11.013  1.00  0.00     0.009 A 
ENDBRANCH  13  14
ENDBRANCH  10  13
ENDBRANCH   8   9
ENDBRANCH   7   8
ENDBRANCH   3   7
BRANCH   6  20
HETATM   20  C   UNL     1      42.298 -16.304   2.386  1.00  0.00     0.256 C 
BRANCH  20  21
HETATM   21  O   UNL     1      43.466 -16.951   1.880  1.00  0.00    -0.344 OA
BRANCH  21  22
HETATM   22  C   UNL     1      43.708 -18.197   2.393  1.00  0.00     0.069 A 
HETATM   23  C   UNL     1      43.966 -18.472   3.737  1.00  0.00     0.044 A 
HETATM   24  C   UNL     1      44.212 -19.789   4.162  1.00  0.00    -0.049 A 
HETATM   25  C   UNL     1      44.229 -20.833   3.218  1.00  0.00    -0.052 A 
HETATM   26  C   UNL     1      44.524 -20.042   5.617  1.00  0.00     0.039 C 
HETATM   27  C   UNL     1      44.450 -22.268   3.631  1.00  0.00     0.039 C 
HETATM   28  C   UNL     1      43.976 -20.543   1.870  1.00  0.00     0.010 A 
HETATM   29  C   UNL     1      45.098 -22.404   5.007  1.00  0.00     0.005 C 
HETATM   30  C   UNL     1      44.393 -21.511   6.019  1.00  0.00     0.005 C 
HETATM   31  C   UNL     1      43.731 -19.232   1.461  1.00  0.00     0.037 A 
ENDBRANCH  21  22
ENDBRANCH  20  21
ENDBRANCH   6  20
TORSDOF 8
ENDMDL
MODEL 8
REMARK VINA RESULT:      -7.6      4.788      5.640
REMARK  8 active torsions:
REMARK  status: ('A' for Active; 'I' for Inactive)
REMARK    1  A    between atoms: C_3  and  S_4 
REMARK    2  A    between atoms: S_4  and  C_5 
REMARK    3  A    between atoms: C_5  and  C_6 
REMARK       I    between atoms: C_6  and  N_7 
REMARK    4  A    between atoms: N_7  and  C_8 
REMARK    5  A    between atoms: C_8  and  C_9 
REMARK    6  A    between atoms: C_18  and  C_19 
REMARK    7  A    between atoms: C_19  and  O_20 
REMARK    8  A    between atoms: O_20  and  C_21 
ROOT
HETATM    1  C   UNL     1      44.059 -13.770   6.664  1.00  0.00     0.160 C 
HETATM    2  N   UNL     1      42.917 -13.458   5.843  1.00  0.00    -0.314 N 
HETATM    3  C   UNL     1      42.014 -12.447   6.012  1.00  0.00     0.191 A 
HETATM    4  N   UNL     1      41.132 -12.473   5.040  1.00  0.00    -0.123 NA
HETATM    5  N   UNL     1      41.429 -13.538   4.232  1.00  0.00    -0.132 NA
HETATM    6  C   UNL     1      42.504 -14.134   4.716  1.00  0.00     0.154 A 
ENDROOT
BRANCH   3   7
HETATM    7  S   UNL     1      42.018 -11.345   7.341  1.00  0.00    -0.081 SA
BRANCH   7   8
HETATM    8  C   UNL     1      40.244 -11.010   7.529  1.00  0.00     0.185 C 
BRANCH   8   9
HETATM    9  C   UNL     1      39.849 -10.760   8.976  1.00  0.00     0.227 C 
HETATM   10  N   UNL     1      40.672 -11.330   9.917  1.00  0.00    -0.356 N 
HETATM   11  H   UNL     1      41.458 -11.892   9.593  1.00  0.00     0.162 HD
HETATM   12  O   UNL     1      38.826 -10.142   9.267  1.00  0.00    -0.273 OA
BRANCH  10  13
HETATM   13  C   UNL     1      40.352 -11.353  11.324  1.00  0.00     0.161 C 
BRANCH  13  14
HETATM   14  C   UNL     1      41.443 -10.749  12.171  1.00  0.00    -0.041 A 
HETATM   15  C   UNL     1      42.569 -10.176  11.561  1.00  0.00     0.009 A 
HETATM   16  C   UNL     1      43.572  -9.582  12.330  1.00  0.00     0.001 A 
HETATM   17  C   UNL     1      43.462  -9.554  13.719  1.00  0.00     0.000 A 
HETATM   18  C   UNL     1      42.349 -10.117  14.338  1.00  0.00     0.001 A 
HETATM   19  C   UNL     1      41.342 -10.706  13.571  1.00  0.00     0.009 A 
ENDBRANCH  13  14
ENDBRANCH  10  13
ENDBRANCH   8   9
ENDBRANCH   7   8
ENDBRANCH   3   7
BRANCH   6  20
HETATM   20  C   UNL     1      43.161 -15.348   4.159  1.00  0.00     0.256 C 
BRANCH  20  21
HETATM   21  O   UNL     1      43.216 -16.303   5.219  1.00  0.00    -0.344 OA
BRANCH  21  22
HETATM   22  C   UNL     1      43.597 -17.564   4.846  1.00  0.00     0.069 A 
HETATM   23  C   UNL     1      43.371 -18.128   3.590  1.00  0.00     0.044 A 
HETATM   24  C   UNL     1      43.794 -19.439   3.309  1.00  0.00    -0.049 A 
HETATM   25  C   UNL     1      44.422 -20.197   4.314  1.00  0.00    -0.052 A 
HETATM   26  C   UNL     1      43.498 -20.029   1.951  1.00  0.00     0.039 C 
HETATM   27  C   UNL     1      44.928 -21.595   4.049  1.00  0.00     0.039 C 
HETATM   28  C   UNL     1      44.636 -19.623   5.574  1.00  0.00     0.010 A 
HETATM   29  C   UNL     1      44.296 -22.240   2.818  1.00  0.00     0.005 C 
HETATM   30  C   UNL     1      44.322 -21.277   1.639  1.00  0.00     0.005 C 
HETATM   31  C   UNL     1      44.213 -18.320   5.840  1.00  0.00     0.037 A 
ENDBRANCH  21  22
ENDBRANCH  20  21
ENDBRANCH   6  20
TORSDOF 8
ENDMDL
MODEL 9
REMARK VINA RESULT:      -7.5      4.419      8.893
REMARK  8 active torsions:
REMARK  status: ('A' for Active; 'I' for Inactive)
REMARK    1  A    between atoms: C_3  and  S_4 
REMARK    2  A    between atoms: S_4  and  C_5 
REMARK    3  A    between atoms: C_5  and  C_6 
REMARK       I    between atoms: C_6  and  N_7 
REMARK    4  A    between atoms: N_7  and  C_8 
REMARK    5  A    between atoms: C_8  and  C_9 
REMARK    6  A    between atoms: C_18  and  C_19 
REMARK    7  A    between atoms: C_19  and  O_20 
REMARK    8  A    between atoms: O_20  and  C_21 
ROOT
HETATM    1  C   UNL     1      43.004 -13.662   5.999  1.00  0.00     0.160 C 
HETATM    2  N   UNL     1      41.574 -13.633   5.830  1.00  0.00    -0.314 N 
HETATM    3  C   UNL     1      40.755 -14.655   5.441  1.00  0.00     0.191 A 
HETATM    4  N   UNL     1      39.508 -14.246   5.432  1.00  0.00    -0.123 NA
HETATM    5  N   UNL     1      39.499 -12.922   5.784  1.00  0.00    -0.132 NA
HETATM    6  C   UNL     1      40.743 -12.551   6.022  1.00  0.00     0.154 A 
ENDROOT
BRANCH   3   7
HETATM    7  S   UNL     1      41.304 -16.227   4.983  1.00  0.00    -0.081 SA
BRANCH   7   8
HETATM    8  C   UNL     1      40.886 -16.247   3.216  1.00  0.00     0.185 C 
BRANCH   8   9
HETATM    9  C   UNL     1      41.852 -17.092   2.400  1.00  0.00     0.227 C 
HETATM   10  N   UNL     1      43.006 -17.458   3.049  1.00  0.00    -0.356 N 
HETATM   11  H   UNL     1      43.150 -17.126   4.002  1.00  0.00     0.162 HD
HETATM   12  O   UNL     1      41.630 -17.366   1.222  1.00  0.00    -0.273 OA
BRANCH  10  13
HETATM   13  C   UNL     1      44.111 -18.098   2.376  1.00  0.00     0.161 C 
BRANCH  13  14
HETATM   14  C   UNL     1      44.191 -19.573   2.681  1.00  0.00    -0.041 A 
HETATM   15  C   UNL     1      43.737 -20.510   1.740  1.00  0.00     0.009 A 
HETATM   16  C   UNL     1      43.836 -21.880   1.994  1.00  0.00     0.001 A 
HETATM   17  C   UNL     1      44.390 -22.330   3.190  1.00  0.00     0.000 A 
HETATM   18  C   UNL     1      44.848 -21.412   4.132  1.00  0.00     0.001 A 
HETATM   19  C   UNL     1      44.755 -20.042   3.878  1.00  0.00     0.009 A 
ENDBRANCH  13  14
ENDBRANCH  10  13
ENDBRANCH   8   9
ENDBRANCH   7   8
ENDBRANCH   3   7
BRANCH   6  20
HETATM   20  C   UNL     1      41.193 -11.187   6.414  1.00  0.00     0.256 C 
BRANCH  20  21
HETATM   21  O   UNL     1      40.452 -10.834   7.582  1.00  0.00    -0.344 OA
BRANCH  21  22
HETATM   22  C   UNL     1      41.192 -10.713   8.727  1.00  0.00     0.069 A 
HETATM   23  C   UNL     1      40.662 -10.576  10.011  1.00  0.00     0.044 A 
HETATM   24  C   UNL     1      41.511 -10.449  11.124  1.00  0.00    -0.049 A 
HETATM   25  C   UNL     1      42.905 -10.427  10.937  1.00  0.00    -0.052 A 
HETATM   26  C   UNL     1      40.900 -10.266  12.493  1.00  0.00     0.039 C 
HETATM   27  C   UNL     1      43.857 -10.331  12.104  1.00  0.00     0.039 C 
HETATM   28  C   UNL     1      43.425 -10.556   9.642  1.00  0.00     0.010 A 
HETATM   29  C   UNL     1      43.198  -9.800  13.376  1.00  0.00     0.005 C 
HETATM   30  C   UNL     1      41.882 -10.522  13.635  1.00  0.00     0.005 C 
HETATM   31  C   UNL     1      42.572 -10.685   8.545  1.00  0.00     0.037 A 
ENDBRANCH  21  22
ENDBRANCH  20  21
ENDBRANCH   6  20
TORSDOF 8
ENDMDL
MODEL 10
REMARK VINA RESULT:      -7.4      3.619      4.432
REMARK  8 active torsions:
REMARK  status: ('A' for Active; 'I' for Inactive)
REMARK    1  A    between atoms: C_3  and  S_4 
REMARK    2  A    between atoms: S_4  and  C_5 
REMARK    3  A    between atoms: C_5  and  C_6 
REMARK       I    between atoms: C_6  and  N_7 
REMARK    4  A    between atoms: N_7  and  C_8 
REMARK    5  A    between atoms: C_8  and  C_9 
REMARK    6  A    between atoms: C_18  and  C_19 
REMARK    7  A    between atoms: C_19  and  O_20 
REMARK    8  A    between atoms: O_20  and  C_21 
ROOT
HETATM    1  C   UNL     1      42.672 -13.196   6.025  1.00  0.00     0.160 C 
HETATM    2  N   UNL     1      41.643 -13.104   5.023  1.00  0.00    -0.314 N 
HETATM    3  C   UNL     1      41.041 -11.976   4.540  1.00  0.00     0.191 A 
HETATM    4  N   UNL     1      40.171 -12.299   3.611  1.00  0.00    -0.123 NA
HETATM    5  N   UNL     1      40.165 -13.665   3.499  1.00  0.00    -0.132 NA
HETATM    6  C   UNL     1      41.051 -14.150   4.351  1.00  0.00     0.154 A 
ENDROOT
BRANCH   3   7
HETATM    7  S   UNL     1      41.354 -10.378   5.115  1.00  0.00    -0.081 SA
BRANCH   7   8
HETATM    8  C   UNL     1      39.828 -10.028   6.034  1.00  0.00     0.185 C 
BRANCH   8   9
HETATM    9  C   UNL     1      39.789 -10.726   7.384  1.00  0.00     0.227 C 
HETATM   10  N   UNL     1      40.517 -10.121   8.380  1.00  0.00    -0.356 N 
HETATM   11  H   UNL     1      41.045  -9.281   8.150  1.00  0.00     0.162 HD
HETATM   12  O   UNL     1      39.195 -11.792   7.541  1.00  0.00    -0.273 OA
BRANCH  10  13
HETATM   13  C   UNL     1      40.744 -10.738   9.665  1.00  0.00     0.161 C 
BRANCH  13  14
HETATM   14  C   UNL     1      42.204 -10.752  10.045  1.00  0.00    -0.041 A 
HETATM   15  C   UNL     1      43.168 -11.165   9.112  1.00  0.00     0.009 A 
HETATM   16  C   UNL     1      44.526 -11.151   9.437  1.00  0.00     0.001 A 
HETATM   17  C   UNL     1      44.937 -10.724  10.698  1.00  0.00     0.000 A 
HETATM   18  C   UNL     1      43.992 -10.309  11.632  1.00  0.00     0.001 A 
HETATM   19  C   UNL     1      42.634 -10.316  11.308  1.00  0.00     0.009 A 
ENDBRANCH  13  14
ENDBRANCH  10  13
ENDBRANCH   8   9
ENDBRANCH   7   8
ENDBRANCH   3   7
BRANCH   6  20
HETATM   20  C   UNL     1      41.355 -15.590   4.574  1.00  0.00     0.256 C 
BRANCH  20  21
HETATM   21  O   UNL     1      41.957 -16.071   3.372  1.00  0.00    -0.344 OA
BRANCH  21  22
HETATM   22  C   UNL     1      42.668 -17.233   3.501  1.00  0.00     0.069 A 
HETATM   23  C   UNL     1      42.634 -18.295   2.596  1.00  0.00     0.044 A 
HETATM   24  C   UNL     1      43.398 -19.453   2.825  1.00  0.00    -0.049 A 
HETATM   25  C   UNL     1      44.177 -19.553   3.992  1.00  0.00    -0.052 A 
HETATM   26  C   UNL     1      43.306 -20.596   1.842  1.00  0.00     0.039 C 
HETATM   27  C   UNL     1      45.043 -20.759   4.263  1.00  0.00     0.039 C 
HETATM   28  C   UNL     1      44.196 -18.483   4.897  1.00  0.00     0.010 A 
HETATM   29  C   UNL     1      44.638 -21.985   3.447  1.00  0.00     0.005 C 
HETATM   30  C   UNL     1      44.440 -21.610   1.984  1.00  0.00     0.005 C 
HETATM   31  C   UNL     1      43.436 -17.338   4.658  1.00  0.00     0.037 A 
ENDBRANCH  21  22
ENDBRANCH  20  21
ENDBRANCH   6  20
TORSDOF 8
ENDMDL
