MODEL 1
REMARK VINA RESULT:      -8.3      0.000      0.000
REMARK  4 active torsions:
REMARK  status: ('A' for Active; 'I' for Inactive)
REMARK    1  A    between atoms: C_4  and  C_5 
REMARK    2  A    between atoms: C_6  and  C_7 
REMARK       I    between atoms: C_7  and  N_8 
REMARK    3  A    between atoms: N_8  and  C_9 
REMARK    4  A    between atoms: C_11  and  C_12 
ROOT
HETATM    1  C   UNL     1      42.779 -15.523   3.494  1.00  0.00     0.035 A 
HETATM    2  C   UNL     1      42.965 -16.463   4.514  1.00  0.00     0.042 A 
HETATM    3  C   UNL     1      43.551 -16.109   5.744  1.00  0.00    -0.021 A 
HETATM    4  C   UNL     1      43.991 -14.790   5.915  1.00  0.00     0.012 A 
HETATM    5  C   UNL     1      43.856 -13.855   4.888  1.00  0.00     0.003 A 
HETATM    6  C   UNL     1      43.257 -14.223   3.684  1.00  0.00     0.029 A 
ENDROOT
BRANCH   1   7
HETATM    7  N   UNL     1      42.180 -15.800   2.249  1.00  0.00    -0.324 N 
HETATM    8  C   UNL     1      42.114 -16.923   1.474  1.00  0.00     0.245 C 
HETATM    9  O   UNL     1      41.716 -16.832   0.313  1.00  0.00    -0.268 OA
HETATM   10  H   UNL     1      41.723 -15.020   1.792  1.00  0.00     0.169 HD
BRANCH   8  11
HETATM   11  C   UNL     1      42.440 -18.239   2.059  1.00  0.00     0.077 C 
HETATM   12  C   UNL     1      43.603 -18.832   1.752  1.00  0.00     0.042 C 
BRANCH  12  13
HETATM   13  C   UNL     1      43.950 -20.078   2.336  1.00  0.00     0.075 A 
HETATM   14  O   UNL     1      44.280 -20.240   3.666  1.00  0.00    -0.316 OA
HETATM   15  C   UNL     1      44.588 -21.546   3.880  1.00  0.00     0.050 A 
HETATM   16  C   UNL     1      44.981 -21.910   5.256  1.00  0.00     0.076 C 
HETATM   17  C   UNL     1      44.454 -22.259   2.714  1.00  0.00     0.035 A 
HETATM   18  C   UNL     1      44.055 -21.323   1.729  1.00  0.00     0.039 A 
ENDBRANCH  12  13
ENDBRANCH   8  11
ENDBRANCH   1   7
BRANCH   3  19
HETATM   19  C   UNL     1      43.698 -17.079   6.825  1.00  0.00     0.010 A 
HETATM   20  C   UNL     1      44.262 -18.381   6.832  1.00  0.00     0.152 A 
HETATM   21  N   UNL     1      44.225 -18.963   8.034  1.00  0.00    -0.187 NA
HETATM   22  N   UNL     1      43.639 -18.038   8.810  1.00  0.00    -0.289 N 
HETATM   23  H   UNL     1      43.497 -18.253   9.791  1.00  0.00     0.188 HD
HETATM   24  C   UNL     1      43.311 -16.895   8.138  1.00  0.00     0.123 A 
ENDBRANCH   3  19
TORSDOF 4
ENDMDL
MODEL 2
REMARK VINA RESULT:      -8.1      1.962      5.083
REMARK  4 active torsions:
REMARK  status: ('A' for Active; 'I' for Inactive)
REMARK    1  A    between atoms: C_4  and  C_5 
REMARK    2  A    between atoms: C_6  and  C_7 
REMARK       I    between atoms: C_7  and  N_8 
REMARK    3  A    between atoms: N_8  and  C_9 
REMARK    4  A    between atoms: C_11  and  C_12 
ROOT
HETATM    1  C   UNL     1      44.450 -20.735   4.905  1.00  0.00     0.035 A 
HETATM    2  C   UNL     1      44.289 -19.369   5.163  1.00  0.00     0.042 A 
HETATM    3  C   UNL     1      43.940 -18.898   6.443  1.00  0.00    -0.021 A 
HETATM    4  C   UNL     1      43.710 -19.837   7.456  1.00  0.00     0.012 A 
HETATM    5  C   UNL     1      43.819 -21.204   7.199  1.00  0.00     0.003 A 
HETATM    6  C   UNL     1      44.182 -21.648   5.929  1.00  0.00     0.029 A 
ENDROOT
BRANCH   1   7
HETATM    7  N   UNL     1      44.820 -21.276   3.658  1.00  0.00    -0.324 N 
HETATM    8  C   UNL     1      44.255 -21.229   2.415  1.00  0.00     0.245 C 
HETATM    9  O   UNL     1      44.668 -21.984   1.535  1.00  0.00    -0.268 OA
HETATM   10  H   UNL     1      45.654 -21.851   3.651  1.00  0.00     0.169 HD
BRANCH   8  11
HETATM   11  C   UNL     1      43.218 -20.221   2.119  1.00  0.00     0.077 C 
HETATM   12  C   UNL     1      43.567 -18.936   1.958  1.00  0.00     0.042 C 
BRANCH  12  13
HETATM   13  C   UNL     1      42.588 -17.960   1.634  1.00  0.00     0.075 A 
HETATM   14  O   UNL     1      42.527 -17.305   0.421  1.00  0.00    -0.316 OA
HETATM   15  C   UNL     1      41.497 -16.420   0.459  1.00  0.00     0.050 A 
HETATM   16  C   UNL     1      41.281 -15.612  -0.757  1.00  0.00     0.076 C 
HETATM   17  C   UNL     1      40.863 -16.486   1.676  1.00  0.00     0.035 A 
HETATM   18  C   UNL     1      41.562 -17.462   2.427  1.00  0.00     0.039 A 
ENDBRANCH  12  13
ENDBRANCH   8  11
ENDBRANCH   1   7
BRANCH   3  19
HETATM   19  C   UNL     1      43.822 -17.470   6.723  1.00  0.00     0.010 A 
HETATM   20  C   UNL     1      43.843 -16.350   5.853  1.00  0.00     0.152 A 
HETATM   21  N   UNL     1      43.691 -15.186   6.491  1.00  0.00    -0.187 NA
HETATM   22  N   UNL     1      43.569 -15.549   7.776  1.00  0.00    -0.289 N 
HETATM   23  H   UNL     1      43.440 -14.823   8.472  1.00  0.00     0.188 HD
HETATM   24  C   UNL     1      43.634 -16.900   7.967  1.00  0.00     0.123 A 
ENDBRANCH   3  19
TORSDOF 4
ENDMDL
MODEL 3
REMARK VINA RESULT:      -8.1      2.861      5.962
REMARK  4 active torsions:
REMARK  status: ('A' for Active; 'I' for Inactive)
REMARK    1  A    between atoms: C_4  and  C_5 
REMARK    2  A    between atoms: C_6  and  C_7 
REMARK       I    between atoms: C_7  and  N_8 
REMARK    3  A    between atoms: N_8  and  C_9 
REMARK    4  A    between atoms: C_11  and  C_12 
ROOT
HETATM    1  C   UNL     1      44.342 -18.379   6.755  1.00  0.00     0.035 A 
HETATM    2  C   UNL     1      44.566 -19.062   5.554  1.00  0.00     0.042 A 
HETATM    3  C   UNL     1      44.313 -20.442   5.434  1.00  0.00    -0.021 A 
HETATM    4  C   UNL     1      43.871 -21.137   6.566  1.00  0.00     0.012 A 
HETATM    5  C   UNL     1      43.691 -20.477   7.782  1.00  0.00     0.003 A 
HETATM    6  C   UNL     1      43.930 -19.107   7.875  1.00  0.00     0.029 A 
ENDROOT
BRANCH   1   7
HETATM    7  N   UNL     1      44.549 -16.998   6.941  1.00  0.00    -0.324 N 
HETATM    8  C   UNL     1      44.103 -15.889   6.281  1.00  0.00     0.245 C 
HETATM    9  O   UNL     1      44.621 -14.797   6.514  1.00  0.00    -0.268 OA
HETATM   10  H   UNL     1      45.180 -16.739   7.691  1.00  0.00     0.169 HD
BRANCH   8  11
HETATM   11  C   UNL     1      42.953 -15.996   5.360  1.00  0.00     0.077 C 
HETATM   12  C   UNL     1      43.166 -16.245   4.060  1.00  0.00     0.042 C 
BRANCH  12  13
HETATM   13  C   UNL     1      42.071 -16.391   3.168  1.00  0.00     0.075 A 
HETATM   14  O   UNL     1      41.047 -15.474   3.049  1.00  0.00    -0.316 OA
HETATM   15  C   UNL     1      40.154 -15.937   2.136  1.00  0.00     0.050 A 
HETATM   16  C   UNL     1      38.974 -15.087   1.882  1.00  0.00     0.076 C 
HETATM   17  C   UNL     1      40.576 -17.144   1.634  1.00  0.00     0.035 A 
HETATM   18  C   UNL     1      41.793 -17.437   2.296  1.00  0.00     0.039 A 
ENDBRANCH  12  13
ENDBRANCH   8  11
ENDBRANCH   1   7
BRANCH   3  19
HETATM   19  C   UNL     1      44.499 -21.143   4.167  1.00  0.00     0.010 A 
HETATM   20  C   UNL     1      44.645 -22.525   3.885  1.00  0.00     0.152 A 
HETATM   21  N   UNL     1      44.783 -22.785   2.582  1.00  0.00    -0.187 NA
HETATM   22  N   UNL     1      44.725 -21.571   2.016  1.00  0.00    -0.289 N 
HETATM   23  H   UNL     1      44.808 -21.505   1.007  1.00  0.00     0.188 HD
HETATM   24  C   UNL     1      44.551 -20.559   2.916  1.00  0.00     0.123 A 
ENDBRANCH   3  19
TORSDOF 4
ENDMDL
MODEL 4
REMARK VINA RESULT:      -7.9      2.180      5.000
REMARK  4 active torsions:
REMARK  status: ('A' for Active; 'I' for Inactive)
REMARK    1  A    between atoms: C_4  and  C_5 
REMARK    2  A    between atoms: C_6  and  C_7 
REMARK       I    between atoms: C_7  and  N_8 
REMARK    3  A    between atoms: N_8  and  C_9 
REMARK    4  A    between atoms: C_11  and  C_12 
ROOT
HETATM    1  C   UNL     1      43.089 -15.141   6.045  1.00  0.00     0.035 A 
HETATM    2  C   UNL     1      41.969 -15.423   5.254  1.00  0.00     0.042 A 
HETATM    3  C   UNL     1      41.844 -14.916   3.947  1.00  0.00    -0.021 A 
HETATM    4  C   UNL     1      42.853 -14.075   3.462  1.00  0.00     0.012 A 
HETATM    5  C   UNL     1      43.951 -13.746   4.258  1.00  0.00     0.003 A 
HETATM    6  C   UNL     1      44.063 -14.273   5.543  1.00  0.00     0.029 A 
ENDROOT
BRANCH   1   7
HETATM    7  N   UNL     1      43.292 -15.632   7.350  1.00  0.00    -0.324 N 
HETATM    8  C   UNL     1      43.626 -16.861   7.844  1.00  0.00     0.245 C 
HETATM    9  O   UNL     1      43.518 -17.076   9.051  1.00  0.00    -0.268 OA
HETATM   10  H   UNL     1      43.135 -14.972   8.103  1.00  0.00     0.169 HD
BRANCH   8  11
HETATM   11  C   UNL     1      44.190 -17.885   6.943  1.00  0.00     0.077 C 
HETATM   12  C   UNL     1      43.490 -19.000   6.686  1.00  0.00     0.042 C 
BRANCH  12  13
HETATM   13  C   UNL     1      43.999 -19.978   5.791  1.00  0.00     0.075 A 
HETATM   14  O   UNL     1      44.137 -19.780   4.432  1.00  0.00    -0.316 OA
HETATM   15  C   UNL     1      44.618 -20.922   3.875  1.00  0.00     0.050 A 
HETATM   16  C   UNL     1      44.822 -20.903   2.414  1.00  0.00     0.076 C 
HETATM   17  C   UNL     1      44.817 -21.873   4.846  1.00  0.00     0.035 A 
HETATM   18  C   UNL     1      44.415 -21.274   6.065  1.00  0.00     0.039 A 
ENDBRANCH  12  13
ENDBRANCH   8  11
ENDBRANCH   1   7
BRANCH   3  19
HETATM   19  C   UNL     1      40.699 -15.253   3.105  1.00  0.00     0.010 A 
HETATM   20  C   UNL     1      39.606 -14.462   2.667  1.00  0.00     0.152 A 
HETATM   21  N   UNL     1      38.754 -15.130   1.886  1.00  0.00    -0.187 NA
HETATM   22  N   UNL     1      39.293 -16.356   1.815  1.00  0.00    -0.289 N 
HETATM   23  H   UNL     1      38.815 -17.061   1.264  1.00  0.00     0.188 HD
HETATM   24  C   UNL     1      40.456 -16.479   2.519  1.00  0.00     0.123 A 
ENDBRANCH   3  19
TORSDOF 4
ENDMDL
MODEL 5
REMARK VINA RESULT:      -7.9      2.474      6.984
REMARK  4 active torsions:
REMARK  status: ('A' for Active; 'I' for Inactive)
REMARK    1  A    between atoms: C_4  and  C_5 
REMARK    2  A    between atoms: C_6  and  C_7 
REMARK       I    between atoms: C_7  and  N_8 
REMARK    3  A    between atoms: N_8  and  C_9 
REMARK    4  A    between atoms: C_11  and  C_12 
ROOT
HETATM    1  C   UNL     1      44.215 -19.815   5.160  1.00  0.00     0.035 A 
HETATM    2  C   UNL     1      43.707 -18.893   4.237  1.00  0.00     0.042 A 
HETATM    3  C   UNL     1      43.620 -19.196   2.865  1.00  0.00    -0.021 A 
HETATM    4  C   UNL     1      44.100 -20.436   2.428  1.00  0.00     0.012 A 
HETATM    5  C   UNL     1      44.654 -21.345   3.330  1.00  0.00     0.003 A 
HETATM    6  C   UNL     1      44.715 -21.032   4.687  1.00  0.00     0.029 A 
ENDROOT
BRANCH   1   7
HETATM    7  N   UNL     1      44.310 -19.591   6.547  1.00  0.00    -0.324 N 
HETATM    8  C   UNL     1      43.842 -18.604   7.368  1.00  0.00     0.245 C 
HETATM    9  O   UNL     1      44.262 -18.529   8.522  1.00  0.00    -0.268 OA
HETATM   10  H   UNL     1      44.857 -20.264   7.071  1.00  0.00     0.169 HD
BRANCH   8  11
HETATM   11  C   UNL     1      42.783 -17.693   6.890  1.00  0.00     0.077 C 
HETATM   12  C   UNL     1      43.069 -16.403   6.662  1.00  0.00     0.042 C 
BRANCH  12  13
HETATM   13  C   UNL     1      42.073 -15.522   6.164  1.00  0.00     0.075 A 
HETATM   14  O   UNL     1      42.295 -14.192   5.876  1.00  0.00    -0.316 OA
HETATM   15  C   UNL     1      41.128 -13.639   5.455  1.00  0.00     0.050 A 
HETATM   16  C   UNL     1      41.170 -12.204   5.109  1.00  0.00     0.076 C 
HETATM   17  C   UNL     1      40.134 -14.586   5.445  1.00  0.00     0.035 A 
HETATM   18  C   UNL     1      40.734 -15.784   5.904  1.00  0.00     0.039 A 
ENDBRANCH  12  13
ENDBRANCH   8  11
ENDBRANCH   1   7
BRANCH   3  19
HETATM   19  C   UNL     1      43.044 -18.252   1.912  1.00  0.00     0.010 A 
HETATM   20  C   UNL     1      41.698 -17.860   1.695  1.00  0.00     0.152 A 
HETATM   21  N   UNL     1      41.565 -16.950   0.726  1.00  0.00    -0.187 NA
HETATM   22  N   UNL     1      42.825 -16.748   0.315  1.00  0.00    -0.289 N 
HETATM   23  H   UNL     1      42.987 -16.083  -0.433  1.00  0.00     0.188 HD
HETATM   24  C   UNL     1      43.745 -17.496   0.993  1.00  0.00     0.123 A 
ENDBRANCH   3  19
TORSDOF 4
ENDMDL
MODEL 6
REMARK VINA RESULT:      -7.9      3.791      6.805
REMARK  4 active torsions:
REMARK  status: ('A' for Active; 'I' for Inactive)
REMARK    1  A    between atoms: C_4  and  C_5 
REMARK    2  A    between atoms: C_6  and  C_7 
REMARK       I    between atoms: C_7  and  N_8 
REMARK    3  A    between atoms: N_8  and  C_9 
REMARK    4  A    between atoms: C_11  and  C_12 
ROOT
HETATM    1  C   UNL     1      43.345 -16.855   3.758  1.00  0.00     0.035 A 
HETATM    2  C   UNL     1      43.565 -18.229   3.916  1.00  0.00     0.042 A 
HETATM    3  C   UNL     1      43.964 -19.039   2.837  1.00  0.00    -0.021 A 
HETATM    4  C   UNL     1      44.096 -18.447   1.575  1.00  0.00     0.012 A 
HETATM    5  C   UNL     1      43.832 -17.088   1.394  1.00  0.00     0.003 A 
HETATM    6  C   UNL     1      43.454 -16.300   2.480  1.00  0.00     0.029 A 
ENDROOT
BRANCH   1   7
HETATM    7  N   UNL     1      42.968 -15.980   4.796  1.00  0.00    -0.324 N 
HETATM    8  C   UNL     1      41.990 -15.033   4.909  1.00  0.00     0.245 C 
HETATM    9  O   UNL     1      42.019 -14.245   5.854  1.00  0.00    -0.268 OA
HETATM   10  H   UNL     1      43.537 -16.011   5.634  1.00  0.00     0.169 HD
BRANCH   8  11
HETATM   11  C   UNL     1      40.867 -15.019   3.950  1.00  0.00     0.077 C 
HETATM   12  C   UNL     1      40.463 -13.856   3.418  1.00  0.00     0.042 C 
BRANCH  12  13
HETATM   13  C   UNL     1      39.412 -13.828   2.464  1.00  0.00     0.075 A 
HETATM   14  O   UNL     1      38.736 -12.684   2.097  1.00  0.00    -0.316 OA
HETATM   15  C   UNL     1      37.777 -13.018   1.195  1.00  0.00     0.050 A 
HETATM   16  C   UNL     1      36.936 -11.914   0.692  1.00  0.00     0.076 C 
HETATM   17  C   UNL     1      37.814 -14.368   0.945  1.00  0.00     0.035 A 
HETATM   18  C   UNL     1      38.851 -14.886   1.759  1.00  0.00     0.039 A 
ENDBRANCH  12  13
ENDBRANCH   8  11
ENDBRANCH   1   7
BRANCH   3  19
HETATM   19  C   UNL     1      44.242 -20.461   3.014  1.00  0.00     0.010 A 
HETATM   20  C   UNL     1      44.191 -21.538   2.091  1.00  0.00     0.152 A 
HETATM   21  N   UNL     1      44.532 -22.710   2.633  1.00  0.00    -0.187 NA
HETATM   22  N   UNL     1      44.807 -22.396   3.907  1.00  0.00    -0.289 N 
HETATM   23  H   UNL     1      45.096 -23.139   4.535  1.00  0.00     0.188 HD
HETATM   24  C   UNL     1      44.655 -21.068   4.184  1.00  0.00     0.123 A 
ENDBRANCH   3  19
TORSDOF 4
ENDMDL
MODEL 7
REMARK VINA RESULT:      -7.8      3.390      6.478
REMARK  4 active torsions:
REMARK  status: ('A' for Active; 'I' for Inactive)
REMARK    1  A    between atoms: C_4  and  C_5 
REMARK    2  A    between atoms: C_6  and  C_7 
REMARK       I    between atoms: C_7  and  N_8 
REMARK    3  A    between atoms: N_8  and  C_9 
REMARK    4  A    between atoms: C_11  and  C_12 
ROOT
HETATM    1  C   UNL     1      42.259 -17.075   3.313  1.00  0.00     0.035 A 
HETATM    2  C   UNL     1      42.630 -18.413   3.494  1.00  0.00     0.042 A 
HETATM    3  C   UNL     1      43.642 -19.008   2.718  1.00  0.00    -0.021 A 
HETATM    4  C   UNL     1      44.249 -18.240   1.716  1.00  0.00     0.012 A 
HETATM    5  C   UNL     1      43.854 -16.920   1.492  1.00  0.00     0.003 A 
HETATM    6  C   UNL     1      42.861 -16.345   2.284  1.00  0.00     0.029 A 
ENDROOT
BRANCH   1   7
HETATM    7  N   UNL     1      41.273 -16.408   4.067  1.00  0.00    -0.324 N 
HETATM    8  C   UNL     1      41.302 -15.737   5.256  1.00  0.00     0.245 C 
HETATM    9  O   UNL     1      40.243 -15.438   5.807  1.00  0.00    -0.268 OA
HETATM   10  H   UNL     1      40.331 -16.439   3.695  1.00  0.00     0.169 HD
BRANCH   8  11
HETATM   11  C   UNL     1      42.595 -15.307   5.825  1.00  0.00     0.077 C 
HETATM   12  C   UNL     1      42.745 -14.045   6.252  1.00  0.00     0.042 C 
BRANCH  12  13
HETATM   13  C   UNL     1      43.969 -13.625   6.837  1.00  0.00     0.075 A 
HETATM   14  O   UNL     1      44.052 -12.810   7.947  1.00  0.00    -0.316 OA
HETATM   15  C   UNL     1      45.362 -12.579   8.219  1.00  0.00     0.050 A 
HETATM   16  C   UNL     1      45.650 -11.709   9.376  1.00  0.00     0.076 C 
HETATM   17  C   UNL     1      46.155 -13.242   7.314  1.00  0.00     0.035 A 
HETATM   18  C   UNL     1      45.267 -13.902   6.429  1.00  0.00     0.039 A 
ENDBRANCH  12  13
ENDBRANCH   8  11
ENDBRANCH   1   7
BRANCH   3  19
HETATM   19  C   UNL     1      44.062 -20.388   2.943  1.00  0.00     0.010 A 
HETATM   20  C   UNL     1      44.048 -21.514   2.080  1.00  0.00     0.152 A 
HETATM   21  N   UNL     1      44.533 -22.620   2.650  1.00  0.00    -0.187 NA
HETATM   22  N   UNL     1      44.865 -22.213   3.884  1.00  0.00    -0.289 N 
HETATM   23  H   UNL     1      45.264 -22.891   4.524  1.00  0.00     0.188 HD
HETATM   24  C   UNL     1      44.610 -20.890   4.107  1.00  0.00     0.123 A 
ENDBRANCH   3  19
TORSDOF 4
ENDMDL
MODEL 8
REMARK VINA RESULT:      -7.8      2.336      3.071
REMARK  4 active torsions:
REMARK  status: ('A' for Active; 'I' for Inactive)
REMARK    1  A    between atoms: C_4  and  C_5 
REMARK    2  A    between atoms: C_6  and  C_7 
REMARK       I    between atoms: C_7  and  N_8 
REMARK    3  A    between atoms: N_8  and  C_9 
REMARK    4  A    between atoms: C_11  and  C_12 
ROOT
HETATM    1  C   UNL     1      43.062 -15.546   4.725  1.00  0.00     0.035 A 
HETATM    2  C   UNL     1      43.787 -14.541   5.374  1.00  0.00     0.042 A 
HETATM    3  C   UNL     1      44.192 -14.676   6.716  1.00  0.00    -0.021 A 
HETATM    4  C   UNL     1      43.812 -15.831   7.411  1.00  0.00     0.012 A 
HETATM    5  C   UNL     1      43.046 -16.817   6.790  1.00  0.00     0.003 A 
HETATM    6  C   UNL     1      42.670 -16.671   5.455  1.00  0.00     0.029 A 
ENDROOT
BRANCH   1   7
HETATM    7  N   UNL     1      42.644 -15.490   3.380  1.00  0.00    -0.324 N 
HETATM    8  C   UNL     1      42.636 -16.404   2.365  1.00  0.00     0.245 C 
HETATM    9  O   UNL     1      42.422 -16.026   1.214  1.00  0.00    -0.268 OA
HETATM   10  H   UNL     1      42.302 -14.592   3.057  1.00  0.00     0.169 HD
BRANCH   8  11
HETATM   11  C   UNL     1      42.800 -17.840   2.670  1.00  0.00     0.077 C 
HETATM   12  C   UNL     1      43.941 -18.462   2.339  1.00  0.00     0.042 C 
BRANCH  12  13
HETATM   13  C   UNL     1      44.132 -19.832   2.660  1.00  0.00     0.075 A 
HETATM   14  O   UNL     1      44.545 -20.282   3.897  1.00  0.00    -0.316 OA
HETATM   15  C   UNL     1      44.656 -21.635   3.850  1.00  0.00     0.050 A 
HETATM   16  C   UNL     1      45.102 -22.300   5.090  1.00  0.00     0.076 C 
HETATM   17  C   UNL     1      44.309 -22.094   2.603  1.00  0.00     0.035 A 
HETATM   18  C   UNL     1      43.982 -20.944   1.842  1.00  0.00     0.039 A 
ENDBRANCH  12  13
ENDBRANCH   8  11
ENDBRANCH   1   7
BRANCH   3  19
HETATM   19  C   UNL     1      44.993 -13.650   7.377  1.00  0.00     0.010 A 
HETATM   20  C   UNL     1      44.730 -12.871   8.533  1.00  0.00     0.152 A 
HETATM   21  N   UNL     1      45.724 -12.033   8.839  1.00  0.00    -0.187 NA
HETATM   22  N   UNL     1      46.636 -12.269   7.884  1.00  0.00    -0.289 N 
HETATM   23  H   UNL     1      47.502 -11.741   7.903  1.00  0.00     0.188 HD
HETATM   24  C   UNL     1      46.250 -13.228   6.991  1.00  0.00     0.123 A 
ENDBRANCH   3  19
TORSDOF 4
ENDMDL
MODEL 9
REMARK VINA RESULT:      -7.6      2.993      5.782
REMARK  4 active torsions:
REMARK  status: ('A' for Active; 'I' for Inactive)
REMARK    1  A    between atoms: C_4  and  C_5 
REMARK    2  A    between atoms: C_6  and  C_7 
REMARK       I    between atoms: C_7  and  N_8 
REMARK    3  A    between atoms: N_8  and  C_9 
REMARK    4  A    between atoms: C_11  and  C_12 
ROOT
HETATM    1  C   UNL     1      42.813 -17.437   5.835  1.00  0.00     0.035 A 
HETATM    2  C   UNL     1      42.902 -18.406   4.829  1.00  0.00     0.042 A 
HETATM    3  C   UNL     1      44.064 -19.182   4.655  1.00  0.00    -0.021 A 
HETATM    4  C   UNL     1      45.160 -18.932   5.489  1.00  0.00     0.012 A 
HETATM    5  C   UNL     1      45.102 -17.935   6.463  1.00  0.00     0.003 A 
HETATM    6  C   UNL     1      43.936 -17.190   6.630  1.00  0.00     0.029 A 
ENDROOT
BRANCH   1   7
HETATM    7  N   UNL     1      41.677 -16.641   6.082  1.00  0.00    -0.324 N 
HETATM    8  C   UNL     1      41.088 -15.616   5.398  1.00  0.00     0.245 C 
HETATM    9  O   UNL     1      40.224 -14.938   5.953  1.00  0.00    -0.268 OA
HETATM   10  H   UNL     1      41.191 -16.818   6.954  1.00  0.00     0.169 HD
BRANCH   8  11
HETATM   11  C   UNL     1      41.432 -15.387   3.981  1.00  0.00     0.077 C 
HETATM   12  C   UNL     1      40.747 -16.023   3.020  1.00  0.00     0.042 C 
BRANCH  12  13
HETATM   13  C   UNL     1      41.039 -15.784   1.651  1.00  0.00     0.075 A 
HETATM   14  O   UNL     1      41.164 -14.526   1.099  1.00  0.00    -0.316 OA
HETATM   15  C   UNL     1      41.410 -14.659  -0.231  1.00  0.00     0.050 A 
HETATM   16  C   UNL     1      41.564 -13.408  -0.998  1.00  0.00     0.076 C 
HETATM   17  C   UNL     1      41.465 -15.989  -0.569  1.00  0.00     0.035 A 
HETATM   18  C   UNL     1      41.221 -16.706   0.628  1.00  0.00     0.039 A 
ENDBRANCH  12  13
ENDBRANCH   8  11
ENDBRANCH   1   7
BRANCH   3  19
HETATM   19  C   UNL     1      44.136 -20.227   3.638  1.00  0.00     0.010 A 
HETATM   20  C   UNL     1      43.711 -20.234   2.284  1.00  0.00     0.152 A 
HETATM   21  N   UNL     1      43.964 -21.388   1.661  1.00  0.00    -0.187 NA
HETATM   22  N   UNL     1      44.556 -22.131   2.608  1.00  0.00    -0.289 N 
HETATM   23  H   UNL     1      44.848 -23.072   2.370  1.00  0.00     0.188 HD
HETATM   24  C   UNL     1      44.687 -21.482   3.803  1.00  0.00     0.123 A 
ENDBRANCH   3  19
TORSDOF 4
ENDMDL
MODEL 10
REMARK VINA RESULT:      -7.5      6.071      8.093
REMARK  4 active torsions:
REMARK  status: ('A' for Active; 'I' for Inactive)
REMARK    1  A    between atoms: C_4  and  C_5 
REMARK    2  A    between atoms: C_6  and  C_7 
REMARK       I    between atoms: C_7  and  N_8 
REMARK    3  A    between atoms: N_8  and  C_9 
REMARK    4  A    between atoms: C_11  and  C_12 
ROOT
HETATM    1  C   UNL     1      44.323 -10.893   9.980  1.00  0.00     0.035 A 
HETATM    2  C   UNL     1      42.989 -10.828   9.563  1.00  0.00     0.042 A 
HETATM    3  C   UNL     1      41.949 -10.533  10.466  1.00  0.00    -0.021 A 
HETATM    4  C   UNL     1      42.275 -10.346  11.815  1.00  0.00     0.012 A 
HETATM    5  C   UNL     1      43.595 -10.457  12.252  1.00  0.00     0.003 A 
HETATM    6  C   UNL     1      44.611 -10.734  11.339  1.00  0.00     0.029 A 
ENDROOT
BRANCH   1   7
HETATM    7  N   UNL     1      45.415 -11.160   9.131  1.00  0.00    -0.324 N 
HETATM    8  C   UNL     1      45.790 -12.258   8.409  1.00  0.00     0.245 C 
HETATM    9  O   UNL     1      46.920 -12.303   7.922  1.00  0.00    -0.268 OA
HETATM   10  H   UNL     1      46.100 -10.419   9.039  1.00  0.00     0.169 HD
BRANCH   8  11
HETATM   11  C   UNL     1      44.814 -13.334   8.150  1.00  0.00     0.077 C 
HETATM   12  C   UNL     1      44.918 -14.072   7.035  1.00  0.00     0.042 C 
BRANCH  12  13
HETATM   13  C   UNL     1      44.011 -15.136   6.790  1.00  0.00     0.075 A 
HETATM   14  O   UNL     1      42.712 -14.958   6.361  1.00  0.00    -0.316 OA
HETATM   15  C   UNL     1      42.119 -16.176   6.260  1.00  0.00     0.050 A 
HETATM   16  C   UNL     1      40.709 -16.184   5.822  1.00  0.00     0.076 C 
HETATM   17  C   UNL     1      43.009 -17.164   6.602  1.00  0.00     0.035 A 
HETATM   18  C   UNL     1      44.212 -16.502   6.946  1.00  0.00     0.039 A 
ENDBRANCH  12  13
ENDBRANCH   8  11
ENDBRANCH   1   7
BRANCH   3  19
HETATM   19  C   UNL     1      40.564 -10.416  10.020  1.00  0.00     0.010 A 
HETATM   20  C   UNL     1      39.953 -10.768   8.789  1.00  0.00     0.152 A 
HETATM   21  N   UNL     1      38.642 -10.517   8.762  1.00  0.00    -0.187 NA
HETATM   22  N   UNL     1      38.399 -10.003   9.977  1.00  0.00    -0.289 N 
HETATM   23  H   UNL     1      37.449  -9.728  10.203  1.00  0.00     0.188 HD
HETATM   24  C   UNL     1      39.510  -9.927  10.767  1.00  0.00     0.123 A 
ENDBRANCH   3  19
TORSDOF 4
ENDMDL
