MODEL 1
REMARK VINA RESULT:      -9.4      0.000      0.000
REMARK  9 active torsions:
REMARK  status: ('A' for Active; 'I' for Inactive)
REMARK    1  A    between atoms: C_2  and  O_3 
REMARK    2  A    between atoms: O_3  and  C_4 
REMARK    3  A    between atoms: C_7  and  N_8 
REMARK    4  A    between atoms: C_9  and  S_10 
REMARK    5  A    between atoms: S_10  and  C_11 
REMARK    6  A    between atoms: C_11  and  C_12 
REMARK       I    between atoms: C_12  and  N_13 
REMARK    7  A    between atoms: N_13  and  C_14 
REMARK    8  A    between atoms: C_17  and  S_18 
REMARK    9  A    between atoms: S_18  and  N_19 
ROOT
HETATM    1  N   UNL     1      42.203 -15.975   3.431  1.00  0.00    -0.256 N 
HETATM    2  C   UNL     1      42.778 -15.704   4.679  1.00  0.00     0.177 A 
HETATM    3  N   UNL     1      43.590 -16.480   5.328  1.00  0.00    -0.216 NA
HETATM    4  C   UNL     1      43.827 -17.674   4.748  1.00  0.00     0.117 A 
HETATM    5  C   UNL     1      43.294 -18.126   3.566  1.00  0.00     0.076 A 
HETATM    6  C   UNL     1      42.419 -17.233   2.823  1.00  0.00     0.268 A 
HETATM    7  O   UNL     1      41.956 -17.585   1.741  1.00  0.00    -0.267 OA
HETATM    8  S   UNL     1      44.821 -18.839   5.497  1.00  0.00    -0.073 SA
HETATM    9  C   UNL     1      44.528 -19.965   4.258  1.00  0.00    -0.008 A 
HETATM   10  C   UNL     1      43.715 -19.462   3.259  1.00  0.00    -0.026 A 
HETATM   11  C   UNL     1      43.323 -20.286   2.066  1.00  0.00     0.041 C 
HETATM   12  C   UNL     1      44.192 -21.547   1.925  1.00  0.00     0.005 C 
HETATM   13  C   UNL     1      44.407 -22.248   3.274  1.00  0.00     0.005 C 
HETATM   14  C   UNL     1      45.132 -21.336   4.275  1.00  0.00     0.047 C 
ENDROOT
BRANCH   2  15
HETATM   15  S   UNL     1      42.329 -14.261   5.586  1.00  0.00    -0.082 SA
BRANCH  15  16
HETATM   16  C   UNL     1      43.973 -13.817   6.223  1.00  0.00     0.185 C 
BRANCH  16  17
HETATM   17  C   UNL     1      44.029 -13.288   7.657  1.00  0.00     0.231 C 
HETATM   18  N   UNL     1      43.305 -12.146   7.915  1.00  0.00    -0.327 N 
HETATM   19  H   UNL     1      42.823 -11.741   7.115  1.00  0.00     0.169 HD
HETATM   20  O   UNL     1      44.737 -13.877   8.475  1.00  0.00    -0.272 OA
BRANCH  18  21
HETATM   21  C   UNL     1      43.251 -11.383   9.097  1.00  0.00     0.034 A 
HETATM   22  C   UNL     1      44.356 -11.099   9.901  1.00  0.00     0.031 A 
HETATM   23  C   UNL     1      44.217 -10.293  11.038  1.00  0.00     0.027 A 
HETATM   24  C   UNL     1      42.966  -9.771  11.369  1.00  0.00     0.074 A 
HETATM   25  C   UNL     1      41.847 -10.070  10.591  1.00  0.00     0.027 A 
HETATM   26  C   UNL     1      41.996 -10.870   9.456  1.00  0.00     0.031 A 
BRANCH  24  27
HETATM   27  S   UNL     1      42.779  -8.759  12.806  1.00  0.00     0.239 S 
HETATM   28  O   UNL     1      43.633  -9.266  13.856  1.00  0.00    -0.206 OA
HETATM   29  O   UNL     1      42.768  -7.369  12.419  1.00  0.00    -0.206 OA
BRANCH  27  30
HETATM   30  N   UNL     1      41.206  -9.116  13.278  1.00  0.00    -0.225 NA
HETATM   31  H   UNL     1      41.122 -10.112  13.480  1.00  0.00     0.136 HD
HETATM   32  H   UNL     1      40.933  -8.510  14.052  1.00  0.00     0.136 HD
ENDBRANCH  27  30
ENDBRANCH  24  27
ENDBRANCH  18  21
ENDBRANCH  16  17
ENDBRANCH  15  16
ENDBRANCH   2  15
BRANCH   1  33
HETATM   33  C   UNL     1      41.455 -15.005   2.680  1.00  0.00     0.045 A 
HETATM   34  C   UNL     1      40.057 -14.958   2.761  1.00  0.00     0.033 A 
HETATM   35  C   UNL     1      39.324 -14.057   1.983  1.00  0.00     0.039 A 
HETATM   36  C   UNL     1      39.966 -13.191   1.098  1.00  0.00     0.068 A 
HETATM   37  C   UNL     1      41.356 -13.224   1.010  1.00  0.00     0.039 A 
HETATM   38  C   UNL     1      42.092 -14.129   1.788  1.00  0.00     0.033 A 
BRANCH  36  39
HETATM   39  O   UNL     1      39.130 -12.383   0.380  1.00  0.00    -0.352 OA
BRANCH  39  40
HETATM   40  C   UNL     1      37.963 -11.900   1.043  1.00  0.00     0.171 C 
HETATM   41  C   UNL     1      36.791 -12.044   0.088  1.00  0.00     0.034 C 
ENDBRANCH  39  40
ENDBRANCH  36  39
ENDBRANCH   1  33
TORSDOF 9
ENDMDL
MODEL 2
REMARK VINA RESULT:      -9.3      1.812      6.157
REMARK  9 active torsions:
REMARK  status: ('A' for Active; 'I' for Inactive)
REMARK    1  A    between atoms: C_2  and  O_3 
REMARK    2  A    between atoms: O_3  and  C_4 
REMARK    3  A    between atoms: C_7  and  N_8 
REMARK    4  A    between atoms: C_9  and  S_10 
REMARK    5  A    between atoms: S_10  and  C_11 
REMARK    6  A    between atoms: C_11  and  C_12 
REMARK       I    between atoms: C_12  and  N_13 
REMARK    7  A    between atoms: N_13  and  C_14 
REMARK    8  A    between atoms: C_17  and  S_18 
REMARK    9  A    between atoms: S_18  and  N_19 
ROOT
HETATM    1  N   UNL     1      42.802 -16.543   5.056  1.00  0.00    -0.256 N 
HETATM    2  C   UNL     1      43.039 -15.495   5.954  1.00  0.00     0.177 A 
HETATM    3  N   UNL     1      42.398 -14.368   5.996  1.00  0.00    -0.216 NA
HETATM    4  C   UNL     1      41.469 -14.202   5.033  1.00  0.00     0.117 A 
HETATM    5  C   UNL     1      41.158 -15.096   4.037  1.00  0.00     0.076 A 
HETATM    6  C   UNL     1      41.852 -16.374   4.023  1.00  0.00     0.268 A 
HETATM    7  O   UNL     1      41.573 -17.217   3.173  1.00  0.00    -0.267 OA
HETATM    8  S   UNL     1      40.576 -12.755   4.904  1.00  0.00    -0.073 SA
HETATM    9  C   UNL     1      39.785 -13.304   3.504  1.00  0.00    -0.008 A 
HETATM   10  C   UNL     1      40.157 -14.586   3.146  1.00  0.00    -0.026 A 
HETATM   11  C   UNL     1      39.584 -15.271   1.938  1.00  0.00     0.041 C 
HETATM   12  C   UNL     1      38.336 -14.548   1.405  1.00  0.00     0.005 C 
HETATM   13  C   UNL     1      38.523 -13.025   1.376  1.00  0.00     0.005 C 
HETATM   14  C   UNL     1      38.777 -12.462   2.783  1.00  0.00     0.047 C 
ENDROOT
BRANCH   2  15
HETATM   15  S   UNL     1      44.386 -15.564   7.088  1.00  0.00    -0.082 SA
BRANCH  15  16
HETATM   16  C   UNL     1      45.124 -13.941   6.736  1.00  0.00     0.185 C 
BRANCH  16  17
HETATM   17  C   UNL     1      45.139 -12.934   7.887  1.00  0.00     0.231 C 
HETATM   18  N   UNL     1      43.926 -12.670   8.482  1.00  0.00    -0.327 N 
HETATM   19  H   UNL     1      43.124 -13.149   8.078  1.00  0.00     0.169 HD
HETATM   20  O   UNL     1      46.206 -12.394   8.184  1.00  0.00    -0.272 OA
BRANCH  18  21
HETATM   21  C   UNL     1      43.620 -11.726   9.481  1.00  0.00     0.034 A 
HETATM   22  C   UNL     1      42.829 -10.593   9.277  1.00  0.00     0.031 A 
HETATM   23  C   UNL     1      42.539  -9.730  10.341  1.00  0.00     0.027 A 
HETATM   24  C   UNL     1      43.044 -10.003  11.613  1.00  0.00     0.074 A 
HETATM   25  C   UNL     1      43.859 -11.115  11.826  1.00  0.00     0.027 A 
HETATM   26  C   UNL     1      44.139 -11.974  10.760  1.00  0.00     0.031 A 
BRANCH  24  27
HETATM   27  S   UNL     1      42.690  -8.916  12.960  1.00  0.00     0.239 S 
HETATM   28  O   UNL     1      43.519  -9.274  14.088  1.00  0.00    -0.206 OA
HETATM   29  O   UNL     1      42.587  -7.561  12.473  1.00  0.00    -0.206 OA
BRANCH  27  30
HETATM   30  N   UNL     1      41.127  -9.374  13.373  1.00  0.00    -0.225 NA
HETATM   31  H   UNL     1      40.838  -8.892  14.224  1.00  0.00     0.136 HD
HETATM   32  H   UNL     1      40.503  -9.225  12.579  1.00  0.00     0.136 HD
ENDBRANCH  27  30
ENDBRANCH  24  27
ENDBRANCH  18  21
ENDBRANCH  16  17
ENDBRANCH  15  16
ENDBRANCH   2  15
BRANCH   1  33
HETATM   33  C   UNL     1      43.422 -17.835   5.170  1.00  0.00     0.045 A 
HETATM   34  C   UNL     1      44.320 -18.287   4.194  1.00  0.00     0.033 A 
HETATM   35  C   UNL     1      44.875 -19.568   4.271  1.00  0.00     0.039 A 
HETATM   36  C   UNL     1      44.540 -20.431   5.313  1.00  0.00     0.068 A 
HETATM   37  C   UNL     1      43.652 -19.992   6.294  1.00  0.00     0.039 A 
HETATM   38  C   UNL     1      43.092 -18.709   6.216  1.00  0.00     0.033 A 
BRANCH  36  39
HETATM   39  O   UNL     1      45.132 -21.660   5.253  1.00  0.00    -0.352 OA
BRANCH  39  40
HETATM   40  C   UNL     1      44.391 -22.711   4.637  1.00  0.00     0.171 C 
HETATM   41  C   UNL     1      44.645 -22.648   3.141  1.00  0.00     0.034 C 
ENDBRANCH  39  40
ENDBRANCH  36  39
ENDBRANCH   1  33
TORSDOF 9
ENDMDL
MODEL 3
REMARK VINA RESULT:      -9.1      4.447     10.035
REMARK  9 active torsions:
REMARK  status: ('A' for Active; 'I' for Inactive)
REMARK    1  A    between atoms: C_2  and  O_3 
REMARK    2  A    between atoms: O_3  and  C_4 
REMARK    3  A    between atoms: C_7  and  N_8 
REMARK    4  A    between atoms: C_9  and  S_10 
REMARK    5  A    between atoms: S_10  and  C_11 
REMARK    6  A    between atoms: C_11  and  C_12 
REMARK       I    between atoms: C_12  and  N_13 
REMARK    7  A    between atoms: N_13  and  C_14 
REMARK    8  A    between atoms: C_17  and  S_18 
REMARK    9  A    between atoms: S_18  and  N_19 
ROOT
HETATM    1  N   UNL     1      41.968 -15.072   4.141  1.00  0.00    -0.256 N 
HETATM    2  C   UNL     1      42.078 -15.021   2.746  1.00  0.00     0.177 A 
HETATM    3  N   UNL     1      42.525 -15.970   1.982  1.00  0.00    -0.216 NA
HETATM    4  C   UNL     1      42.973 -17.064   2.631  1.00  0.00     0.117 A 
HETATM    5  C   UNL     1      43.000 -17.251   3.992  1.00  0.00     0.076 A 
HETATM    6  C   UNL     1      42.458 -16.199   4.839  1.00  0.00     0.268 A 
HETATM    7  O   UNL     1      42.427 -16.347   6.058  1.00  0.00    -0.267 OA
HETATM    8  S   UNL     1      43.650 -18.379   1.784  1.00  0.00    -0.073 SA
HETATM    9  C   UNL     1      44.006 -19.198   3.230  1.00  0.00    -0.008 A 
HETATM   10  C   UNL     1      43.586 -18.508   4.353  1.00  0.00    -0.026 A 
HETATM   11  C   UNL     1      43.800 -19.045   5.739  1.00  0.00     0.041 C 
HETATM   12  C   UNL     1      44.182 -20.535   5.728  1.00  0.00     0.005 C 
HETATM   13  C   UNL     1      45.218 -20.853   4.640  1.00  0.00     0.005 C 
HETATM   14  C   UNL     1      44.678 -20.537   3.237  1.00  0.00     0.047 C 
ENDROOT
BRANCH   2  15
HETATM   15  S   UNL     1      41.719 -13.537   1.865  1.00  0.00    -0.082 SA
BRANCH  15  16
HETATM   16  C   UNL     1      41.607 -14.235   0.190  1.00  0.00     0.185 C 
BRANCH  16  17
HETATM   17  C   UNL     1      40.215 -14.270  -0.443  1.00  0.00     0.231 C 
HETATM   18  N   UNL     1      40.166 -14.156  -1.814  1.00  0.00    -0.327 N 
HETATM   19  H   UNL     1      41.064 -14.029  -2.277  1.00  0.00     0.169 HD
HETATM   20  O   UNL     1      39.233 -14.352   0.296  1.00  0.00    -0.272 OA
BRANCH  18  21
HETATM   21  C   UNL     1      39.039 -14.054  -2.652  1.00  0.00     0.034 A 
HETATM   22  C   UNL     1      38.458 -15.130  -3.324  1.00  0.00     0.031 A 
HETATM   23  C   UNL     1      37.309 -14.943  -4.102  1.00  0.00     0.027 A 
HETATM   24  C   UNL     1      36.741 -13.673  -4.207  1.00  0.00     0.074 A 
HETATM   25  C   UNL     1      37.328 -12.582  -3.564  1.00  0.00     0.027 A 
HETATM   26  C   UNL     1      38.470 -12.779  -2.786  1.00  0.00     0.031 A 
BRANCH  24  27
HETATM   27  S   UNL     1      35.296 -13.425  -5.193  1.00  0.00     0.239 S 
HETATM   28  O   UNL     1      34.896 -14.687  -5.772  1.00  0.00    -0.206 OA
HETATM   29  O   UNL     1      34.372 -12.568  -4.488  1.00  0.00    -0.206 OA
BRANCH  27  30
HETATM   30  N   UNL     1      35.897 -12.504  -6.463  1.00  0.00    -0.225 NA
HETATM   31  H   UNL     1      35.712 -12.973  -7.350  1.00  0.00     0.136 HD
HETATM   32  H   UNL     1      35.523 -11.556  -6.408  1.00  0.00     0.136 HD
ENDBRANCH  27  30
ENDBRANCH  24  27
ENDBRANCH  18  21
ENDBRANCH  16  17
ENDBRANCH  15  16
ENDBRANCH   2  15
BRANCH   1  33
HETATM   33  C   UNL     1      41.302 -14.062   4.917  1.00  0.00     0.045 A 
HETATM   34  C   UNL     1      39.915 -14.107   5.113  1.00  0.00     0.033 A 
HETATM   35  C   UNL     1      39.257 -13.092   5.814  1.00  0.00     0.039 A 
HETATM   36  C   UNL     1      39.963 -12.003   6.324  1.00  0.00     0.068 A 
HETATM   37  C   UNL     1      41.343 -11.948   6.141  1.00  0.00     0.039 A 
HETATM   38  C   UNL     1      42.004 -12.964   5.435  1.00  0.00     0.033 A 
BRANCH  36  39
HETATM   39  O   UNL     1      39.195 -11.071   6.963  1.00  0.00    -0.352 OA
BRANCH  39  40
HETATM   40  C   UNL     1      39.799 -10.358   8.040  1.00  0.00     0.171 C 
HETATM   41  C   UNL     1      39.504 -11.111   9.324  1.00  0.00     0.034 C 
ENDBRANCH  39  40
ENDBRANCH  36  39
ENDBRANCH   1  33
TORSDOF 9
ENDMDL
MODEL 4
REMARK VINA RESULT:      -9.1      5.164      7.838
REMARK  9 active torsions:
REMARK  status: ('A' for Active; 'I' for Inactive)
REMARK    1  A    between atoms: C_2  and  O_3 
REMARK    2  A    between atoms: O_3  and  C_4 
REMARK    3  A    between atoms: C_7  and  N_8 
REMARK    4  A    between atoms: C_9  and  S_10 
REMARK    5  A    between atoms: S_10  and  C_11 
REMARK    6  A    between atoms: C_11  and  C_12 
REMARK       I    between atoms: C_12  and  N_13 
REMARK    7  A    between atoms: N_13  and  C_14 
REMARK    8  A    between atoms: C_17  and  S_18 
REMARK    9  A    between atoms: S_18  and  N_19 
ROOT
HETATM    1  N   UNL     1      41.263 -16.129   2.455  1.00  0.00    -0.256 N 
HETATM    2  C   UNL     1      41.749 -15.542   3.631  1.00  0.00     0.177 A 
HETATM    3  N   UNL     1      42.660 -16.038   4.409  1.00  0.00    -0.216 NA
HETATM    4  C   UNL     1      43.111 -17.259   4.056  1.00  0.00     0.117 A 
HETATM    5  C   UNL     1      42.696 -18.001   2.978  1.00  0.00     0.076 A 
HETATM    6  C   UNL     1      41.705 -17.420   2.087  1.00  0.00     0.268 A 
HETATM    7  O   UNL     1      41.339 -18.036   1.089  1.00  0.00    -0.267 OA
HETATM    8  S   UNL     1      44.266 -18.082   5.003  1.00  0.00    -0.073 SA
HETATM    9  C   UNL     1      44.202 -19.447   3.992  1.00  0.00    -0.008 A 
HETATM   10  C   UNL     1      43.344 -19.279   2.920  1.00  0.00    -0.026 A 
HETATM   11  C   UNL     1      43.131 -20.359   1.899  1.00  0.00     0.041 C 
HETATM   12  C   UNL     1      44.203 -21.458   1.989  1.00  0.00     0.005 C 
HETATM   13  C   UNL     1      44.494 -21.857   3.442  1.00  0.00     0.005 C 
HETATM   14  C   UNL     1      45.026 -20.669   4.258  1.00  0.00     0.047 C 
ENDROOT
BRANCH   2  15
HETATM   15  S   UNL     1      41.037 -14.057   4.260  1.00  0.00    -0.082 SA
BRANCH  15  16
HETATM   16  C   UNL     1      42.124 -12.860   3.428  1.00  0.00     0.185 C 
BRANCH  16  17
HETATM   17  C   UNL     1      41.553 -12.166   2.191  1.00  0.00     0.231 C 
HETATM   18  N   UNL     1      42.428 -11.964   1.147  1.00  0.00    -0.327 N 
HETATM   19  H   UNL     1      43.385 -12.271   1.309  1.00  0.00     0.169 HD
HETATM   20  O   UNL     1      40.380 -11.793   2.213  1.00  0.00    -0.272 OA
BRANCH  18  21
HETATM   21  C   UNL     1      42.218 -11.269  -0.060  1.00  0.00     0.034 A 
HETATM   22  C   UNL     1      41.738  -9.961  -0.140  1.00  0.00     0.031 A 
HETATM   23  C   UNL     1      41.602  -9.331  -1.384  1.00  0.00     0.027 A 
HETATM   24  C   UNL     1      41.946 -10.016  -2.550  1.00  0.00     0.074 A 
HETATM   25  C   UNL     1      42.399 -11.334  -2.487  1.00  0.00     0.027 A 
HETATM   26  C   UNL     1      42.537 -11.952  -1.242  1.00  0.00     0.031 A 
BRANCH  24  27
HETATM   27  S   UNL     1      41.770  -9.233  -4.124  1.00  0.00     0.239 S 
HETATM   28  O   UNL     1      40.423  -9.438  -4.606  1.00  0.00    -0.206 OA
HETATM   29  O   UNL     1      42.390  -7.930  -4.087  1.00  0.00    -0.206 OA
BRANCH  27  30
HETATM   30  N   UNL     1      42.757 -10.183  -5.096  1.00  0.00    -0.225 NA
HETATM   31  H   UNL     1      43.727  -9.877  -5.009  1.00  0.00     0.136 HD
HETATM   32  H   UNL     1      42.611 -11.169  -4.876  1.00  0.00     0.136 HD
ENDBRANCH  27  30
ENDBRANCH  24  27
ENDBRANCH  18  21
ENDBRANCH  16  17
ENDBRANCH  15  16
ENDBRANCH   2  15
BRANCH   1  33
HETATM   33  C   UNL     1      40.384 -15.452   1.541  1.00  0.00     0.045 A 
HETATM   34  C   UNL     1      40.840 -15.038   0.283  1.00  0.00     0.033 A 
HETATM   35  C   UNL     1      40.005 -14.324  -0.582  1.00  0.00     0.039 A 
HETATM   36  C   UNL     1      38.702 -13.997  -0.209  1.00  0.00     0.068 A 
HETATM   37  C   UNL     1      38.234 -14.407   1.038  1.00  0.00     0.039 A 
HETATM   38  C   UNL     1      39.071 -15.120   1.907  1.00  0.00     0.033 A 
BRANCH  36  39
HETATM   39  O   UNL     1      38.005 -13.276  -1.136  1.00  0.00    -0.352 OA
BRANCH  39  40
HETATM   40  C   UNL     1      38.624 -12.095  -1.643  1.00  0.00     0.171 C 
HETATM   41  C   UNL     1      38.432 -12.076  -3.149  1.00  0.00     0.034 C 
ENDBRANCH  39  40
ENDBRANCH  36  39
ENDBRANCH   1  33
TORSDOF 9
ENDMDL
MODEL 5
REMARK VINA RESULT:      -8.6      2.546      3.691
REMARK  9 active torsions:
REMARK  status: ('A' for Active; 'I' for Inactive)
REMARK    1  A    between atoms: C_2  and  O_3 
REMARK    2  A    between atoms: O_3  and  C_4 
REMARK    3  A    between atoms: C_7  and  N_8 
REMARK    4  A    between atoms: C_9  and  S_10 
REMARK    5  A    between atoms: S_10  and  C_11 
REMARK    6  A    between atoms: C_11  and  C_12 
REMARK       I    between atoms: C_12  and  N_13 
REMARK    7  A    between atoms: N_13  and  C_14 
REMARK    8  A    between atoms: C_17  and  S_18 
REMARK    9  A    between atoms: S_18  and  N_19 
ROOT
HETATM    1  N   UNL     1      40.873 -14.204   2.584  1.00  0.00    -0.256 N 
HETATM    2  C   UNL     1      41.308 -13.096   3.321  1.00  0.00     0.177 A 
HETATM    3  N   UNL     1      42.173 -13.115   4.287  1.00  0.00    -0.216 NA
HETATM    4  C   UNL     1      42.626 -14.339   4.625  1.00  0.00     0.117 A 
HETATM    5  C   UNL     1      42.255 -15.532   4.054  1.00  0.00     0.076 A 
HETATM    6  C   UNL     1      41.316 -15.497   2.943  1.00  0.00     0.268 A 
HETATM    7  O   UNL     1      40.992 -16.540   2.379  1.00  0.00    -0.267 OA
HETATM    8  S   UNL     1      43.721 -14.552   5.914  1.00  0.00    -0.073 SA
HETATM    9  C   UNL     1      43.690 -16.242   5.734  1.00  0.00    -0.008 A 
HETATM   10  C   UNL     1      42.889 -16.654   4.684  1.00  0.00    -0.026 A 
HETATM   11  C   UNL     1      42.712 -18.105   4.343  1.00  0.00     0.041 C 
HETATM   12  C   UNL     1      43.765 -18.991   5.031  1.00  0.00     0.005 C 
HETATM   13  C   UNL     1      43.979 -18.593   6.498  1.00  0.00     0.005 C 
HETATM   14  C   UNL     1      44.485 -17.148   6.623  1.00  0.00     0.047 C 
ENDROOT
BRANCH   2  15
HETATM   15  S   UNL     1      40.585 -11.507   3.074  1.00  0.00    -0.082 SA
BRANCH  15  16
HETATM   16  C   UNL     1      39.237 -11.628   4.287  1.00  0.00     0.185 C 
BRANCH  16  17
HETATM   17  C   UNL     1      39.457 -10.921   5.625  1.00  0.00     0.231 C 
HETATM   18  N   UNL     1      40.386 -11.488   6.469  1.00  0.00    -0.327 N 
HETATM   19  H   UNL     1      40.819 -12.346   6.133  1.00  0.00     0.169 HD
HETATM   20  O   UNL     1      38.775  -9.930   5.887  1.00  0.00    -0.272 OA
BRANCH  18  21
HETATM   21  C   UNL     1      40.719 -11.124   7.787  1.00  0.00     0.034 A 
HETATM   22  C   UNL     1      39.825 -11.143   8.858  1.00  0.00     0.031 A 
HETATM   23  C   UNL     1      40.255 -10.807  10.148  1.00  0.00     0.027 A 
HETATM   24  C   UNL     1      41.587 -10.449  10.363  1.00  0.00     0.074 A 
HETATM   25  C   UNL     1      42.485 -10.396   9.297  1.00  0.00     0.027 A 
HETATM   26  C   UNL     1      42.048 -10.739   8.015  1.00  0.00     0.031 A 
BRANCH  24  27
HETATM   27  S   UNL     1      42.138 -10.014  11.984  1.00  0.00     0.239 S 
HETATM   28  O   UNL     1      43.125  -8.964  11.884  1.00  0.00    -0.206 OA
HETATM   29  O   UNL     1      41.004  -9.929  12.873  1.00  0.00    -0.206 OA
BRANCH  27  30
HETATM   30  N   UNL     1      42.978 -11.394  12.446  1.00  0.00    -0.225 NA
HETATM   31  H   UNL     1      43.088 -12.018  11.646  1.00  0.00     0.136 HD
HETATM   32  H   UNL     1      43.858 -11.130  12.890  1.00  0.00     0.136 HD
ENDBRANCH  27  30
ENDBRANCH  24  27
ENDBRANCH  18  21
ENDBRANCH  16  17
ENDBRANCH  15  16
ENDBRANCH   2  15
BRANCH   1  33
HETATM   33  C   UNL     1      40.050 -14.098   1.411  1.00  0.00     0.045 A 
HETATM   34  C   UNL     1      40.618 -13.837   0.157  1.00  0.00     0.033 A 
HETATM   35  C   UNL     1      39.813 -13.671  -0.974  1.00  0.00     0.039 A 
HETATM   36  C   UNL     1      38.424 -13.748  -0.879  1.00  0.00     0.068 A 
HETATM   37  C   UNL     1      37.845 -14.011   0.361  1.00  0.00     0.039 A 
HETATM   38  C   UNL     1      38.651 -14.175   1.496  1.00  0.00     0.033 A 
BRANCH  36  39
HETATM   39  O   UNL     1      37.758 -13.539  -2.053  1.00  0.00    -0.352 OA
BRANCH  39  40
HETATM   40  C   UNL     1      38.310 -14.128  -3.229  1.00  0.00     0.171 C 
HETATM   41  C   UNL     1      37.447 -15.320  -3.605  1.00  0.00     0.034 C 
ENDBRANCH  39  40
ENDBRANCH  36  39
ENDBRANCH   1  33
TORSDOF 9
ENDMDL
MODEL 6
REMARK VINA RESULT:      -8.5      4.608     11.610
REMARK  9 active torsions:
REMARK  status: ('A' for Active; 'I' for Inactive)
REMARK    1  A    between atoms: C_2  and  O_3 
REMARK    2  A    between atoms: O_3  and  C_4 
REMARK    3  A    between atoms: C_7  and  N_8 
REMARK    4  A    between atoms: C_9  and  S_10 
REMARK    5  A    between atoms: S_10  and  C_11 
REMARK    6  A    between atoms: C_11  and  C_12 
REMARK       I    between atoms: C_12  and  N_13 
REMARK    7  A    between atoms: N_13  and  C_14 
REMARK    8  A    between atoms: C_17  and  S_18 
REMARK    9  A    between atoms: S_18  and  N_19 
ROOT
HETATM    1  N   UNL     1      41.388 -14.836   3.762  1.00  0.00    -0.256 N 
HETATM    2  C   UNL     1      40.645 -14.471   2.632  1.00  0.00     0.177 A 
HETATM    3  N   UNL     1      40.147 -13.297   2.395  1.00  0.00    -0.216 NA
HETATM    4  C   UNL     1      40.327 -12.390   3.378  1.00  0.00     0.117 A 
HETATM    5  C   UNL     1      40.969 -12.601   4.573  1.00  0.00     0.076 A 
HETATM    6  C   UNL     1      41.562 -13.907   4.812  1.00  0.00     0.268 A 
HETATM    7  O   UNL     1      42.180 -14.121   5.852  1.00  0.00    -0.267 OA
HETATM    8  S   UNL     1      39.683 -10.816   3.257  1.00  0.00    -0.073 SA
HETATM    9  C   UNL     1      40.238 -10.411   4.812  1.00  0.00    -0.008 A 
HETATM   10  C   UNL     1      40.940 -11.439   5.414  1.00  0.00    -0.026 A 
HETATM   11  C   UNL     1      41.520 -11.302   6.793  1.00  0.00     0.041 C 
HETATM   12  C   UNL     1      41.552  -9.838   7.262  1.00  0.00     0.005 C 
HETATM   13  C   UNL     1      40.247  -9.101   6.928  1.00  0.00     0.005 C 
HETATM   14  C   UNL     1      39.993  -9.062   5.414  1.00  0.00     0.047 C 
ENDROOT
BRANCH   2  15
HETATM   15  S   UNL     1      40.188 -15.670   1.424  1.00  0.00    -0.082 SA
BRANCH  15  16
HETATM   16  C   UNL     1      41.286 -15.135   0.078  1.00  0.00     0.185 C 
BRANCH  16  17
HETATM   17  C   UNL     1      40.620 -14.817  -1.261  1.00  0.00     0.231 C 
HETATM   18  N   UNL     1      39.300 -14.427  -1.208  1.00  0.00    -0.327 N 
HETATM   19  H   UNL     1      38.882 -14.416  -0.280  1.00  0.00     0.169 HD
HETATM   20  O   UNL     1      41.273 -14.965  -2.294  1.00  0.00    -0.272 OA
BRANCH  18  21
HETATM   21  C   UNL     1      38.412 -14.175  -2.270  1.00  0.00     0.034 A 
HETATM   22  C   UNL     1      38.019 -15.128  -3.211  1.00  0.00     0.031 A 
HETATM   23  C   UNL     1      37.094 -14.801  -4.210  1.00  0.00     0.027 A 
HETATM   24  C   UNL     1      36.561 -13.512  -4.265  1.00  0.00     0.074 A 
HETATM   25  C   UNL     1      36.966 -12.540  -3.350  1.00  0.00     0.027 A 
HETATM   26  C   UNL     1      37.885 -12.878  -2.353  1.00  0.00     0.031 A 
BRANCH  24  27
HETATM   27  S   UNL     1      35.399 -13.086  -5.526  1.00  0.00     0.239 S 
HETATM   28  O   UNL     1      34.078 -13.502  -5.113  1.00  0.00    -0.206 OA
HETATM   29  O   UNL     1      35.676 -11.753  -6.008  1.00  0.00    -0.206 OA
BRANCH  27  30
HETATM   30  N   UNL     1      35.842 -14.124  -6.770  1.00  0.00    -0.225 NA
HETATM   31  H   UNL     1      35.410 -15.037  -6.631  1.00  0.00     0.136 HD
HETATM   32  H   UNL     1      35.626 -13.695  -7.671  1.00  0.00     0.136 HD
ENDBRANCH  27  30
ENDBRANCH  24  27
ENDBRANCH  18  21
ENDBRANCH  16  17
ENDBRANCH  15  16
ENDBRANCH   2  15
BRANCH   1  33
HETATM   33  C   UNL     1      42.065 -16.098   3.886  1.00  0.00     0.045 A 
HETATM   34  C   UNL     1      43.267 -16.336   3.208  1.00  0.00     0.033 A 
HETATM   35  C   UNL     1      43.894 -17.584   3.277  1.00  0.00     0.039 A 
HETATM   36  C   UNL     1      43.331 -18.626   4.012  1.00  0.00     0.068 A 
HETATM   37  C   UNL     1      42.137 -18.402   4.696  1.00  0.00     0.039 A 
HETATM   38  C   UNL     1      41.506 -17.152   4.624  1.00  0.00     0.033 A 
BRANCH  36  39
HETATM   39  O   UNL     1      44.031 -19.798   3.974  1.00  0.00    -0.352 OA
BRANCH  39  40
HETATM   40  C   UNL     1      44.609 -20.171   2.724  1.00  0.00     0.171 C 
HETATM   41  C   UNL     1      43.581 -20.986   1.959  1.00  0.00     0.034 C 
ENDBRANCH  39  40
ENDBRANCH  36  39
ENDBRANCH   1  33
TORSDOF 9
ENDMDL
MODEL 7
REMARK VINA RESULT:      -8.5      4.777      9.523
REMARK  9 active torsions:
REMARK  status: ('A' for Active; 'I' for Inactive)
REMARK    1  A    between atoms: C_2  and  O_3 
REMARK    2  A    between atoms: O_3  and  C_4 
REMARK    3  A    between atoms: C_7  and  N_8 
REMARK    4  A    between atoms: C_9  and  S_10 
REMARK    5  A    between atoms: S_10  and  C_11 
REMARK    6  A    between atoms: C_11  and  C_12 
REMARK       I    between atoms: C_12  and  N_13 
REMARK    7  A    between atoms: N_13  and  C_14 
REMARK    8  A    between atoms: C_17  and  S_18 
REMARK    9  A    between atoms: S_18  and  N_19 
ROOT
HETATM    1  N   UNL     1      42.137 -15.012   4.107  1.00  0.00    -0.256 N 
HETATM    2  C   UNL     1      42.213 -14.973   2.709  1.00  0.00     0.177 A 
HETATM    3  N   UNL     1      42.611 -15.939   1.940  1.00  0.00    -0.216 NA
HETATM    4  C   UNL     1      43.042 -17.042   2.584  1.00  0.00     0.117 A 
HETATM    5  C   UNL     1      43.099 -17.222   3.945  1.00  0.00     0.076 A 
HETATM    6  C   UNL     1      42.611 -16.150   4.798  1.00  0.00     0.268 A 
HETATM    7  O   UNL     1      42.607 -16.290   6.019  1.00  0.00    -0.267 OA
HETATM    8  S   UNL     1      43.657 -18.382   1.729  1.00  0.00    -0.073 SA
HETATM    9  C   UNL     1      44.025 -19.204   3.170  1.00  0.00    -0.008 A 
HETATM   10  C   UNL     1      43.656 -18.495   4.299  1.00  0.00    -0.026 A 
HETATM   11  C   UNL     1      43.889 -19.030   5.683  1.00  0.00     0.041 C 
HETATM   12  C   UNL     1      44.226 -20.531   5.671  1.00  0.00     0.005 C 
HETATM   13  C   UNL     1      45.223 -20.886   4.560  1.00  0.00     0.005 C 
HETATM   14  C   UNL     1      44.657 -20.562   3.169  1.00  0.00     0.047 C 
ENDROOT
BRANCH   2  15
HETATM   15  S   UNL     1      41.876 -13.484   1.828  1.00  0.00    -0.082 SA
BRANCH  15  16
HETATM   16  C   UNL     1      41.887 -14.157   0.139  1.00  0.00     0.185 C 
BRANCH  16  17
HETATM   17  C   UNL     1      41.490 -13.196  -0.982  1.00  0.00     0.231 C 
HETATM   18  N   UNL     1      42.506 -12.445  -1.530  1.00  0.00    -0.327 N 
HETATM   19  H   UNL     1      43.426 -12.580  -1.114  1.00  0.00     0.169 HD
HETATM   20  O   UNL     1      40.302 -13.116  -1.296  1.00  0.00    -0.272 OA
BRANCH  18  21
HETATM   21  C   UNL     1      42.426 -11.419  -2.490  1.00  0.00     0.034 A 
HETATM   22  C   UNL     1      42.446 -10.056  -2.188  1.00  0.00     0.031 A 
HETATM   23  C   UNL     1      42.407  -9.102  -3.213  1.00  0.00     0.027 A 
HETATM   24  C   UNL     1      42.346  -9.516  -4.544  1.00  0.00     0.074 A 
HETATM   25  C   UNL     1      42.296 -10.874  -4.859  1.00  0.00     0.027 A 
HETATM   26  C   UNL     1      42.342 -11.819  -3.831  1.00  0.00     0.031 A 
BRANCH  24  27
HETATM   27  S   UNL     1      42.288  -8.320  -5.843  1.00  0.00     0.239 S 
HETATM   28  O   UNL     1      40.909  -7.992  -6.123  1.00  0.00    -0.206 OA
HETATM   29  O   UNL     1      43.294  -7.310  -5.615  1.00  0.00    -0.206 OA
BRANCH  27  30
HETATM   30  N   UNL     1      42.827  -9.214  -7.160  1.00  0.00    -0.225 NA
HETATM   31  H   UNL     1      43.423  -9.978  -6.841  1.00  0.00     0.136 HD
HETATM   32  H   UNL     1      42.030  -9.515  -7.721  1.00  0.00     0.136 HD
ENDBRANCH  27  30
ENDBRANCH  24  27
ENDBRANCH  18  21
ENDBRANCH  16  17
ENDBRANCH  15  16
ENDBRANCH   2  15
BRANCH   1  33
HETATM   33  C   UNL     1      41.522 -13.978   4.893  1.00  0.00     0.045 A 
HETATM   34  C   UNL     1      42.282 -12.916   5.400  1.00  0.00     0.033 A 
HETATM   35  C   UNL     1      41.697 -11.943   6.216  1.00  0.00     0.039 A 
HETATM   36  C   UNL     1      40.347 -12.013   6.557  1.00  0.00     0.068 A 
HETATM   37  C   UNL     1      39.579 -13.062   6.056  1.00  0.00     0.039 A 
HETATM   38  C   UNL     1      40.164 -14.040   5.239  1.00  0.00     0.033 A 
BRANCH  36  39
HETATM   39  O   UNL     1      39.912 -11.016   7.382  1.00  0.00    -0.352 OA
BRANCH  39  40
HETATM   40  C   UNL     1      39.212 -11.405   8.562  1.00  0.00     0.171 C 
HETATM   41  C   UNL     1      38.861 -10.146   9.334  1.00  0.00     0.034 C 
ENDBRANCH  39  40
ENDBRANCH  36  39
ENDBRANCH   1  33
TORSDOF 9
ENDMDL
MODEL 8
REMARK VINA RESULT:      -8.4      2.862      6.356
REMARK  9 active torsions:
REMARK  status: ('A' for Active; 'I' for Inactive)
REMARK    1  A    between atoms: C_2  and  O_3 
REMARK    2  A    between atoms: O_3  and  C_4 
REMARK    3  A    between atoms: C_7  and  N_8 
REMARK    4  A    between atoms: C_9  and  S_10 
REMARK    5  A    between atoms: S_10  and  C_11 
REMARK    6  A    between atoms: C_11  and  C_12 
REMARK       I    between atoms: C_12  and  N_13 
REMARK    7  A    between atoms: N_13  and  C_14 
REMARK    8  A    between atoms: C_17  and  S_18 
REMARK    9  A    between atoms: S_18  and  N_19 
ROOT
HETATM    1  N   UNL     1      40.997 -15.369   2.957  1.00  0.00    -0.256 N 
HETATM    2  C   UNL     1      40.062 -14.418   3.385  1.00  0.00     0.177 A 
HETATM    3  N   UNL     1      39.271 -13.730   2.621  1.00  0.00    -0.216 NA
HETATM    4  C   UNL     1      39.436 -13.932   1.298  1.00  0.00     0.117 A 
HETATM    5  C   UNL     1      40.348 -14.773   0.709  1.00  0.00     0.076 A 
HETATM    6  C   UNL     1      41.202 -15.572   1.574  1.00  0.00     0.268 A 
HETATM    7  O   UNL     1      42.001 -16.366   1.084  1.00  0.00    -0.267 OA
HETATM    8  S   UNL     1      38.521 -13.064   0.151  1.00  0.00    -0.073 SA
HETATM    9  C   UNL     1      39.352 -13.789  -1.142  1.00  0.00    -0.008 A 
HETATM   10  C   UNL     1      40.294 -14.712  -0.723  1.00  0.00    -0.026 A 
HETATM   11  C   UNL     1      41.147 -15.472  -1.697  1.00  0.00     0.041 C 
HETATM   12  C   UNL     1      40.611 -15.372  -3.135  1.00  0.00     0.005 C 
HETATM   13  C   UNL     1      40.177 -13.942  -3.486  1.00  0.00     0.005 C 
HETATM   14  C   UNL     1      39.045 -13.454  -2.569  1.00  0.00     0.047 C 
ENDROOT
BRANCH   2  15
HETATM   15  S   UNL     1      39.959 -13.952   5.082  1.00  0.00    -0.082 SA
BRANCH  15  16
HETATM   16  C   UNL     1      39.337 -12.258   4.863  1.00  0.00     0.185 C 
BRANCH  16  17
HETATM   17  C   UNL     1      39.557 -11.294   6.030  1.00  0.00     0.231 C 
HETATM   18  N   UNL     1      40.395 -11.730   7.031  1.00  0.00    -0.327 N 
HETATM   19  H   UNL     1      40.767 -12.670   6.915  1.00  0.00     0.169 HD
HETATM   20  O   UNL     1      38.951 -10.222   6.031  1.00  0.00    -0.272 OA
BRANCH  18  21
HETATM   21  C   UNL     1      40.698 -11.113   8.259  1.00  0.00     0.034 A 
HETATM   22  C   UNL     1      39.801 -10.991   9.322  1.00  0.00     0.031 A 
HETATM   23  C   UNL     1      40.204 -10.399  10.526  1.00  0.00     0.027 A 
HETATM   24  C   UNL     1      41.510  -9.929  10.664  1.00  0.00     0.074 A 
HETATM   25  C   UNL     1      42.410 -10.017   9.601  1.00  0.00     0.027 A 
HETATM   26  C   UNL     1      42.001 -10.614   8.406  1.00  0.00     0.031 A 
BRANCH  24  27
HETATM   27  S   UNL     1      42.026  -9.174  12.177  1.00  0.00     0.239 S 
HETATM   28  O   UNL     1      42.281  -7.771  11.943  1.00  0.00    -0.206 OA
HETATM   29  O   UNL     1      41.190  -9.640  13.258  1.00  0.00    -0.206 OA
BRANCH  27  30
HETATM   30  N   UNL     1      43.529  -9.882  12.422  1.00  0.00    -0.225 NA
HETATM   31  H   UNL     1      43.514 -10.850  12.100  1.00  0.00     0.136 HD
HETATM   32  H   UNL     1      44.254  -9.311  11.987  1.00  0.00     0.136 HD
ENDBRANCH  27  30
ENDBRANCH  24  27
ENDBRANCH  18  21
ENDBRANCH  16  17
ENDBRANCH  15  16
ENDBRANCH   2  15
BRANCH   1  33
HETATM   33  C   UNL     1      41.718 -16.226   3.858  1.00  0.00     0.045 A 
HETATM   34  C   UNL     1      43.009 -15.890   4.288  1.00  0.00     0.033 A 
HETATM   35  C   UNL     1      43.736 -16.753   5.114  1.00  0.00     0.039 A 
HETATM   36  C   UNL     1      43.201 -17.974   5.518  1.00  0.00     0.068 A 
HETATM   37  C   UNL     1      41.917 -18.320   5.102  1.00  0.00     0.039 A 
HETATM   38  C   UNL     1      41.187 -17.457   4.271  1.00  0.00     0.033 A 
BRANCH  36  39
HETATM   39  O   UNL     1      44.027 -18.731   6.300  1.00  0.00    -0.352 OA
BRANCH  39  40
HETATM   40  C   UNL     1      44.251 -20.080   5.895  1.00  0.00     0.171 C 
HETATM   41  C   UNL     1      43.717 -20.991   6.987  1.00  0.00     0.034 C 
ENDBRANCH  39  40
ENDBRANCH  36  39
ENDBRANCH   1  33
TORSDOF 9
ENDMDL
MODEL 9
REMARK VINA RESULT:      -8.0      4.713      8.718
REMARK  9 active torsions:
REMARK  status: ('A' for Active; 'I' for Inactive)
REMARK    1  A    between atoms: C_2  and  O_3 
REMARK    2  A    between atoms: O_3  and  C_4 
REMARK    3  A    between atoms: C_7  and  N_8 
REMARK    4  A    between atoms: C_9  and  S_10 
REMARK    5  A    between atoms: S_10  and  C_11 
REMARK    6  A    between atoms: C_11  and  C_12 
REMARK       I    between atoms: C_12  and  N_13 
REMARK    7  A    between atoms: N_13  and  C_14 
REMARK    8  A    between atoms: C_17  and  S_18 
REMARK    9  A    between atoms: S_18  and  N_19 
ROOT
HETATM    1  N   UNL     1      39.679 -13.421   0.310  1.00  0.00    -0.256 N 
HETATM    2  C   UNL     1      39.587 -12.185   0.962  1.00  0.00     0.177 A 
HETATM    3  N   UNL     1      38.857 -11.179   0.590  1.00  0.00    -0.216 NA
HETATM    4  C   UNL     1      38.189 -11.355  -0.568  1.00  0.00     0.117 A 
HETATM    5  C   UNL     1      38.220 -12.473  -1.366  1.00  0.00     0.076 A 
HETATM    6  C   UNL     1      39.008 -13.611  -0.920  1.00  0.00     0.268 A 
HETATM    7  O   UNL     1      39.028 -14.644  -1.585  1.00  0.00    -0.267 OA
HETATM    8  S   UNL     1      37.231 -10.112  -1.234  1.00  0.00    -0.073 SA
HETATM    9  C   UNL     1      36.870 -11.050  -2.605  1.00  0.00    -0.008 A 
HETATM   10  C   UNL     1      37.434 -12.311  -2.554  1.00  0.00    -0.026 A 
HETATM   11  C   UNL     1      37.247 -13.309  -3.662  1.00  0.00     0.041 C 
HETATM   12  C   UNL     1      36.113 -12.902  -4.618  1.00  0.00     0.005 C 
HETATM   13  C   UNL     1      36.164 -11.408  -4.965  1.00  0.00     0.005 C 
HETATM   14  C   UNL     1      36.005 -10.532  -3.713  1.00  0.00     0.047 C 
ENDROOT
BRANCH   2  15
HETATM   15  S   UNL     1      40.606 -11.820   2.353  1.00  0.00    -0.082 SA
BRANCH  15  16
HETATM   16  C   UNL     1      39.464 -12.333   3.671  1.00  0.00     0.185 C 
BRANCH  16  17
HETATM   17  C   UNL     1      40.000 -13.346   4.683  1.00  0.00     0.231 C 
HETATM   18  N   UNL     1      41.273 -13.820   4.456  1.00  0.00    -0.327 N 
HETATM   19  H   UNL     1      41.728 -13.472   3.614  1.00  0.00     0.169 HD
HETATM   20  O   UNL     1      39.264 -13.707   5.602  1.00  0.00    -0.272 OA
BRANCH  18  21
HETATM   21  C   UNL     1      41.979 -14.821   5.149  1.00  0.00     0.034 A 
HETATM   22  C   UNL     1      43.365 -14.834   5.316  1.00  0.00     0.031 A 
HETATM   23  C   UNL     1      43.980 -15.849   6.060  1.00  0.00     0.027 A 
HETATM   24  C   UNL     1      43.202 -16.853   6.638  1.00  0.00     0.074 A 
HETATM   25  C   UNL     1      41.819 -16.870   6.455  1.00  0.00     0.027 A 
HETATM   26  C   UNL     1      41.214 -15.851   5.716  1.00  0.00     0.031 A 
BRANCH  24  27
HETATM   27  S   UNL     1      43.969 -18.142   7.572  1.00  0.00     0.239 S 
HETATM   28  O   UNL     1      43.199 -19.356   7.426  1.00  0.00    -0.206 OA
HETATM   29  O   UNL     1      45.398 -18.102   7.367  1.00  0.00    -0.206 OA
BRANCH  27  30
HETATM   30  N   UNL     1      43.718 -17.623   9.150  1.00  0.00    -0.225 NA
HETATM   31  H   UNL     1      44.377 -18.084   9.777  1.00  0.00     0.136 HD
HETATM   32  H   UNL     1      43.754 -16.603   9.187  1.00  0.00     0.136 HD
ENDBRANCH  27  30
ENDBRANCH  24  27
ENDBRANCH  18  21
ENDBRANCH  16  17
ENDBRANCH  15  16
ENDBRANCH   2  15
BRANCH   1  33
HETATM   33  C   UNL     1      40.364 -14.556   0.864  1.00  0.00     0.045 A 
HETATM   34  C   UNL     1      39.683 -15.484   1.662  1.00  0.00     0.033 A 
HETATM   35  C   UNL     1      40.361 -16.555   2.254  1.00  0.00     0.039 A 
HETATM   36  C   UNL     1      41.734 -16.717   2.074  1.00  0.00     0.068 A 
HETATM   37  C   UNL     1      42.423 -15.804   1.278  1.00  0.00     0.039 A 
HETATM   38  C   UNL     1      41.745 -14.728   0.687  1.00  0.00     0.033 A 
BRANCH  36  39
HETATM   39  O   UNL     1      42.275 -17.787   2.728  1.00  0.00    -0.352 OA
BRANCH  39  40
HETATM   40  C   UNL     1      43.695 -17.820   2.859  1.00  0.00     0.171 C 
HETATM   41  C   UNL     1      44.048 -18.929   3.835  1.00  0.00     0.034 C 
ENDBRANCH  39  40
ENDBRANCH  36  39
ENDBRANCH   1  33
TORSDOF 9
ENDMDL
MODEL 10
REMARK VINA RESULT:      -7.9      3.078      6.756
REMARK  9 active torsions:
REMARK  status: ('A' for Active; 'I' for Inactive)
REMARK    1  A    between atoms: C_2  and  O_3 
REMARK    2  A    between atoms: O_3  and  C_4 
REMARK    3  A    between atoms: C_7  and  N_8 
REMARK    4  A    between atoms: C_9  and  S_10 
REMARK    5  A    between atoms: S_10  and  C_11 
REMARK    6  A    between atoms: C_11  and  C_12 
REMARK       I    between atoms: C_12  and  N_13 
REMARK    7  A    between atoms: N_13  and  C_14 
REMARK    8  A    between atoms: C_17  and  S_18 
REMARK    9  A    between atoms: S_18  and  N_19 
ROOT
HETATM    1  N   UNL     1      40.650 -13.444   4.117  1.00  0.00    -0.256 N 
HETATM    2  C   UNL     1      40.211 -12.228   4.657  1.00  0.00     0.177 A 
HETATM    3  N   UNL     1      39.361 -11.415   4.110  1.00  0.00    -0.216 NA
HETATM    4  C   UNL     1      38.933 -11.775   2.883  1.00  0.00     0.117 A 
HETATM    5  C   UNL     1      39.313 -12.894   2.183  1.00  0.00     0.076 A 
HETATM    6  C   UNL     1      40.233 -13.822   2.821  1.00  0.00     0.268 A 
HETATM    7  O   UNL     1      40.564 -14.855   2.243  1.00  0.00    -0.267 OA
HETATM    8  S   UNL     1      37.862 -10.789   1.996  1.00  0.00    -0.073 SA
HETATM    9  C   UNL     1      37.916 -11.839   0.660  1.00  0.00    -0.008 A 
HETATM   10  C   UNL     1      38.706 -12.951   0.884  1.00  0.00    -0.026 A 
HETATM   11  C   UNL     1      38.900 -14.011  -0.162  1.00  0.00     0.041 C 
HETATM   12  C   UNL     1      37.872 -13.892  -1.299  1.00  0.00     0.005 C 
HETATM   13  C   UNL     1      37.676 -12.436  -1.745  1.00  0.00     0.005 C 
HETATM   14  C   UNL     1      37.149 -11.561  -0.597  1.00  0.00     0.047 C 
ENDROOT
BRANCH   2  15
HETATM   15  S   UNL     1      40.905 -11.600   6.150  1.00  0.00    -0.082 SA
BRANCH  15  16
HETATM   16  C   UNL     1      39.490 -11.894   7.253  1.00  0.00     0.185 C 
BRANCH  16  17
HETATM   17  C   UNL     1      39.479 -11.116   8.570  1.00  0.00     0.231 C 
HETATM   18  N   UNL     1      40.664 -11.083   9.270  1.00  0.00    -0.327 N 
HETATM   19  H   UNL     1      41.432 -11.608   8.857  1.00  0.00     0.169 HD
HETATM   20  O   UNL     1      38.421 -10.609   8.946  1.00  0.00    -0.272 OA
BRANCH  18  21
HETATM   21  C   UNL     1      40.923 -10.540  10.543  1.00  0.00     0.034 A 
HETATM   22  C   UNL     1      41.650  -9.370  10.766  1.00  0.00     0.031 A 
HETATM   23  C   UNL     1      41.821  -8.878  12.066  1.00  0.00     0.027 A 
HETATM   24  C   UNL     1      41.261  -9.563  13.146  1.00  0.00     0.074 A 
HETATM   25  C   UNL     1      40.556 -10.750  12.941  1.00  0.00     0.027 A 
HETATM   26  C   UNL     1      40.386 -11.230  11.640  1.00  0.00     0.031 A 
BRANCH  24  27
HETATM   27  S   UNL     1      41.478  -8.956  14.790  1.00  0.00     0.239 S 
HETATM   28  O   UNL     1      40.249  -8.338  15.233  1.00  0.00    -0.206 OA
HETATM   29  O   UNL     1      42.178  -9.940  15.580  1.00  0.00    -0.206 OA
BRANCH  27  30
HETATM   30  N   UNL     1      42.567  -7.699  14.554  1.00  0.00    -0.225 NA
HETATM   31  H   UNL     1      43.514  -8.070  14.477  1.00  0.00     0.136 HD
HETATM   32  H   UNL     1      42.275  -7.135  13.756  1.00  0.00     0.136 HD
ENDBRANCH  27  30
ENDBRANCH  24  27
ENDBRANCH  18  21
ENDBRANCH  16  17
ENDBRANCH  15  16
ENDBRANCH   2  15
BRANCH   1  33
HETATM   33  C   UNL     1      41.453 -14.386   4.847  1.00  0.00     0.045 A 
HETATM   34  C   UNL     1      40.855 -15.375   5.640  1.00  0.00     0.033 A 
HETATM   35  C   UNL     1      41.635 -16.252   6.400  1.00  0.00     0.039 A 
HETATM   36  C   UNL     1      43.026 -16.157   6.397  1.00  0.00     0.068 A 
HETATM   37  C   UNL     1      43.634 -15.181   5.610  1.00  0.00     0.039 A 
HETATM   38  C   UNL     1      42.853 -14.299   4.849  1.00  0.00     0.033 A 
BRANCH  36  39
HETATM   39  O   UNL     1      43.663 -17.056   7.203  1.00  0.00    -0.352 OA
BRANCH  39  40
HETATM   40  C   UNL     1      43.682 -18.416   6.775  1.00  0.00     0.171 C 
HETATM   41  C   UNL     1      44.937 -18.628   5.947  1.00  0.00     0.034 C 
ENDBRANCH  39  40
ENDBRANCH  36  39
ENDBRANCH   1  33
TORSDOF 9
ENDMDL
