MODEL 1
REMARK VINA RESULT:      -9.2      0.000      0.000
REMARK  3 active torsions:
REMARK  status: ('A' for Active; 'I' for Inactive)
REMARK    1  A    between atoms: C_3  and  C_4 
REMARK    2  A    between atoms: C_8  and  C_9 
REMARK       I    between atoms: C_9  and  N_10 
REMARK    3  A    between atoms: N_10  and  N_11 
ROOT
HETATM    1  C   UNL     1      40.920 -15.146   0.051  1.00  0.00     0.291 C 
HETATM    2  N   UNL     1      41.922 -14.928  -0.868  1.00  0.00    -0.251 N 
HETATM    3  O   UNL     1      39.836 -14.567   0.047  1.00  0.00    -0.264 OA
HETATM    4  H   UNL     1      42.797 -15.435  -0.791  1.00  0.00     0.191 HD
ENDROOT
BRANCH   1   5
HETATM    5  C   UNL     1      41.282 -16.162   1.047  1.00  0.00     0.148 A 
HETATM    6  N   UNL     1      40.664 -16.243   2.243  1.00  0.00    -0.169 NA
HETATM    7  N   UNL     1      41.261 -17.288   2.845  1.00  0.00    -0.277 N 
HETATM    8  C   UNL     1      42.272 -17.861   2.115  1.00  0.00     0.064 A 
HETATM    9  H   UNL     1      40.939 -17.565   3.766  1.00  0.00     0.189 HD
HETATM   10  C   UNL     1      42.291 -17.149   0.932  1.00  0.00     0.071 A 
BRANCH   8  11
HETATM   11  C   UNL     1      43.119 -18.952   2.602  1.00  0.00     0.014 A 
HETATM   12  C   UNL     1      43.209 -20.118   1.820  1.00  0.00     0.015 A 
HETATM   13  C   UNL     1      44.012 -21.193   2.211  1.00  0.00     0.001 A 
HETATM   14  C   UNL     1      44.735 -21.126   3.397  1.00  0.00     0.002 A 
HETATM   15  C   UNL     1      44.656 -19.984   4.192  1.00  0.00     0.025 A 
HETATM   16  C   UNL     1      43.857 -18.901   3.800  1.00  0.00     0.046 A 
HETATM   17 CL   UNL     1      43.812 -17.537   4.866  1.00  0.00    -0.083 Cl
ENDBRANCH   8  11
ENDBRANCH   1   5
BRANCH   2  18
HETATM   18  N   UNL     1      41.720 -14.049  -1.908  1.00  0.00    -0.167 N 
HETATM   19  C   UNL     1      41.180 -14.408  -3.115  1.00  0.00     0.345 A 
HETATM   20  O   UNL     1      40.904 -15.522  -3.527  1.00  0.00    -0.245 OA
HETATM   21  N   UNL     1      41.005 -13.249  -3.851  1.00  0.00    -0.323 N 
HETATM   22  C   UNL     1      41.415 -12.061  -3.122  1.00  0.00     0.117 A 
HETATM   23  H   UNL     1      40.590 -13.279  -4.773  1.00  0.00     0.165 HD
HETATM   24  C   UNL     1      40.235 -11.120  -2.862  1.00  0.00     0.041 C 
HETATM   25  C   UNL     1      42.581 -11.357  -3.823  1.00  0.00     0.041 C 
HETATM   26  C   UNL     1      41.887 -12.693  -1.795  1.00  0.00     0.275 A 
HETATM   27  C   UNL     1      39.803 -10.373  -4.124  1.00  0.00     0.003 C 
HETATM   28  C   UNL     1      40.977  -9.660  -4.789  1.00  0.00     0.000 C 
HETATM   29  C   UNL     1      42.128 -10.617  -5.082  1.00  0.00     0.003 C 
HETATM   30  O   UNL     1      42.338 -12.079  -0.837  1.00  0.00    -0.268 OA
ENDBRANCH   2  18
TORSDOF 3
ENDMDL
MODEL 2
REMARK VINA RESULT:      -9.0      1.574      2.063
REMARK  3 active torsions:
REMARK  status: ('A' for Active; 'I' for Inactive)
REMARK    1  A    between atoms: C_3  and  C_4 
REMARK    2  A    between atoms: C_8  and  C_9 
REMARK       I    between atoms: C_9  and  N_10 
REMARK    3  A    between atoms: N_10  and  N_11 
ROOT
HETATM    1  C   UNL     1      41.382 -15.172   0.077  1.00  0.00     0.291 C 
HETATM    2  N   UNL     1      40.430 -15.527  -0.853  1.00  0.00    -0.251 N 
HETATM    3  O   UNL     1      41.945 -14.081   0.112  1.00  0.00    -0.264 OA
HETATM    4  H   UNL     1      40.021 -16.455  -0.827  1.00  0.00     0.191 HD
ENDROOT
BRANCH   1   5
HETATM    5  C   UNL     1      41.656 -16.246   1.040  1.00  0.00     0.148 A 
HETATM    6  N   UNL     1      41.016 -16.326   2.223  1.00  0.00    -0.169 NA
HETATM    7  N   UNL     1      41.528 -17.432   2.794  1.00  0.00    -0.277 N 
HETATM    8  C   UNL     1      42.508 -18.048   2.057  1.00  0.00     0.064 A 
HETATM    9  H   UNL     1      41.172 -17.718   3.700  1.00  0.00     0.189 HD
HETATM   10  C   UNL     1      42.596 -17.297   0.902  1.00  0.00     0.071 A 
BRANCH   8  11
HETATM   11  C   UNL     1      43.269 -19.213   2.515  1.00  0.00     0.014 A 
HETATM   12  C   UNL     1      43.234 -20.376   1.726  1.00  0.00     0.015 A 
HETATM   13  C   UNL     1      43.950 -21.520   2.088  1.00  0.00     0.001 A 
HETATM   14  C   UNL     1      44.708 -21.525   3.254  1.00  0.00     0.002 A 
HETATM   15  C   UNL     1      44.752 -20.387   4.057  1.00  0.00     0.025 A 
HETATM   16  C   UNL     1      44.041 -19.236   3.692  1.00  0.00     0.046 A 
HETATM   17 CL   UNL     1      44.146 -17.880   4.766  1.00  0.00    -0.083 Cl
ENDBRANCH   8  11
ENDBRANCH   1   5
BRANCH   2  18
HETATM   18  N   UNL     1      40.013 -14.612  -1.792  1.00  0.00    -0.167 N 
HETATM   19  C   UNL     1      40.396 -14.641  -3.107  1.00  0.00     0.345 A 
HETATM   20  O   UNL     1      41.222 -15.359  -3.647  1.00  0.00    -0.245 OA
HETATM   21  N   UNL     1      39.678 -13.660  -3.769  1.00  0.00    -0.323 N 
HETATM   22  C   UNL     1      38.763 -12.953  -2.890  1.00  0.00     0.117 A 
HETATM   23  H   UNL     1      39.785 -13.524  -4.766  1.00  0.00     0.165 HD
HETATM   24  C   UNL     1      37.303 -13.169  -3.299  1.00  0.00     0.041 C 
HETATM   25  C   UNL     1      39.128 -11.469  -2.789  1.00  0.00     0.041 C 
HETATM   26  C   UNL     1      39.048 -13.669  -1.552  1.00  0.00     0.275 A 
HETATM   27  C   UNL     1      36.932 -12.382  -4.555  1.00  0.00     0.003 C 
HETATM   28  C   UNL     1      37.283 -10.903  -4.420  1.00  0.00     0.000 C 
HETATM   29  C   UNL     1      38.750 -10.700  -4.055  1.00  0.00     0.003 C 
HETATM   30  O   UNL     1      38.508 -13.416  -0.482  1.00  0.00    -0.268 OA
ENDBRANCH   2  18
TORSDOF 3
ENDMDL
MODEL 3
REMARK VINA RESULT:      -8.9      8.157     10.383
REMARK  3 active torsions:
REMARK  status: ('A' for Active; 'I' for Inactive)
REMARK    1  A    between atoms: C_3  and  C_4 
REMARK    2  A    between atoms: C_8  and  C_9 
REMARK       I    between atoms: C_9  and  N_10 
REMARK    3  A    between atoms: N_10  and  N_11 
ROOT
HETATM    1  C   UNL     1      44.819 -13.547   7.346  1.00  0.00     0.291 C 
HETATM    2  N   UNL     1      43.625 -14.197   7.132  1.00  0.00    -0.251 N 
HETATM    3  O   UNL     1      45.816 -13.674   6.639  1.00  0.00    -0.264 OA
HETATM    4  H   UNL     1      42.850 -14.052   7.771  1.00  0.00     0.191 HD
ENDROOT
BRANCH   1   5
HETATM    5  C   UNL     1      44.779 -12.667   8.521  1.00  0.00     0.148 A 
HETATM    6  N   UNL     1      45.810 -12.580   9.385  1.00  0.00    -0.169 NA
HETATM    7  N   UNL     1      45.395 -11.678  10.294  1.00  0.00    -0.277 N 
HETATM    8  C   UNL     1      44.121 -11.211  10.088  1.00  0.00     0.064 A 
HETATM    9  H   UNL     1      46.027 -11.422  11.045  1.00  0.00     0.189 HD
HETATM   10  C   UNL     1      43.707 -11.834   8.928  1.00  0.00     0.071 A 
BRANCH   8  11
HETATM   11  C   UNL     1      43.426 -10.294  10.995  1.00  0.00     0.014 A 
HETATM   12  C   UNL     1      43.863 -10.229  12.330  1.00  0.00     0.015 A 
HETATM   13  C   UNL     1      43.261  -9.364  13.248  1.00  0.00     0.001 A 
HETATM   14  C   UNL     1      42.204  -8.554  12.850  1.00  0.00     0.002 A 
HETATM   15  C   UNL     1      41.749  -8.606  11.534  1.00  0.00     0.025 A 
HETATM   16  C   UNL     1      42.354  -9.467  10.609  1.00  0.00     0.046 A 
HETATM   17 CL   UNL     1      41.703  -9.472   9.004  1.00  0.00    -0.083 Cl
ENDBRANCH   8  11
ENDBRANCH   1   5
BRANCH   2  18
HETATM   18  N   UNL     1      43.475 -15.014   6.035  1.00  0.00    -0.167 N 
HETATM   19  C   UNL     1      43.669 -16.370   6.063  1.00  0.00     0.345 A 
HETATM   20  O   UNL     1      44.103 -17.061   6.970  1.00  0.00    -0.245 OA
HETATM   21  N   UNL     1      43.299 -16.866   4.825  1.00  0.00    -0.323 N 
HETATM   22  C   UNL     1      42.817 -15.827   3.932  1.00  0.00     0.117 A 
HETATM   23  H   UNL     1      43.335 -17.859   4.633  1.00  0.00     0.165 HD
HETATM   24  C   UNL     1      41.345 -16.034   3.562  1.00  0.00     0.041 C 
HETATM   25  C   UNL     1      43.716 -15.697   2.699  1.00  0.00     0.041 C 
HETATM   26  C   UNL     1      42.963 -14.586   4.838  1.00  0.00     0.275 A 
HETATM   27  C   UNL     1      41.155 -17.179   2.567  1.00  0.00     0.003 C 
HETATM   28  C   UNL     1      42.043 -17.013   1.337  1.00  0.00     0.000 C 
HETATM   29  C   UNL     1      43.511 -16.851   1.717  1.00  0.00     0.003 C 
HETATM   30  O   UNL     1      42.680 -13.438   4.520  1.00  0.00    -0.268 OA
ENDBRANCH   2  18
TORSDOF 3
ENDMDL
MODEL 4
REMARK VINA RESULT:      -8.8      1.101      2.055
REMARK  3 active torsions:
REMARK  status: ('A' for Active; 'I' for Inactive)
REMARK    1  A    between atoms: C_3  and  C_4 
REMARK    2  A    between atoms: C_8  and  C_9 
REMARK       I    between atoms: C_9  and  N_10 
REMARK    3  A    between atoms: N_10  and  N_11 
ROOT
HETATM    1  C   UNL     1      41.127 -15.252   1.020  1.00  0.00     0.291 C 
HETATM    2  N   UNL     1      42.117 -14.752   0.203  1.00  0.00    -0.251 N 
HETATM    3  O   UNL     1      39.985 -14.805   1.081  1.00  0.00    -0.264 OA
HETATM    4  H   UNL     1      43.043 -15.166   0.220  1.00  0.00     0.191 HD
ENDROOT
BRANCH   1   5
HETATM    5  C   UNL     1      41.583 -16.397   1.819  1.00  0.00     0.148 A 
HETATM    6  N   UNL     1      41.326 -16.494   3.139  1.00  0.00    -0.169 NA
HETATM    7  N   UNL     1      41.886 -17.666   3.492  1.00  0.00    -0.277 N 
HETATM    8  C   UNL     1      42.538 -18.312   2.471  1.00  0.00     0.064 A 
HETATM    9  H   UNL     1      41.797 -17.976   4.454  1.00  0.00     0.189 HD
HETATM   10  C   UNL     1      42.339 -17.506   1.368  1.00  0.00     0.071 A 
BRANCH   8  11
HETATM   11  C   UNL     1      43.295 -19.555   2.638  1.00  0.00     0.014 A 
HETATM   12  C   UNL     1      43.086 -20.586   1.704  1.00  0.00     0.015 A 
HETATM   13  C   UNL     1      43.785 -21.793   1.788  1.00  0.00     0.001 A 
HETATM   14  C   UNL     1      44.702 -21.995   2.814  1.00  0.00     0.002 A 
HETATM   15  C   UNL     1      44.921 -20.991   3.755  1.00  0.00     0.025 A 
HETATM   16  C   UNL     1      44.226 -19.777   3.670  1.00  0.00     0.046 A 
HETATM   17 CL   UNL     1      44.556 -18.601   4.899  1.00  0.00    -0.083 Cl
ENDBRANCH   8  11
ENDBRANCH   1   5
BRANCH   2  18
HETATM   18  N   UNL     1      41.837 -13.715  -0.657  1.00  0.00    -0.167 N 
HETATM   19  C   UNL     1      42.049 -12.395  -0.355  1.00  0.00     0.345 A 
HETATM   20  O   UNL     1      42.388 -11.900   0.707  1.00  0.00    -0.245 OA
HETATM   21  N   UNL     1      41.783 -11.662  -1.497  1.00  0.00    -0.323 N 
HETATM   22  C   UNL     1      41.400 -12.500  -2.620  1.00  0.00     0.117 A 
HETATM   23  H   UNL     1      41.904 -10.657  -1.507  1.00  0.00     0.165 HD
HETATM   24  C   UNL     1      42.412 -12.411  -3.766  1.00  0.00     0.041 C 
HETATM   25  C   UNL     1      39.971 -12.193  -3.077  1.00  0.00     0.041 C 
HETATM   26  C   UNL     1      41.467 -13.896  -1.964  1.00  0.00     0.275 A 
HETATM   27  C   UNL     1      42.306 -11.091  -4.529  1.00  0.00     0.003 C 
HETATM   28  C   UNL     1      40.878 -10.821  -4.996  1.00  0.00     0.000 C 
HETATM   29  C   UNL     1      39.886 -10.869  -3.838  1.00  0.00     0.003 C 
HETATM   30  O   UNL     1      41.218 -14.956  -2.525  1.00  0.00    -0.268 OA
ENDBRANCH   2  18
TORSDOF 3
ENDMDL
MODEL 5
REMARK VINA RESULT:      -8.4      9.469     11.882
REMARK  3 active torsions:
REMARK  status: ('A' for Active; 'I' for Inactive)
REMARK    1  A    between atoms: C_3  and  C_4 
REMARK    2  A    between atoms: C_8  and  C_9 
REMARK       I    between atoms: C_9  and  N_10 
REMARK    3  A    between atoms: N_10  and  N_11 
ROOT
HETATM    1  C   UNL     1      44.610 -12.035   8.879  1.00  0.00     0.291 C 
HETATM    2  N   UNL     1      43.373 -12.106   9.479  1.00  0.00    -0.251 N 
HETATM    3  O   UNL     1      45.446 -11.166   9.112  1.00  0.00    -0.264 OA
HETATM    4  H   UNL     1      42.729 -12.846   9.223  1.00  0.00     0.191 HD
ENDROOT
BRANCH   1   5
HETATM    5  C   UNL     1      44.833 -13.125   7.920  1.00  0.00     0.148 A 
HETATM    6  N   UNL     1      45.815 -13.075   6.997  1.00  0.00    -0.169 NA
HETATM    7  N   UNL     1      45.698 -14.243   6.339  1.00  0.00    -0.277 N 
HETATM    8  C   UNL     1      44.654 -15.029   6.759  1.00  0.00     0.064 A 
HETATM    9  H   UNL     1      46.361 -14.450   5.599  1.00  0.00     0.189 HD
HETATM   10  C   UNL     1      44.086 -14.322   7.800  1.00  0.00     0.071 A 
BRANCH   8  11
HETATM   11  C   UNL     1      44.279 -16.299   6.132  1.00  0.00     0.014 A 
HETATM   12  C   UNL     1      44.913 -17.470   6.583  1.00  0.00     0.015 A 
HETATM   13  C   UNL     1      44.594 -18.720   6.046  1.00  0.00     0.001 A 
HETATM   14  C   UNL     1      43.639 -18.821   5.040  1.00  0.00     0.002 A 
HETATM   15  C   UNL     1      43.001 -17.674   4.572  1.00  0.00     0.025 A 
HETATM   16  C   UNL     1      43.315 -16.419   5.113  1.00  0.00     0.046 A 
HETATM   17 CL   UNL     1      42.481 -15.053   4.451  1.00  0.00    -0.083 Cl
ENDBRANCH   8  11
ENDBRANCH   1   5
BRANCH   2  18
HETATM   18  N   UNL     1      43.028 -11.193  10.450  1.00  0.00    -0.167 N 
HETATM   19  C   UNL     1      42.360 -10.024  10.194  1.00  0.00     0.345 A 
HETATM   20  O   UNL     1      42.066  -9.532   9.117  1.00  0.00    -0.245 OA
HETATM   21  N   UNL     1      42.071  -9.438  11.413  1.00  0.00    -0.323 N 
HETATM   22  C   UNL     1      42.532 -10.235  12.537  1.00  0.00     0.117 A 
HETATM   23  H   UNL     1      41.551  -8.571  11.461  1.00  0.00     0.165 HD
HETATM   24  C   UNL     1      41.367 -10.724  13.402  1.00  0.00     0.041 C 
HETATM   25  C   UNL     1      43.589  -9.483  13.351  1.00  0.00     0.041 C 
HETATM   26  C   UNL     1      43.172 -11.426  11.793  1.00  0.00     0.275 A 
HETATM   27  C   UNL     1      40.771  -9.604  14.255  1.00  0.00     0.003 C 
HETATM   28  C   UNL     1      41.840  -8.888  15.075  1.00  0.00     0.000 C 
HETATM   29  C   UNL     1      42.974  -8.368  14.197  1.00  0.00     0.003 C 
HETATM   30  O   UNL     1      43.716 -12.386  12.325  1.00  0.00    -0.268 OA
ENDBRANCH   2  18
TORSDOF 3
ENDMDL
MODEL 6
REMARK VINA RESULT:      -8.4      8.680     10.897
REMARK  3 active torsions:
REMARK  status: ('A' for Active; 'I' for Inactive)
REMARK    1  A    between atoms: C_3  and  C_4 
REMARK    2  A    between atoms: C_8  and  C_9 
REMARK       I    between atoms: C_9  and  N_10 
REMARK    3  A    between atoms: N_10  and  N_11 
ROOT
HETATM    1  C   UNL     1      43.836 -13.070   7.921  1.00  0.00     0.291 C 
HETATM    2  N   UNL     1      43.174 -11.882   8.138  1.00  0.00    -0.251 N 
HETATM    3  O   UNL     1      44.635 -13.573   8.708  1.00  0.00    -0.264 OA
HETATM    4  H   UNL     1      42.540 -11.521   7.433  1.00  0.00     0.191 HD
ENDROOT
BRANCH   1   5
HETATM    5  C   UNL     1      43.482 -13.685   6.636  1.00  0.00     0.148 A 
HETATM    6  N   UNL     1      42.662 -13.078   5.755  1.00  0.00    -0.169 NA
HETATM    7  N   UNL     1      42.601 -13.941   4.723  1.00  0.00    -0.277 N 
HETATM    8  C   UNL     1      43.306 -15.103   4.914  1.00  0.00     0.064 A 
HETATM    9  H   UNL     1      42.053 -13.684   3.909  1.00  0.00     0.189 HD
HETATM   10  C   UNL     1      43.899 -14.949   6.151  1.00  0.00     0.071 A 
BRANCH   8  11
HETATM   11  C   UNL     1      43.314 -16.222   3.969  1.00  0.00     0.014 A 
HETATM   12  C   UNL     1      43.766 -15.978   2.660  1.00  0.00     0.015 A 
HETATM   13  C   UNL     1      43.820 -17.000   1.709  1.00  0.00     0.001 A 
HETATM   14  C   UNL     1      43.413 -18.286   2.047  1.00  0.00     0.002 A 
HETATM   15  C   UNL     1      42.955 -18.551   3.336  1.00  0.00     0.025 A 
HETATM   16  C   UNL     1      42.906 -17.530   4.294  1.00  0.00     0.046 A 
HETATM   17 CL   UNL     1      42.304 -17.957   5.861  1.00  0.00    -0.083 Cl
ENDBRANCH   8  11
ENDBRANCH   1   5
BRANCH   2  18
HETATM   18  N   UNL     1      43.348 -11.206   9.324  1.00  0.00    -0.167 N 
HETATM   19  C   UNL     1      44.530 -10.628   9.706  1.00  0.00     0.345 A 
HETATM   20  O   UNL     1      45.623 -10.697   9.167  1.00  0.00    -0.245 OA
HETATM   21  N   UNL     1      44.291  -9.931  10.877  1.00  0.00    -0.323 N 
HETATM   22  C   UNL     1      42.903 -10.013  11.298  1.00  0.00     0.117 A 
HETATM   23  H   UNL     1      45.028  -9.400  11.323  1.00  0.00     0.165 HD
HETATM   24  C   UNL     1      42.224  -8.641  11.287  1.00  0.00     0.041 C 
HETATM   25  C   UNL     1      42.779 -10.715  12.655  1.00  0.00     0.041 C 
HETATM   26  C   UNL     1      42.320 -10.900  10.178  1.00  0.00     0.275 A 
HETATM   27  C   UNL     1      42.676  -7.762  12.452  1.00  0.00     0.003 C 
HETATM   28  C   UNL     1      42.519  -8.474  13.793  1.00  0.00     0.000 C 
HETATM   29  C   UNL     1      43.237  -9.820  13.806  1.00  0.00     0.003 C 
HETATM   30  O   UNL     1      41.153 -11.263  10.094  1.00  0.00    -0.268 OA
ENDBRANCH   2  18
TORSDOF 3
ENDMDL
MODEL 7
REMARK VINA RESULT:      -8.2      8.815     11.335
REMARK  3 active torsions:
REMARK  status: ('A' for Active; 'I' for Inactive)
REMARK    1  A    between atoms: C_3  and  C_4 
REMARK    2  A    between atoms: C_8  and  C_9 
REMARK       I    between atoms: C_9  and  N_10 
REMARK    3  A    between atoms: N_10  and  N_11 
ROOT
HETATM    1  C   UNL     1      41.527 -10.495   7.053  1.00  0.00     0.291 C 
HETATM    2  N   UNL     1      41.227 -11.249   8.165  1.00  0.00    -0.251 N 
HETATM    3  O   UNL     1      41.853  -9.310   7.084  1.00  0.00    -0.264 OA
HETATM    4  H   UNL     1      40.950 -12.219   8.058  1.00  0.00     0.191 HD
ENDROOT
BRANCH   1   5
HETATM    5  C   UNL     1      41.421 -11.264   5.807  1.00  0.00     0.148 A 
HETATM    6  N   UNL     1      41.552 -10.685   4.596  1.00  0.00    -0.169 NA
HETATM    7  N   UNL     1      41.406 -11.706   3.732  1.00  0.00    -0.277 N 
HETATM    8  C   UNL     1      41.138 -12.915   4.323  1.00  0.00     0.064 A 
HETATM    9  H   UNL     1      41.494 -11.517   2.739  1.00  0.00     0.189 HD
HETATM   10  C   UNL     1      41.158 -12.650   5.678  1.00  0.00     0.071 A 
BRANCH   8  11
HETATM   11  C   UNL     1      40.855 -14.147   3.583  1.00  0.00     0.014 A 
HETATM   12  C   UNL     1      39.680 -14.198   2.812  1.00  0.00     0.015 A 
HETATM   13  C   UNL     1      39.352 -15.332   2.064  1.00  0.00     0.001 A 
HETATM   14  C   UNL     1      40.190 -16.441   2.080  1.00  0.00     0.002 A 
HETATM   15  C   UNL     1      41.357 -16.417   2.842  1.00  0.00     0.025 A 
HETATM   16  C   UNL     1      41.692 -15.279   3.588  1.00  0.00     0.046 A 
HETATM   17 CL   UNL     1      43.152 -15.356   4.516  1.00  0.00    -0.083 Cl
ENDBRANCH   8  11
ENDBRANCH   1   5
BRANCH   2  18
HETATM   18  N   UNL     1      41.337 -10.695   9.420  1.00  0.00    -0.167 N 
HETATM   19  C   UNL     1      40.266 -10.280  10.167  1.00  0.00     0.345 A 
HETATM   20  O   UNL     1      39.091 -10.209   9.844  1.00  0.00    -0.245 OA
HETATM   21  N   UNL     1      40.746  -9.910  11.410  1.00  0.00    -0.323 N 
HETATM   22  C   UNL     1      42.182 -10.097  11.529  1.00  0.00     0.117 A 
HETATM   23  H   UNL     1      40.116  -9.595  12.137  1.00  0.00     0.165 HD
HETATM   24  C   UNL     1      42.533 -11.141  12.593  1.00  0.00     0.041 C 
HETATM   25  C   UNL     1      42.895  -8.762  11.763  1.00  0.00     0.041 C 
HETATM   26  C   UNL     1      42.512 -10.644  10.124  1.00  0.00     0.275 A 
HETATM   27  C   UNL     1      42.340 -10.607  14.012  1.00  0.00     0.003 C 
HETATM   28  C   UNL     1      43.080  -9.290  14.227  1.00  0.00     0.000 C 
HETATM   29  C   UNL     1      42.689  -8.245  13.187  1.00  0.00     0.003 C 
HETATM   30  O   UNL     1      43.628 -10.957   9.728  1.00  0.00    -0.268 OA
ENDBRANCH   2  18
TORSDOF 3
ENDMDL
MODEL 8
REMARK VINA RESULT:      -8.1      7.725     10.252
REMARK  3 active torsions:
REMARK  status: ('A' for Active; 'I' for Inactive)
REMARK    1  A    between atoms: C_3  and  C_4 
REMARK    2  A    between atoms: C_8  and  C_9 
REMARK       I    between atoms: C_9  and  N_10 
REMARK    3  A    between atoms: N_10  and  N_11 
ROOT
HETATM    1  C   UNL     1      44.147 -13.798   6.977  1.00  0.00     0.291 C 
HETATM    2  N   UNL     1      43.001 -13.938   6.226  1.00  0.00    -0.251 N 
HETATM    3  O   UNL     1      45.187 -14.423   6.780  1.00  0.00    -0.264 OA
HETATM    4  H   UNL     1      42.175 -13.398   6.460  1.00  0.00     0.191 HD
ENDROOT
BRANCH   1   5
HETATM    5  C   UNL     1      43.998 -12.808   8.051  1.00  0.00     0.148 A 
HETATM    6  N   UNL     1      44.772 -12.828   9.155  1.00  0.00    -0.169 NA
HETATM    7  N   UNL     1      44.342 -11.773   9.870  1.00  0.00    -0.277 N 
HETATM    8  C   UNL     1      43.291 -11.095   9.305  1.00  0.00     0.064 A 
HETATM    9  H   UNL     1      44.803 -11.564  10.750  1.00  0.00     0.189 HD
HETATM   10  C   UNL     1      43.062 -11.747   8.110  1.00  0.00     0.071 A 
BRANCH   8  11
HETATM   11  C   UNL     1      42.601  -9.971   9.943  1.00  0.00     0.014 A 
HETATM   12  C   UNL     1      41.623  -9.289   9.198  1.00  0.00     0.015 A 
HETATM   13  C   UNL     1      40.910  -8.219   9.745  1.00  0.00     0.001 A 
HETATM   14  C   UNL     1      41.170  -7.804  11.047  1.00  0.00     0.002 A 
HETATM   15  C   UNL     1      42.140  -8.460  11.802  1.00  0.00     0.025 A 
HETATM   16  C   UNL     1      42.852  -9.537  11.258  1.00  0.00     0.046 A 
HETATM   17 CL   UNL     1      44.049 -10.273  12.271  1.00  0.00    -0.083 Cl
ENDBRANCH   8  11
ENDBRANCH   1   5
BRANCH   2  18
HETATM   18  N   UNL     1      42.992 -14.783   5.140  1.00  0.00    -0.167 N 
HETATM   19  C   UNL     1      43.525 -14.461   3.919  1.00  0.00     0.345 A 
HETATM   20  O   UNL     1      43.973 -13.393   3.539  1.00  0.00    -0.245 OA
HETATM   21  N   UNL     1      43.454 -15.593   3.126  1.00  0.00    -0.323 N 
HETATM   22  C   UNL     1      42.879 -16.728   3.827  1.00  0.00     0.117 A 
HETATM   23  H   UNL     1      43.822 -15.588   2.183  1.00  0.00     0.165 HD
HETATM   24  C   UNL     1      43.885 -17.873   3.977  1.00  0.00     0.041 C 
HETATM   25  C   UNL     1      41.573 -17.180   3.166  1.00  0.00     0.041 C 
HETATM   26  C   UNL     1      42.593 -16.093   5.205  1.00  0.00     0.275 A 
HETATM   27  C   UNL     1      44.113 -18.617   2.661  1.00  0.00     0.003 C 
HETATM   28  C   UNL     1      42.800 -19.079   2.037  1.00  0.00     0.000 C 
HETATM   29  C   UNL     1      41.823 -17.922   1.853  1.00  0.00     0.003 C 
HETATM   30  O   UNL     1      42.089 -16.669   6.161  1.00  0.00    -0.268 OA
ENDBRANCH   2  18
TORSDOF 3
ENDMDL
MODEL 9
REMARK VINA RESULT:      -7.9      5.006      6.067
REMARK  3 active torsions:
REMARK  status: ('A' for Active; 'I' for Inactive)
REMARK    1  A    between atoms: C_3  and  C_4 
REMARK    2  A    between atoms: C_8  and  C_9 
REMARK       I    between atoms: C_9  and  N_10 
REMARK    3  A    between atoms: N_10  and  N_11 
ROOT
HETATM    1  C   UNL     1      41.920 -15.509   5.529  1.00  0.00     0.291 C 
HETATM    2  N   UNL     1      42.380 -14.438   4.796  1.00  0.00    -0.251 N 
HETATM    3  O   UNL     1      40.871 -15.514   6.168  1.00  0.00    -0.264 OA
HETATM    4  H   UNL     1      43.266 -14.504   4.306  1.00  0.00     0.191 HD
ENDROOT
BRANCH   1   5
HETATM    5  C   UNL     1      42.825 -16.664   5.465  1.00  0.00     0.148 A 
HETATM    6  N   UNL     1      44.027 -16.666   6.075  1.00  0.00    -0.169 NA
HETATM    7  N   UNL     1      44.529 -17.883   5.795  1.00  0.00    -0.277 N 
HETATM    8  C   UNL     1      43.729 -18.655   4.990  1.00  0.00     0.064 A 
HETATM    9  H   UNL     1      45.434 -18.133   6.179  1.00  0.00     0.189 HD
HETATM   10  C   UNL     1      42.606 -17.882   4.775  1.00  0.00     0.071 A 
BRANCH   8  11
HETATM   11  C   UNL     1      44.107 -19.976   4.482  1.00  0.00     0.014 A 
HETATM   12  C   UNL     1      44.465 -20.965   5.416  1.00  0.00     0.015 A 
HETATM   13  C   UNL     1      44.819 -22.253   5.009  1.00  0.00     0.001 A 
HETATM   14  C   UNL     1      44.830 -22.576   3.656  1.00  0.00     0.002 A 
HETATM   15  C   UNL     1      44.486 -21.611   2.711  1.00  0.00     0.025 A 
HETATM   16  C   UNL     1      44.124 -20.320   3.117  1.00  0.00     0.046 A 
HETATM   17 CL   UNL     1      43.732 -19.189   1.866  1.00  0.00    -0.083 Cl
ENDBRANCH   8  11
ENDBRANCH   1   5
BRANCH   2  18
HETATM   18  N   UNL     1      41.619 -13.295   4.701  1.00  0.00    -0.167 N 
HETATM   19  C   UNL     1      41.693 -12.255   5.591  1.00  0.00     0.345 A 
HETATM   20  O   UNL     1      42.312 -12.190   6.640  1.00  0.00    -0.245 OA
HETATM   21  N   UNL     1      40.893 -11.236   5.104  1.00  0.00    -0.323 N 
HETATM   22  C   UNL     1      40.272 -11.576   3.836  1.00  0.00     0.117 A 
HETATM   23  H   UNL     1      40.822 -10.354   5.594  1.00  0.00     0.165 HD
HETATM   24  C   UNL     1      40.747 -10.658   2.706  1.00  0.00     0.041 C 
HETATM   25  C   UNL     1      38.745 -11.608   3.959  1.00  0.00     0.041 C 
HETATM   26  C   UNL     1      40.825 -13.002   3.624  1.00  0.00     0.275 A 
HETATM   27  C   UNL     1      40.131  -9.262   2.799  1.00  0.00     0.003 C 
HETATM   28  C   UNL     1      38.610  -9.320   2.895  1.00  0.00     0.000 C 
HETATM   29  C   UNL     1      38.149 -10.203   4.051  1.00  0.00     0.003 C 
HETATM   30  O   UNL     1      40.575 -13.726   2.668  1.00  0.00    -0.268 OA
ENDBRANCH   2  18
TORSDOF 3
ENDMDL
MODEL 10
REMARK VINA RESULT:      -7.9      7.849      9.838
REMARK  3 active torsions:
REMARK  status: ('A' for Active; 'I' for Inactive)
REMARK    1  A    between atoms: C_3  and  C_4 
REMARK    2  A    between atoms: C_8  and  C_9 
REMARK       I    between atoms: C_9  and  N_10 
REMARK    3  A    between atoms: N_10  and  N_11 
ROOT
HETATM    1  C   UNL     1      41.658 -11.941   5.969  1.00  0.00     0.291 C 
HETATM    2  N   UNL     1      42.279 -13.141   6.235  1.00  0.00    -0.251 N 
HETATM    3  O   UNL     1      41.075 -11.679   4.919  1.00  0.00    -0.264 OA
HETATM    4  H   UNL     1      42.755 -13.277   7.120  1.00  0.00     0.191 HD
ENDROOT
BRANCH   1   5
HETATM    5  C   UNL     1      41.762 -10.994   7.086  1.00  0.00     0.148 A 
HETATM    6  N   UNL     1      41.616  -9.665   6.912  1.00  0.00    -0.169 NA
HETATM    7  N   UNL     1      41.764  -9.159   8.151  1.00  0.00    -0.277 N 
HETATM    8  C   UNL     1      42.048 -10.094   9.114  1.00  0.00     0.064 A 
HETATM    9  H   UNL     1      41.667  -8.157   8.280  1.00  0.00     0.189 HD
HETATM   10  C   UNL     1      42.036 -11.299   8.441  1.00  0.00     0.071 A 
BRANCH   8  11
HETATM   11  C   UNL     1      42.337  -9.769  10.513  1.00  0.00     0.014 A 
HETATM   12  C   UNL     1      41.347  -9.097  11.253  1.00  0.00     0.015 A 
HETATM   13  C   UNL     1      41.544  -8.770  12.597  1.00  0.00     0.001 A 
HETATM   14  C   UNL     1      42.739  -9.102  13.226  1.00  0.00     0.002 A 
HETATM   15  C   UNL     1      43.737  -9.762  12.512  1.00  0.00     0.025 A 
HETATM   16  C   UNL     1      43.541 -10.097  11.165  1.00  0.00     0.046 A 
HETATM   17 CL   UNL     1      44.848 -10.899  10.361  1.00  0.00    -0.083 Cl
ENDBRANCH   8  11
ENDBRANCH   1   5
BRANCH   2  18
HETATM   18  N   UNL     1      42.223 -14.161   5.314  1.00  0.00    -0.167 N 
HETATM   19  C   UNL     1      41.190 -15.059   5.234  1.00  0.00     0.345 A 
HETATM   20  O   UNL     1      40.240 -15.200   5.987  1.00  0.00    -0.245 OA
HETATM   21  N   UNL     1      41.409 -15.843   4.115  1.00  0.00    -0.323 N 
HETATM   22  C   UNL     1      42.612 -15.461   3.396  1.00  0.00     0.117 A 
HETATM   23  H   UNL     1      40.747 -16.560   3.848  1.00  0.00     0.165 HD
HETATM   24  C   UNL     1      42.294 -14.952   1.987  1.00  0.00     0.041 C 
HETATM   25  C   UNL     1      43.636 -16.601   3.388  1.00  0.00     0.041 C 
HETATM   26  C   UNL     1      43.110 -14.296   4.278  1.00  0.00     0.275 A 
HETATM   27  C   UNL     1      41.911 -16.086   1.036  1.00  0.00     0.003 C 
HETATM   28  C   UNL     1      42.959 -17.195   1.027  1.00  0.00     0.000 C 
HETATM   29  C   UNL     1      43.235 -17.724   2.431  1.00  0.00     0.003 C 
HETATM   30  O   UNL     1      44.122 -13.636   4.078  1.00  0.00    -0.268 OA
ENDBRANCH   2  18
TORSDOF 3
ENDMDL
