MODEL 1
REMARK VINA RESULT:      -8.1      0.000      0.000
REMARK  5 active torsions:
REMARK  status: ('A' for Active; 'I' for Inactive)
REMARK    1  A    between atoms: C_5  and  N_6 
REMARK       I    between atoms: N_6  and  C_7 
REMARK    2  A    between atoms: C_7  and  C_8 
REMARK    3  A    between atoms: C_9  and  C_10 
REMARK    4  A    between atoms: C_13  and  O_14 
REMARK    5  A    between atoms: N_20  and  C_21 
ROOT
HETATM    1  C   UNL     1      41.514 -13.860  -1.194  1.00  0.00     0.060 C 
HETATM    2  C   UNL     1      41.373 -14.297  -2.618  1.00  0.00     0.158 C 
HETATM    3  N   UNL     1      42.048 -13.357  -3.483  1.00  0.00    -0.354 N 
HETATM    4  C   UNL     1      42.247 -12.032  -3.208  1.00  0.00     0.179 C 
HETATM    5  S   UNL     1      42.738 -11.095  -4.514  1.00  0.00    -0.040 SA
HETATM    6  N   UNL     1      42.079 -11.635  -1.862  1.00  0.00    -0.292 N 
HETATM    7  C   UNL     1      41.771 -12.578  -0.852  1.00  0.00     0.030 C 
HETATM    8  C   UNL     1      41.625 -12.081   0.573  1.00  0.00     0.070 C 
HETATM    9  H   UNL     1      42.110 -13.599  -4.464  1.00  0.00     0.163 HD
ENDROOT
BRANCH   1  10
HETATM   10  C   UNL     1      41.289 -14.955  -0.198  1.00  0.00     0.257 C 
HETATM   11  N   UNL     1      42.416 -15.712   0.036  1.00  0.00    -0.306 N 
HETATM   12  H   UNL     1      43.264 -15.514  -0.473  1.00  0.00     0.170 HD
HETATM   13  O   UNL     1      40.173 -15.135   0.265  1.00  0.00    -0.267 OA
BRANCH  11  14
HETATM   14  C   UNL     1      42.499 -16.692   1.008  1.00  0.00     0.160 A 
HETATM   15  N   UNL     1      41.762 -16.760   2.119  1.00  0.00    -0.110 NA
HETATM   16  O   UNL     1      42.209 -17.860   2.820  1.00  0.00    -0.216 OA
HETATM   17  C   UNL     1      43.219 -18.451   2.134  1.00  0.00     0.078 A 
HETATM   18  C   UNL     1      43.837 -19.628   2.769  1.00  0.00     0.079 C 
HETATM   19  C   UNL     1      43.429 -17.761   0.966  1.00  0.00     0.087 A 
ENDBRANCH  11  14
ENDBRANCH   1  10
BRANCH   2  20
HETATM   20  C   UNL     1      39.934 -14.486  -3.080  1.00  0.00    -0.031 A 
HETATM   21  C   UNL     1      39.523 -15.634  -3.783  1.00  0.00     0.012 A 
HETATM   22  C   UNL     1      38.210 -15.763  -4.241  1.00  0.00     0.037 A 
HETATM   23  C   UNL     1      37.295 -14.746  -3.990  1.00  0.00     0.065 A 
HETATM   24  C   UNL     1      37.668 -13.614  -3.280  1.00  0.00     0.037 A 
HETATM   25  C   UNL     1      38.983 -13.483  -2.827  1.00  0.00     0.012 A 
BRANCH  23  26
HETATM   26  O   UNL     1      36.010 -14.822  -4.438  1.00  0.00    -0.361 OA
HETATM   27  H   UNL     1      35.759 -13.956  -4.799  1.00  0.00     0.217 HD
ENDBRANCH  23  26
ENDBRANCH   2  20
BRANCH   6  28
HETATM   28  C   UNL     1      42.340 -10.266  -1.518  1.00  0.00     0.042 A 
HETATM   29  C   UNL     1      43.641  -9.861  -1.191  1.00  0.00     0.030 A 
HETATM   30  C   UNL     1      43.900  -8.523  -0.889  1.00  0.00     0.002 A 
HETATM   31  C   UNL     1      42.864  -7.589  -0.911  1.00  0.00     0.000 A 
HETATM   32  C   UNL     1      41.567  -7.988  -1.231  1.00  0.00     0.002 A 
HETATM   33  C   UNL     1      41.304  -9.324  -1.536  1.00  0.00     0.030 A 
ENDBRANCH   6  28
TORSDOF 5
ENDMDL
MODEL 2
REMARK VINA RESULT:      -7.9      2.603      3.630
REMARK  5 active torsions:
REMARK  status: ('A' for Active; 'I' for Inactive)
REMARK    1  A    between atoms: C_5  and  N_6 
REMARK       I    between atoms: N_6  and  C_7 
REMARK    2  A    between atoms: C_7  and  C_8 
REMARK    3  A    between atoms: C_9  and  C_10 
REMARK    4  A    between atoms: C_13  and  O_14 
REMARK    5  A    between atoms: N_20  and  C_21 
ROOT
HETATM    1  C   UNL     1      41.173 -14.672   1.055  1.00  0.00     0.060 C 
HETATM    2  C   UNL     1      41.608 -14.234  -0.308  1.00  0.00     0.158 C 
HETATM    3  N   UNL     1      41.818 -12.804  -0.314  1.00  0.00    -0.354 N 
HETATM    4  C   UNL     1      41.186 -11.909   0.504  1.00  0.00     0.179 C 
HETATM    5  S   UNL     1      41.346 -10.296   0.059  1.00  0.00    -0.040 SA
HETATM    6  N   UNL     1      40.542 -12.442   1.644  1.00  0.00    -0.292 N 
HETATM    7  C   UNL     1      40.597 -13.826   1.938  1.00  0.00     0.030 C 
HETATM    8  C   UNL     1      39.898 -14.321   3.189  1.00  0.00     0.070 C 
HETATM    9  H   UNL     1      42.214 -12.403  -1.155  1.00  0.00     0.163 HD
ENDROOT
BRANCH   1  10
HETATM   10  C   UNL     1      41.382 -16.130   1.321  1.00  0.00     0.257 C 
HETATM   11  N   UNL     1      42.585 -16.400   1.936  1.00  0.00    -0.306 N 
HETATM   12  H   UNL     1      43.226 -15.646   2.129  1.00  0.00     0.170 HD
HETATM   13  O   UNL     1      40.553 -16.943   0.937  1.00  0.00    -0.267 OA
BRANCH  11  14
HETATM   14  C   UNL     1      42.949 -17.650   2.402  1.00  0.00     0.160 A 
HETATM   15  N   UNL     1      42.842 -18.079   3.662  1.00  0.00    -0.110 NA
HETATM   16  O   UNL     1      43.367 -19.354   3.688  1.00  0.00    -0.216 OA
HETATM   17  C   UNL     1      43.796 -19.690   2.446  1.00  0.00     0.078 A 
HETATM   18  C   UNL     1      44.422 -21.016   2.308  1.00  0.00     0.079 C 
HETATM   19  C   UNL     1      43.536 -18.650   1.588  1.00  0.00     0.087 A 
ENDBRANCH  11  14
ENDBRANCH   1  10
BRANCH   2  20
HETATM   20  C   UNL     1      40.653 -14.623  -1.430  1.00  0.00    -0.031 A 
HETATM   21  C   UNL     1      40.982 -15.610  -2.377  1.00  0.00     0.012 A 
HETATM   22  C   UNL     1      40.112 -15.914  -3.427  1.00  0.00     0.037 A 
HETATM   23  C   UNL     1      38.901 -15.238  -3.530  1.00  0.00     0.065 A 
HETATM   24  C   UNL     1      38.543 -14.276  -2.596  1.00  0.00     0.037 A 
HETATM   25  C   UNL     1      39.416 -13.968  -1.550  1.00  0.00     0.012 A 
BRANCH  23  26
HETATM   26  O   UNL     1      38.033 -15.489  -4.550  1.00  0.00    -0.361 OA
HETATM   27  H   UNL     1      37.351 -16.102  -4.229  1.00  0.00     0.217 HD
ENDBRANCH  23  26
ENDBRANCH   2  20
BRANCH   6  28
HETATM   28  C   UNL     1      39.922 -11.531   2.563  1.00  0.00     0.042 A 
HETATM   29  C   UNL     1      38.560 -11.229   2.440  1.00  0.00     0.030 A 
HETATM   30  C   UNL     1      37.951 -10.368   3.354  1.00  0.00     0.002 A 
HETATM   31  C   UNL     1      38.698  -9.806   4.390  1.00  0.00     0.000 A 
HETATM   32  C   UNL     1      40.055 -10.100   4.514  1.00  0.00     0.002 A 
HETATM   33  C   UNL     1      40.668 -10.962   3.604  1.00  0.00     0.030 A 
ENDBRANCH   6  28
TORSDOF 5
ENDMDL
MODEL 3
REMARK VINA RESULT:      -7.8      4.897      8.550
REMARK  5 active torsions:
REMARK  status: ('A' for Active; 'I' for Inactive)
REMARK    1  A    between atoms: C_5  and  N_6 
REMARK       I    between atoms: N_6  and  C_7 
REMARK    2  A    between atoms: C_7  and  C_8 
REMARK    3  A    between atoms: C_9  and  C_10 
REMARK    4  A    between atoms: C_13  and  O_14 
REMARK    5  A    between atoms: N_20  and  C_21 
ROOT
HETATM    1  C   UNL     1      42.090 -15.789   4.176  1.00  0.00     0.060 C 
HETATM    2  C   UNL     1      41.909 -17.183   4.689  1.00  0.00     0.158 C 
HETATM    3  N   UNL     1      42.222 -17.223   6.100  1.00  0.00    -0.354 N 
HETATM    4  C   UNL     1      43.089 -16.384   6.742  1.00  0.00     0.179 C 
HETATM    5  S   UNL     1      43.537 -16.863   8.290  1.00  0.00    -0.040 SA
HETATM    6  N   UNL     1      43.443 -15.199   6.057  1.00  0.00    -0.292 N 
HETATM    7  C   UNL     1      42.884 -14.887   4.794  1.00  0.00     0.030 C 
HETATM    8  C   UNL     1      43.298 -13.589   4.129  1.00  0.00     0.070 C 
HETATM    9  H   UNL     1      42.038 -18.093   6.585  1.00  0.00     0.163 HD
ENDROOT
BRANCH   1  10
HETATM   10  C   UNL     1      41.363 -15.513   2.897  1.00  0.00     0.257 C 
HETATM   11  N   UNL     1      42.206 -15.359   1.818  1.00  0.00    -0.306 N 
HETATM   12  H   UNL     1      43.204 -15.405   1.955  1.00  0.00     0.170 HD
HETATM   13  O   UNL     1      40.147 -15.386   2.905  1.00  0.00    -0.267 OA
BRANCH  11  14
HETATM   14  C   UNL     1      41.771 -15.230   0.512  1.00  0.00     0.160 A 
HETATM   15  N   UNL     1      41.399 -16.228  -0.293  1.00  0.00    -0.110 NA
HETATM   16  O   UNL     1      41.094 -15.656  -1.511  1.00  0.00    -0.216 OA
HETATM   17  C   UNL     1      41.289 -14.316  -1.441  1.00  0.00     0.078 A 
HETATM   18  C   UNL     1      41.042 -13.555  -2.678  1.00  0.00     0.079 C 
HETATM   19  C   UNL     1      41.699 -13.990  -0.171  1.00  0.00     0.087 A 
ENDBRANCH  11  14
ENDBRANCH   1  10
BRANCH   2  20
HETATM   20  C   UNL     1      42.718 -18.239   3.948  1.00  0.00    -0.031 A 
HETATM   21  C   UNL     1      42.444 -18.581   2.610  1.00  0.00     0.012 A 
HETATM   22  C   UNL     1      43.167 -19.588   1.966  1.00  0.00     0.037 A 
HETATM   23  C   UNL     1      44.176 -20.254   2.654  1.00  0.00     0.065 A 
HETATM   24  C   UNL     1      44.480 -19.920   3.966  1.00  0.00     0.037 A 
HETATM   25  C   UNL     1      43.753 -18.917   4.612  1.00  0.00     0.012 A 
BRANCH  23  26
HETATM   26  O   UNL     1      44.890 -21.257   2.070  1.00  0.00    -0.361 OA
HETATM   27  H   UNL     1      45.835 -21.053   2.161  1.00  0.00     0.217 HD
ENDBRANCH  23  26
ENDBRANCH   2  20
BRANCH   6  28
HETATM   28  C   UNL     1      44.300 -14.259   6.722  1.00  0.00     0.042 A 
HETATM   29  C   UNL     1      43.819 -13.520   7.810  1.00  0.00     0.030 A 
HETATM   30  C   UNL     1      44.663 -12.630   8.476  1.00  0.00     0.002 A 
HETATM   31  C   UNL     1      45.985 -12.474   8.058  1.00  0.00     0.000 A 
HETATM   32  C   UNL     1      46.467 -13.204   6.972  1.00  0.00     0.002 A 
HETATM   33  C   UNL     1      45.627 -14.096   6.304  1.00  0.00     0.030 A 
ENDBRANCH   6  28
TORSDOF 5
ENDMDL
MODEL 4
REMARK VINA RESULT:      -7.7      3.433      6.544
REMARK  5 active torsions:
REMARK  status: ('A' for Active; 'I' for Inactive)
REMARK    1  A    between atoms: C_5  and  N_6 
REMARK       I    between atoms: N_6  and  C_7 
REMARK    2  A    between atoms: C_7  and  C_8 
REMARK    3  A    between atoms: C_9  and  C_10 
REMARK    4  A    between atoms: C_13  and  O_14 
REMARK    5  A    between atoms: N_20  and  C_21 
ROOT
HETATM    1  C   UNL     1      40.162 -13.959   1.125  1.00  0.00     0.060 C 
HETATM    2  C   UNL     1      41.580 -14.315   0.804  1.00  0.00     0.158 C 
HETATM    3  N   UNL     1      41.851 -14.016  -0.584  1.00  0.00    -0.354 N 
HETATM    4  C   UNL     1      40.922 -14.005  -1.587  1.00  0.00     0.179 C 
HETATM    5  S   UNL     1      41.550 -13.975  -3.146  1.00  0.00    -0.040 SA
HETATM    6  N   UNL     1      39.566 -13.955  -1.190  1.00  0.00    -0.292 N 
HETATM    7  C   UNL     1      39.205 -13.870   0.176  1.00  0.00     0.030 C 
HETATM    8  C   UNL     1      37.731 -13.801   0.524  1.00  0.00     0.070 C 
HETATM    9  H   UNL     1      42.809 -14.119  -0.896  1.00  0.00     0.163 HD
ENDROOT
BRANCH   1  10
HETATM   10  C   UNL     1      39.900 -13.769   2.587  1.00  0.00     0.257 C 
HETATM   11  N   UNL     1      40.091 -12.471   3.006  1.00  0.00    -0.306 N 
HETATM   12  H   UNL     1      40.409 -11.776   2.347  1.00  0.00     0.170 HD
HETATM   13  O   UNL     1      39.616 -14.733   3.283  1.00  0.00    -0.267 OA
BRANCH  11  14
HETATM   14  C   UNL     1      39.787 -12.017   4.276  1.00  0.00     0.160 A 
HETATM   15  N   UNL     1      38.589 -11.599   4.694  1.00  0.00    -0.110 NA
HETATM   16  O   UNL     1      38.750 -11.192   6.001  1.00  0.00    -0.216 OA
HETATM   17  C   UNL     1      40.045 -11.359   6.369  1.00  0.00     0.078 A 
HETATM   18  C   UNL     1      40.395 -10.934   7.735  1.00  0.00     0.079 C 
HETATM   19  C   UNL     1      40.742 -11.900   5.317  1.00  0.00     0.087 A 
ENDBRANCH  11  14
ENDBRANCH   1  10
BRANCH   2  20
HETATM   20  C   UNL     1      41.951 -15.761   1.105  1.00  0.00    -0.031 A 
HETATM   21  C   UNL     1      41.045 -16.819   0.900  1.00  0.00     0.012 A 
HETATM   22  C   UNL     1      41.390 -18.132   1.230  1.00  0.00     0.037 A 
HETATM   23  C   UNL     1      42.649 -18.396   1.760  1.00  0.00     0.065 A 
HETATM   24  C   UNL     1      43.568 -17.374   1.950  1.00  0.00     0.037 A 
HETATM   25  C   UNL     1      43.221 -16.061   1.625  1.00  0.00     0.012 A 
BRANCH  23  26
HETATM   26  O   UNL     1      43.018 -19.659   2.115  1.00  0.00    -0.361 OA
HETATM   27  H   UNL     1      43.103 -19.693   3.081  1.00  0.00     0.217 HD
ENDBRANCH  23  26
ENDBRANCH   2  20
BRANCH   6  28
HETATM   28  C   UNL     1      38.561 -13.877  -2.211  1.00  0.00     0.042 A 
HETATM   29  C   UNL     1      38.058 -12.631  -2.607  1.00  0.00     0.030 A 
HETATM   30  C   UNL     1      37.104 -12.555  -3.623  1.00  0.00     0.002 A 
HETATM   31  C   UNL     1      36.649 -13.719  -4.244  1.00  0.00     0.000 A 
HETATM   32  C   UNL     1      37.143 -14.962  -3.850  1.00  0.00     0.002 A 
HETATM   33  C   UNL     1      38.098 -15.043  -2.836  1.00  0.00     0.030 A 
ENDBRANCH   6  28
TORSDOF 5
ENDMDL
MODEL 5
REMARK VINA RESULT:      -7.7      3.284      6.240
REMARK  5 active torsions:
REMARK  status: ('A' for Active; 'I' for Inactive)
REMARK    1  A    between atoms: C_5  and  N_6 
REMARK       I    between atoms: N_6  and  C_7 
REMARK    2  A    between atoms: C_7  and  C_8 
REMARK    3  A    between atoms: C_9  and  C_10 
REMARK    4  A    between atoms: C_13  and  O_14 
REMARK    5  A    between atoms: N_20  and  C_21 
ROOT
HETATM    1  C   UNL     1      40.791 -15.985   1.618  1.00  0.00     0.060 C 
HETATM    2  C   UNL     1      40.370 -15.436   2.945  1.00  0.00     0.158 C 
HETATM    3  N   UNL     1      39.420 -14.365   2.746  1.00  0.00    -0.354 N 
HETATM    4  C   UNL     1      39.352 -13.563   1.640  1.00  0.00     0.179 C 
HETATM    5  S   UNL     1      38.403 -12.186   1.810  1.00  0.00    -0.040 SA
HETATM    6  N   UNL     1      40.028 -14.022   0.486  1.00  0.00    -0.292 N 
HETATM    7  C   UNL     1      40.695 -15.271   0.475  1.00  0.00     0.030 C 
HETATM    8  C   UNL     1      41.381 -15.704  -0.805  1.00  0.00     0.070 C 
HETATM    9  H   UNL     1      38.983 -13.980   3.575  1.00  0.00     0.163 HD
ENDROOT
BRANCH   1  10
HETATM   10  C   UNL     1      41.374 -17.362   1.688  1.00  0.00     0.257 C 
HETATM   11  N   UNL     1      42.648 -17.383   2.212  1.00  0.00    -0.306 N 
HETATM   12  H   UNL     1      43.095 -16.517   2.469  1.00  0.00     0.170 HD
HETATM   13  O   UNL     1      40.746 -18.311   1.242  1.00  0.00    -0.267 OA
BRANCH  11  14
HETATM   14  C   UNL     1      43.344 -18.542   2.501  1.00  0.00     0.160 A 
HETATM   15  N   UNL     1      43.656 -19.508   1.632  1.00  0.00    -0.110 NA
HETATM   16  O   UNL     1      44.300 -20.491   2.353  1.00  0.00    -0.216 OA
HETATM   17  C   UNL     1      44.371 -20.121   3.656  1.00  0.00     0.078 A 
HETATM   18  C   UNL     1      45.002 -21.084   4.574  1.00  0.00     0.079 C 
HETATM   19  C   UNL     1      43.797 -18.882   3.800  1.00  0.00     0.087 A 
ENDBRANCH  11  14
ENDBRANCH   1  10
BRANCH   2  20
HETATM   20  C   UNL     1      41.518 -14.955   3.822  1.00  0.00    -0.031 A 
HETATM   21  C   UNL     1      42.494 -14.060   3.344  1.00  0.00     0.012 A 
HETATM   22  C   UNL     1      43.566 -13.672   4.150  1.00  0.00     0.037 A 
HETATM   23  C   UNL     1      43.664 -14.169   5.446  1.00  0.00     0.065 A 
HETATM   24  C   UNL     1      42.703 -15.035   5.949  1.00  0.00     0.037 A 
HETATM   25  C   UNL     1      41.634 -15.427   5.140  1.00  0.00     0.012 A 
BRANCH  23  26
HETATM   26  O   UNL     1      44.705 -13.832   6.258  1.00  0.00    -0.361 OA
HETATM   27  H   UNL     1      45.534 -14.022   5.790  1.00  0.00     0.217 HD
ENDBRANCH  23  26
ENDBRANCH   2  20
BRANCH   6  28
HETATM   28  C   UNL     1      39.929 -13.243  -0.715  1.00  0.00     0.042 A 
HETATM   29  C   UNL     1      40.878 -12.250  -0.987  1.00  0.00     0.030 A 
HETATM   30  C   UNL     1      40.799 -11.515  -2.171  1.00  0.00     0.002 A 
HETATM   31  C   UNL     1      39.775 -11.768  -3.084  1.00  0.00     0.000 A 
HETATM   32  C   UNL     1      38.824 -12.753  -2.815  1.00  0.00     0.002 A 
HETATM   33  C   UNL     1      38.901 -13.491  -1.633  1.00  0.00     0.030 A 
ENDBRANCH   6  28
TORSDOF 5
ENDMDL
MODEL 6
REMARK VINA RESULT:      -7.7      3.630      7.871
REMARK  5 active torsions:
REMARK  status: ('A' for Active; 'I' for Inactive)
REMARK    1  A    between atoms: C_5  and  N_6 
REMARK       I    between atoms: N_6  and  C_7 
REMARK    2  A    between atoms: C_7  and  C_8 
REMARK    3  A    between atoms: C_9  and  C_10 
REMARK    4  A    between atoms: C_13  and  O_14 
REMARK    5  A    between atoms: N_20  and  C_21 
ROOT
HETATM    1  C   UNL     1      41.521 -14.456   1.885  1.00  0.00     0.060 C 
HETATM    2  C   UNL     1      41.884 -13.092   2.383  1.00  0.00     0.158 C 
HETATM    3  N   UNL     1      42.959 -13.198   3.343  1.00  0.00    -0.354 N 
HETATM    4  C   UNL     1      43.210 -14.285   4.133  1.00  0.00     0.179 C 
HETATM    5  S   UNL     1      44.287 -14.020   5.396  1.00  0.00    -0.040 SA
HETATM    6  N   UNL     1      42.590 -15.497   3.753  1.00  0.00    -0.292 N 
HETATM    7  C   UNL     1      41.793 -15.578   2.586  1.00  0.00     0.030 C 
HETATM    8  C   UNL     1      41.176 -16.917   2.231  1.00  0.00     0.070 C 
HETATM    9  H   UNL     1      43.362 -12.330   3.676  1.00  0.00     0.163 HD
ENDROOT
BRANCH   1  10
HETATM   10  C   UNL     1      40.786 -14.450   0.581  1.00  0.00     0.257 C 
HETATM   11  N   UNL     1      41.603 -14.697  -0.501  1.00  0.00    -0.306 N 
HETATM   12  H   UNL     1      42.593 -14.826  -0.358  1.00  0.00     0.170 HD
HETATM   13  O   UNL     1      39.595 -14.177   0.556  1.00  0.00    -0.267 OA
BRANCH  11  14
HETATM   14  C   UNL     1      41.141 -14.873  -1.792  1.00  0.00     0.160 A 
HETATM   15  N   UNL     1      41.523 -14.176  -2.865  1.00  0.00    -0.110 NA
HETATM   16  O   UNL     1      40.777 -14.646  -3.925  1.00  0.00    -0.216 OA
HETATM   17  C   UNL     1      39.941 -15.621  -3.489  1.00  0.00     0.078 A 
HETATM   18  C   UNL     1      39.041 -16.207  -4.498  1.00  0.00     0.079 C 
HETATM   19  C   UNL     1      40.146 -15.819  -2.146  1.00  0.00     0.087 A 
ENDBRANCH  11  14
ENDBRANCH   1  10
BRANCH   2  20
HETATM   20  C   UNL     1      40.724 -12.311   2.988  1.00  0.00    -0.031 A 
HETATM   21  C   UNL     1      40.082 -12.729   4.169  1.00  0.00     0.012 A 
HETATM   22  C   UNL     1      38.988 -12.025   4.677  1.00  0.00     0.037 A 
HETATM   23  C   UNL     1      38.534 -10.891   4.012  1.00  0.00     0.065 A 
HETATM   24  C   UNL     1      39.163 -10.445   2.859  1.00  0.00     0.037 A 
HETATM   25  C   UNL     1      40.254 -11.153   2.347  1.00  0.00     0.012 A 
BRANCH  23  26
HETATM   26  O   UNL     1      37.457 -10.188   4.463  1.00  0.00    -0.361 OA
HETATM   27  H   UNL     1      37.611  -9.246   4.285  1.00  0.00     0.217 HD
ENDBRANCH  23  26
ENDBRANCH   2  20
BRANCH   6  28
HETATM   28  C   UNL     1      42.877 -16.677   4.517  1.00  0.00     0.042 A 
HETATM   29  C   UNL     1      42.192 -16.922   5.714  1.00  0.00     0.030 A 
HETATM   30  C   UNL     1      42.449 -18.086   6.439  1.00  0.00     0.002 A 
HETATM   31  C   UNL     1      43.390 -19.006   5.974  1.00  0.00     0.000 A 
HETATM   32  C   UNL     1      44.078 -18.765   4.786  1.00  0.00     0.002 A 
HETATM   33  C   UNL     1      43.823 -17.603   4.057  1.00  0.00     0.030 A 
ENDBRANCH   6  28
TORSDOF 5
ENDMDL
MODEL 7
REMARK VINA RESULT:      -7.6      3.411      7.642
REMARK  5 active torsions:
REMARK  status: ('A' for Active; 'I' for Inactive)
REMARK    1  A    between atoms: C_5  and  N_6 
REMARK       I    between atoms: N_6  and  C_7 
REMARK    2  A    between atoms: C_7  and  C_8 
REMARK    3  A    between atoms: C_9  and  C_10 
REMARK    4  A    between atoms: C_13  and  O_14 
REMARK    5  A    between atoms: N_20  and  C_21 
ROOT
HETATM    1  C   UNL     1      41.484 -14.147   0.722  1.00  0.00     0.060 C 
HETATM    2  C   UNL     1      41.706 -12.815   1.367  1.00  0.00     0.158 C 
HETATM    3  N   UNL     1      42.639 -12.957   2.462  1.00  0.00    -0.354 N 
HETATM    4  C   UNL     1      42.829 -14.093   3.197  1.00  0.00     0.179 C 
HETATM    5  S   UNL     1      43.703 -13.890   4.619  1.00  0.00    -0.040 SA
HETATM    6  N   UNL     1      42.328 -15.294   2.643  1.00  0.00    -0.292 N 
HETATM    7  C   UNL     1      41.709 -15.311   1.370  1.00  0.00     0.030 C 
HETATM    8  C   UNL     1      41.214 -16.640   0.832  1.00  0.00     0.070 C 
HETATM    9  H   UNL     1      42.949 -12.104   2.913  1.00  0.00     0.163 HD
ENDROOT
BRANCH   1  10
HETATM   10  C   UNL     1      40.941 -14.064  -0.670  1.00  0.00     0.257 C 
HETATM   11  N   UNL     1      39.579 -14.257  -0.731  1.00  0.00    -0.306 N 
HETATM   12  H   UNL     1      39.066 -14.463   0.113  1.00  0.00     0.170 HD
HETATM   13  O   UNL     1      41.705 -13.907  -1.612  1.00  0.00    -0.267 OA
BRANCH  11  14
HETATM   14  C   UNL     1      38.827 -14.098  -1.881  1.00  0.00     0.160 A 
HETATM   15  N   UNL     1      38.832 -14.912  -2.940  1.00  0.00    -0.110 NA
HETATM   16  O   UNL     1      37.982 -14.350  -3.870  1.00  0.00    -0.216 OA
HETATM   17  C   UNL     1      37.471 -13.196  -3.374  1.00  0.00     0.078 A 
HETATM   18  C   UNL     1      36.567 -12.447  -4.263  1.00  0.00     0.079 C 
HETATM   19  C   UNL     1      37.960 -13.000  -2.105  1.00  0.00     0.087 A 
ENDBRANCH  11  14
ENDBRANCH   1  10
BRANCH   2  20
HETATM   20  C   UNL     1      40.436 -12.130   1.853  1.00  0.00    -0.031 A 
HETATM   21  C   UNL     1      39.805 -11.117   1.107  1.00  0.00     0.012 A 
HETATM   22  C   UNL     1      38.669 -10.467   1.596  1.00  0.00     0.037 A 
HETATM   23  C   UNL     1      38.151 -10.835   2.834  1.00  0.00     0.065 A 
HETATM   24  C   UNL     1      38.740 -11.846   3.579  1.00  0.00     0.037 A 
HETATM   25  C   UNL     1      39.880 -12.491   3.092  1.00  0.00     0.012 A 
BRANCH  23  26
HETATM   26  O   UNL     1      37.057 -10.213   3.357  1.00  0.00    -0.361 OA
HETATM   27  H   UNL     1      37.354  -9.419   3.832  1.00  0.00     0.217 HD
ENDBRANCH  23  26
ENDBRANCH   2  20
BRANCH   6  28
HETATM   28  C   UNL     1      42.562 -16.520   3.351  1.00  0.00     0.042 A 
HETATM   29  C   UNL     1      43.712 -17.275   3.085  1.00  0.00     0.030 A 
HETATM   30  C   UNL     1      43.955 -18.450   3.798  1.00  0.00     0.002 A 
HETATM   31  C   UNL     1      43.052 -18.875   4.774  1.00  0.00     0.000 A 
HETATM   32  C   UNL     1      41.904 -18.129   5.038  1.00  0.00     0.002 A 
HETATM   33  C   UNL     1      41.659 -16.953   4.330  1.00  0.00     0.030 A 
ENDBRANCH   6  28
TORSDOF 5
ENDMDL
MODEL 8
REMARK VINA RESULT:      -7.6      4.650      8.841
REMARK  5 active torsions:
REMARK  status: ('A' for Active; 'I' for Inactive)
REMARK    1  A    between atoms: C_5  and  N_6 
REMARK       I    between atoms: N_6  and  C_7 
REMARK    2  A    between atoms: C_7  and  C_8 
REMARK    3  A    between atoms: C_9  and  C_10 
REMARK    4  A    between atoms: C_13  and  O_14 
REMARK    5  A    between atoms: N_20  and  C_21 
ROOT
HETATM    1  C   UNL     1      41.798 -14.520   3.574  1.00  0.00     0.060 C 
HETATM    2  C   UNL     1      42.318 -13.167   3.947  1.00  0.00     0.158 C 
HETATM    3  N   UNL     1      43.514 -13.311   4.745  1.00  0.00    -0.354 N 
HETATM    4  C   UNL     1      43.808 -14.381   5.543  1.00  0.00     0.179 C 
HETATM    5  S   UNL     1      45.075 -14.144   6.623  1.00  0.00    -0.040 SA
HETATM    6  N   UNL     1      43.062 -15.561   5.317  1.00  0.00    -0.292 N 
HETATM    7  C   UNL     1      42.098 -15.631   4.282  1.00  0.00     0.030 C 
HETATM    8  C   UNL     1      41.350 -16.936   4.088  1.00  0.00     0.070 C 
HETATM    9  H   UNL     1      44.017 -12.462   4.973  1.00  0.00     0.163 HD
ENDROOT
BRANCH   1  10
HETATM   10  C   UNL     1      40.880 -14.513   2.391  1.00  0.00     0.257 C 
HETATM   11  N   UNL     1      41.538 -14.302   1.199  1.00  0.00    -0.306 N 
HETATM   12  H   UNL     1      42.533 -14.142   1.201  1.00  0.00     0.170 HD
HETATM   13  O   UNL     1      39.674 -14.623   2.557  1.00  0.00    -0.267 OA
BRANCH  11  14
HETATM   14  C   UNL     1      40.931 -14.384  -0.041  1.00  0.00     0.160 A 
HETATM   15  N   UNL     1      39.989 -13.562  -0.510  1.00  0.00    -0.110 NA
HETATM   16  O   UNL     1      39.636 -14.040  -1.754  1.00  0.00    -0.216 OA
HETATM   17  C   UNL     1      40.360 -15.152  -2.032  1.00  0.00     0.078 A 
HETATM   18  C   UNL     1      40.076 -15.811  -3.318  1.00  0.00     0.079 C 
HETATM   19  C   UNL     1      41.213 -15.402  -0.986  1.00  0.00     0.087 A 
ENDBRANCH  11  14
ENDBRANCH   1  10
BRANCH   2  20
HETATM   20  C   UNL     1      41.312 -12.283   4.673  1.00  0.00    -0.031 A 
HETATM   21  C   UNL     1      41.163 -10.918   4.364  1.00  0.00     0.012 A 
HETATM   22  C   UNL     1      40.270 -10.115   5.078  1.00  0.00     0.037 A 
HETATM   23  C   UNL     1      39.513 -10.676   6.101  1.00  0.00     0.065 A 
HETATM   24  C   UNL     1      39.625 -12.024   6.411  1.00  0.00     0.037 A 
HETATM   25  C   UNL     1      40.522 -12.825   5.700  1.00  0.00     0.012 A 
BRANCH  23  26
HETATM   26  O   UNL     1      38.646  -9.924   6.836  1.00  0.00    -0.361 OA
HETATM   27  H   UNL     1      38.956  -9.909   7.755  1.00  0.00     0.217 HD
ENDBRANCH  23  26
ENDBRANCH   2  20
BRANCH   6  28
HETATM   28  C   UNL     1      43.382 -16.727   6.089  1.00  0.00     0.042 A 
HETATM   29  C   UNL     1      44.227 -17.709   5.557  1.00  0.00     0.030 A 
HETATM   30  C   UNL     1      44.564 -18.828   6.320  1.00  0.00     0.002 A 
HETATM   31  C   UNL     1      44.059 -18.969   7.614  1.00  0.00     0.000 A 
HETATM   32  C   UNL     1      43.214 -17.996   8.146  1.00  0.00     0.002 A 
HETATM   33  C   UNL     1      42.876 -16.876   7.386  1.00  0.00     0.030 A 
ENDBRANCH   6  28
TORSDOF 5
ENDMDL
MODEL 9
REMARK VINA RESULT:      -7.6      4.161      7.386
REMARK  5 active torsions:
REMARK  status: ('A' for Active; 'I' for Inactive)
REMARK    1  A    between atoms: C_5  and  N_6 
REMARK       I    between atoms: N_6  and  C_7 
REMARK    2  A    between atoms: C_7  and  C_8 
REMARK    3  A    between atoms: C_9  and  C_10 
REMARK    4  A    between atoms: C_13  and  O_14 
REMARK    5  A    between atoms: N_20  and  C_21 
ROOT
HETATM    1  C   UNL     1      41.060 -15.930   3.770  1.00  0.00     0.060 C 
HETATM    2  C   UNL     1      40.831 -15.260   5.088  1.00  0.00     0.158 C 
HETATM    3  N   UNL     1      39.952 -14.126   4.909  1.00  0.00    -0.354 N 
HETATM    4  C   UNL     1      39.826 -13.397   3.759  1.00  0.00     0.179 C 
HETATM    5  S   UNL     1      39.012 -11.936   3.922  1.00  0.00    -0.040 SA
HETATM    6  N   UNL     1      40.334 -13.988   2.579  1.00  0.00    -0.292 N 
HETATM    7  C   UNL     1      40.895 -15.288   2.593  1.00  0.00     0.030 C 
HETATM    8  C   UNL     1      41.402 -15.863   1.285  1.00  0.00     0.070 C 
HETATM    9  H   UNL     1      39.640 -13.651   5.747  1.00  0.00     0.163 HD
ENDROOT
BRANCH   1  10
HETATM   10  C   UNL     1      41.537 -17.344   3.883  1.00  0.00     0.257 C 
HETATM   11  N   UNL     1      42.602 -17.623   3.054  1.00  0.00    -0.306 N 
HETATM   12  H   UNL     1      42.951 -16.908   2.435  1.00  0.00     0.170 HD
HETATM   13  O   UNL     1      40.946 -18.129   4.610  1.00  0.00    -0.267 OA
BRANCH  11  14
HETATM   14  C   UNL     1      43.302 -18.815   3.072  1.00  0.00     0.160 A 
HETATM   15  N   UNL     1      44.194 -19.188   3.995  1.00  0.00    -0.110 NA
HETATM   16  O   UNL     1      44.681 -20.414   3.596  1.00  0.00    -0.216 OA
HETATM   17  C   UNL     1      44.089 -20.777   2.431  1.00  0.00     0.078 A 
HETATM   18  C   UNL     1      44.529 -22.056   1.846  1.00  0.00     0.079 C 
HETATM   19  C   UNL     1      43.189 -19.806   2.066  1.00  0.00     0.087 A 
ENDBRANCH  11  14
ENDBRANCH   1  10
BRANCH   2  20
HETATM   20  C   UNL     1      42.103 -14.822   5.803  1.00  0.00    -0.031 A 
HETATM   21  C   UNL     1      42.981 -15.750   6.393  1.00  0.00     0.012 A 
HETATM   22  C   UNL     1      44.115 -15.322   7.086  1.00  0.00     0.037 A 
HETATM   23  C   UNL     1      44.384 -13.961   7.186  1.00  0.00     0.065 A 
HETATM   24  C   UNL     1      43.546 -13.027   6.594  1.00  0.00     0.037 A 
HETATM   25  C   UNL     1      42.409 -13.454   5.905  1.00  0.00     0.012 A 
BRANCH  23  26
HETATM   26  O   UNL     1      45.469 -13.500   7.871  1.00  0.00    -0.361 OA
HETATM   27  H   UNL     1      45.664 -14.123   8.590  1.00  0.00     0.217 HD
ENDBRANCH  23  26
ENDBRANCH   2  20
BRANCH   6  28
HETATM   28  C   UNL     1      40.165 -13.286   1.339  1.00  0.00     0.042 A 
HETATM   29  C   UNL     1      41.155 -12.400   0.894  1.00  0.00     0.030 A 
HETATM   30  C   UNL     1      41.005 -11.742  -0.327  1.00  0.00     0.002 A 
HETATM   31  C   UNL     1      39.868 -11.964  -1.106  1.00  0.00     0.000 A 
HETATM   32  C   UNL     1      38.877 -12.841  -0.665  1.00  0.00     0.002 A 
HETATM   33  C   UNL     1      39.025 -13.502   0.555  1.00  0.00     0.030 A 
ENDBRANCH   6  28
TORSDOF 5
ENDMDL
MODEL 10
REMARK VINA RESULT:      -7.6      3.309      5.837
REMARK  5 active torsions:
REMARK  status: ('A' for Active; 'I' for Inactive)
REMARK    1  A    between atoms: C_5  and  N_6 
REMARK       I    between atoms: N_6  and  C_7 
REMARK    2  A    between atoms: C_7  and  C_8 
REMARK    3  A    between atoms: C_9  and  C_10 
REMARK    4  A    between atoms: C_13  and  O_14 
REMARK    5  A    between atoms: N_20  and  C_21 
ROOT
HETATM    1  C   UNL     1      40.279 -15.119   1.660  1.00  0.00     0.060 C 
HETATM    2  C   UNL     1      39.368 -14.323   2.540  1.00  0.00     0.158 C 
HETATM    3  N   UNL     1      38.659 -13.346   1.746  1.00  0.00    -0.354 N 
HETATM    4  C   UNL     1      39.115 -12.790   0.583  1.00  0.00     0.179 C 
HETATM    5  S   UNL     1      38.268 -11.439   0.052  1.00  0.00    -0.040 SA
HETATM    6  N   UNL     1      40.189 -13.455  -0.055  1.00  0.00    -0.292 N 
HETATM    7  C   UNL     1      40.721 -14.658   0.469  1.00  0.00     0.030 C 
HETATM    8  C   UNL     1      41.859 -15.323  -0.280  1.00  0.00     0.070 C 
HETATM    9  H   UNL     1      37.936 -12.813   2.213  1.00  0.00     0.163 HD
ENDROOT
BRANCH   1  10
HETATM   10  C   UNL     1      40.694 -16.433   2.245  1.00  0.00     0.257 C 
HETATM   11  N   UNL     1      41.858 -16.355   2.978  1.00  0.00    -0.306 N 
HETATM   12  H   UNL     1      42.347 -15.475   3.044  1.00  0.00     0.170 HD
HETATM   13  O   UNL     1      40.049 -17.440   1.995  1.00  0.00    -0.267 OA
BRANCH  11  14
HETATM   14  C   UNL     1      42.371 -17.399   3.724  1.00  0.00     0.160 A 
HETATM   15  N   UNL     1      41.866 -17.871   4.867  1.00  0.00    -0.110 NA
HETATM   16  O   UNL     1      42.716 -18.870   5.290  1.00  0.00    -0.216 OA
HETATM   17  C   UNL     1      43.738 -18.996   4.406  1.00  0.00     0.078 A 
HETATM   18  C   UNL     1      44.762 -20.002   4.733  1.00  0.00     0.079 C 
HETATM   19  C   UNL     1      43.555 -18.100   3.382  1.00  0.00     0.087 A 
ENDBRANCH  11  14
ENDBRANCH   1  10
BRANCH   2  20
HETATM   20  C   UNL     1      40.062 -13.636   3.710  1.00  0.00    -0.031 A 
HETATM   21  C   UNL     1      41.037 -12.640   3.514  1.00  0.00     0.012 A 
HETATM   22  C   UNL     1      41.696 -12.059   4.600  1.00  0.00     0.037 A 
HETATM   23  C   UNL     1      41.376 -12.465   5.891  1.00  0.00     0.065 A 
HETATM   24  C   UNL     1      40.403 -13.428   6.113  1.00  0.00     0.037 A 
HETATM   25  C   UNL     1      39.748 -14.013   5.026  1.00  0.00     0.012 A 
BRANCH  23  26
HETATM   26  O   UNL     1      42.010 -11.939   6.978  1.00  0.00    -0.361 OA
HETATM   27  H   UNL     1      41.392 -11.348   7.437  1.00  0.00     0.217 HD
ENDBRANCH  23  26
ENDBRANCH   2  20
BRANCH   6  28
HETATM   28  C   UNL     1      40.656 -12.943  -1.311  1.00  0.00     0.042 A 
HETATM   29  C   UNL     1      41.733 -12.048  -1.347  1.00  0.00     0.030 A 
HETATM   30  C   UNL     1      42.207 -11.576  -2.571  1.00  0.00     0.002 A 
HETATM   31  C   UNL     1      41.609 -11.993  -3.761  1.00  0.00     0.000 A 
HETATM   32  C   UNL     1      40.533 -12.880  -3.730  1.00  0.00     0.002 A 
HETATM   33  C   UNL     1      40.057 -13.355  -2.508  1.00  0.00     0.030 A 
ENDBRANCH   6  28
TORSDOF 5
ENDMDL
