MODEL 1
REMARK VINA RESULT:      -9.5      0.000      0.000
REMARK  5 active torsions:
REMARK  status: ('A' for Active; 'I' for Inactive)
REMARK    1  A    between atoms: C_2  and  C_3 
REMARK    2  A    between atoms: C_7  and  N_8 
REMARK    3  A    between atoms: C_13  and  N_14 
REMARK       I    between atoms: N_14  and  C_15 
REMARK    4  A    between atoms: C_15  and  C_16 
REMARK       I    between atoms: C_16  and  N_17 
REMARK    5  A    between atoms: N_17  and  C_18 
ROOT
HETATM    1  N   UNL     1      41.797 -10.475   7.170  1.00  0.00    -0.045 N 
HETATM    2  N   UNL     1      41.847  -9.231   6.596  1.00  0.00    -0.156 NA
HETATM    3  C   UNL     1      41.041  -9.325   5.532  1.00  0.00     0.055 C 
HETATM    4  C   UNL     1      40.783  -8.144   4.668  1.00  0.00     0.072 C 
HETATM    5  C   UNL     1      40.532 -10.634   5.365  1.00  0.00     0.079 C 
HETATM    6  C   UNL     1      41.130 -11.376   6.354  1.00  0.00     0.152 C 
ENDROOT
BRANCH   6   7
HETATM    7  N   UNL     1      41.013 -12.749   6.447  1.00  0.00    -0.303 N 
HETATM    8  C   UNL     1      41.890 -13.630   5.724  1.00  0.00     0.315 C 
HETATM    9  O   UNL     1      42.722 -13.229   4.931  1.00  0.00    -0.262 OA
HETATM   10  H   UNL     1      40.203 -13.175   6.890  1.00  0.00     0.171 HD
BRANCH   8  11
HETATM   11  C   UNL     1      41.448 -15.100   5.826  1.00  0.00     0.310 C 
HETATM   12  N   UNL     1      42.355 -16.028   5.346  1.00  0.00    -0.348 N 
HETATM   13  H   UNL     1      43.267 -15.693   5.044  1.00  0.00     0.163 HD
HETATM   14  O   UNL     1      40.285 -15.321   6.140  1.00  0.00    -0.262 OA
BRANCH  12  15
HETATM   15  C   UNL     1      41.894 -17.333   4.888  1.00  0.00     0.085 C 
HETATM   16  C   UNL     1      41.659 -17.358   3.366  1.00  0.00     0.034 C 
HETATM   17  C   UNL     1      42.939 -17.422   2.500  1.00  0.00    -0.045 C 
HETATM   18  C   UNL     1      43.731 -16.100   2.525  1.00  0.00     0.015 C 
HETATM   19  C   UNL     1      42.519 -17.667   1.035  1.00  0.00     0.015 C 
HETATM   20  C   UNL     1      43.817 -18.596   2.978  1.00  0.00     0.013 C 
HETATM   21  C   UNL     1      44.118 -18.564   4.487  1.00  0.00    -0.016 C 
HETATM   22  C   UNL     1      44.911 -19.814   4.882  1.00  0.00     0.010 C 
HETATM   23  C   UNL     1      42.832 -18.466   5.322  1.00  0.00     0.029 C 
ENDBRANCH  12  15
ENDBRANCH   8  11
ENDBRANCH   6   7
BRANCH   1  24
HETATM   24  C   UNL     1      42.222 -10.647   8.498  1.00  0.00     0.732 A 
HETATM   25  N   UNL     1      41.169 -10.795   9.350  1.00  0.00    -0.152 N 
HETATM   26  C   UNL     1      41.356 -11.033  10.673  1.00  0.00     0.268 A 
HETATM   27  H   UNL     1      40.219 -10.775   8.992  1.00  0.00     0.188 HD
HETATM   28  C   UNL     1      42.779 -11.108  11.116  1.00  0.00     0.035 A 
HETATM   29  O   UNL     1      40.416 -11.189  11.441  1.00  0.00    -0.267 OA
HETATM   30  C   UNL     1      43.734 -10.943  10.176  1.00  0.00     0.061 A 
HETATM   31  N   UNL     1      43.467 -10.708   8.841  1.00  0.00    -0.067 NA
HETATM   32  C   UNL     1      45.210 -11.042  10.472  1.00  0.00     0.072 C 
BRANCH  28  33
HETATM   33  C   UNL     1      42.994 -11.344  12.589  1.00  0.00     0.042 C 
HETATM   34  C   UNL     1      43.146 -10.040  13.358  1.00  0.00     0.010 C 
ENDBRANCH  28  33
ENDBRANCH   1  24
TORSDOF 5
ENDMDL
MODEL 2
REMARK VINA RESULT:      -8.6      3.732      5.447
REMARK  5 active torsions:
REMARK  status: ('A' for Active; 'I' for Inactive)
REMARK    1  A    between atoms: C_2  and  C_3 
REMARK    2  A    between atoms: C_7  and  N_8 
REMARK    3  A    between atoms: C_13  and  N_14 
REMARK       I    between atoms: N_14  and  C_15 
REMARK    4  A    between atoms: C_15  and  C_16 
REMARK       I    between atoms: C_16  and  N_17 
REMARK    5  A    between atoms: N_17  and  C_18 
ROOT
HETATM    1  N   UNL     1      38.333 -11.915   2.054  1.00  0.00    -0.045 N 
HETATM    2  N   UNL     1      37.213 -11.152   1.845  1.00  0.00    -0.156 NA
HETATM    3  C   UNL     1      36.648 -11.688   0.756  1.00  0.00     0.055 C 
HETATM    4  C   UNL     1      35.358 -11.165   0.236  1.00  0.00     0.072 C 
HETATM    5  C   UNL     1      37.427 -12.735   0.212  1.00  0.00     0.079 C 
HETATM    6  C   UNL     1      38.558 -12.776   0.991  1.00  0.00     0.152 C 
ENDROOT
BRANCH   6   7
HETATM    7  N   UNL     1      39.651 -13.570   0.699  1.00  0.00    -0.303 N 
HETATM    8  C   UNL     1      39.724 -14.939   1.134  1.00  0.00     0.315 C 
HETATM    9  O   UNL     1      38.881 -15.450   1.849  1.00  0.00    -0.262 OA
HETATM   10  H   UNL     1      40.502 -13.166   0.319  1.00  0.00     0.171 HD
BRANCH   8  11
HETATM   11  C   UNL     1      41.105 -15.559   0.868  1.00  0.00     0.310 C 
HETATM   12  N   UNL     1      41.553 -16.450   1.827  1.00  0.00    -0.348 N 
HETATM   13  H   UNL     1      40.917 -16.696   2.583  1.00  0.00     0.163 HD
HETATM   14  O   UNL     1      41.770 -15.090  -0.049  1.00  0.00    -0.262 OA
BRANCH  12  15
HETATM   15  C   UNL     1      42.980 -16.687   1.998  1.00  0.00     0.085 C 
HETATM   16  C   UNL     1      43.425 -16.488   3.459  1.00  0.00     0.034 C 
HETATM   17  C   UNL     1      43.043 -17.632   4.428  1.00  0.00    -0.045 C 
HETATM   18  C   UNL     1      41.530 -17.674   4.718  1.00  0.00     0.015 C 
HETATM   19  C   UNL     1      43.752 -17.381   5.775  1.00  0.00     0.015 C 
HETATM   20  C   UNL     1      43.526 -18.975   3.844  1.00  0.00     0.013 C 
HETATM   21  C   UNL     1      43.046 -19.228   2.404  1.00  0.00    -0.016 C 
HETATM   22  C   UNL     1      43.651 -20.533   1.879  1.00  0.00     0.010 C 
HETATM   23  C   UNL     1      43.409 -18.062   1.471  1.00  0.00     0.029 C 
ENDBRANCH  12  15
ENDBRANCH   8  11
ENDBRANCH   6   7
BRANCH   1  24
HETATM   24  C   UNL     1      38.974 -11.884   3.304  1.00  0.00     0.732 A 
HETATM   25  N   UNL     1      38.569 -10.819   4.052  1.00  0.00    -0.152 N 
HETATM   26  C   UNL     1      39.020 -10.631   5.319  1.00  0.00     0.268 A 
HETATM   27  H   UNL     1      37.881 -10.171   3.682  1.00  0.00     0.188 HD
HETATM   28  C   UNL     1      39.984 -11.656   5.815  1.00  0.00     0.035 A 
HETATM   29  O   UNL     1      38.645  -9.690   6.005  1.00  0.00    -0.267 OA
HETATM   30  C   UNL     1      40.308 -12.664   4.976  1.00  0.00     0.061 A 
HETATM   31  N   UNL     1      39.804 -12.794   3.698  1.00  0.00    -0.067 NA
HETATM   32  C   UNL     1      41.230 -13.794   5.362  1.00  0.00     0.072 C 
BRANCH  28  33
HETATM   33  C   UNL     1      40.510 -11.439   7.210  1.00  0.00     0.042 C 
HETATM   34  C   UNL     1      41.756 -10.565   7.218  1.00  0.00     0.010 C 
ENDBRANCH  28  33
ENDBRANCH   1  24
TORSDOF 5
ENDMDL
MODEL 3
REMARK VINA RESULT:      -8.6      4.567      8.145
REMARK  5 active torsions:
REMARK  status: ('A' for Active; 'I' for Inactive)
REMARK    1  A    between atoms: C_2  and  C_3 
REMARK    2  A    between atoms: C_7  and  N_8 
REMARK    3  A    between atoms: C_13  and  N_14 
REMARK       I    between atoms: N_14  and  C_15 
REMARK    4  A    between atoms: C_15  and  C_16 
REMARK       I    between atoms: C_16  and  N_17 
REMARK    5  A    between atoms: N_17  and  C_18 
ROOT
HETATM    1  N   UNL     1      43.167 -18.231   3.643  1.00  0.00    -0.045 N 
HETATM    2  N   UNL     1      43.928 -19.357   3.822  1.00  0.00    -0.156 NA
HETATM    3  C   UNL     1      43.801 -20.027   2.670  1.00  0.00     0.055 C 
HETATM    4  C   UNL     1      44.537 -21.298   2.447  1.00  0.00     0.072 C 
HETATM    5  C   UNL     1      42.906 -19.390   1.779  1.00  0.00     0.079 C 
HETATM    6  C   UNL     1      42.422 -18.310   2.477  1.00  0.00     0.152 C 
ENDROOT
BRANCH   6   7
HETATM    7  N   UNL     1      41.401 -17.504   2.011  1.00  0.00    -0.303 N 
HETATM    8  C   UNL     1      41.650 -16.432   1.085  1.00  0.00     0.315 C 
HETATM    9  O   UNL     1      42.769 -16.118   0.725  1.00  0.00    -0.262 OA
HETATM   10  H   UNL     1      40.478 -17.533   2.437  1.00  0.00     0.171 HD
BRANCH   8  11
HETATM   11  C   UNL     1      40.406 -15.555   0.865  1.00  0.00     0.310 C 
HETATM   12  N   UNL     1      40.239 -15.071  -0.421  1.00  0.00    -0.348 N 
HETATM   13  H   UNL     1      40.887 -15.388  -1.138  1.00  0.00     0.163 HD
HETATM   14  O   UNL     1      39.776 -15.206   1.856  1.00  0.00    -0.262 OA
BRANCH  12  15
HETATM   15  C   UNL     1      39.469 -13.855  -0.650  1.00  0.00     0.085 C 
HETATM   16  C   UNL     1      40.335 -12.731  -1.252  1.00  0.00     0.034 C 
HETATM   17  C   UNL     1      40.675 -12.890  -2.752  1.00  0.00    -0.045 C 
HETATM   18  C   UNL     1      41.679 -14.031  -3.009  1.00  0.00     0.015 C 
HETATM   19  C   UNL     1      41.343 -11.586  -3.236  1.00  0.00     0.015 C 
HETATM   20  C   UNL     1      39.373 -13.118  -3.547  1.00  0.00     0.013 C 
HETATM   21  C   UNL     1      38.516 -14.274  -3.004  1.00  0.00    -0.016 C 
HETATM   22  C   UNL     1      37.206 -14.362  -3.793  1.00  0.00     0.010 C 
HETATM   23  C   UNL     1      38.221 -14.109  -1.504  1.00  0.00     0.029 C 
ENDBRANCH  12  15
ENDBRANCH   8  11
ENDBRANCH   6   7
BRANCH   1  24
HETATM   24  C   UNL     1      43.350 -17.125   4.490  1.00  0.00     0.732 A 
HETATM   25  N   UNL     1      43.779 -17.502   5.727  1.00  0.00    -0.152 N 
HETATM   26  C   UNL     1      44.076 -16.586   6.684  1.00  0.00     0.268 A 
HETATM   27  H   UNL     1      43.928 -18.485   5.936  1.00  0.00     0.188 HD
HETATM   28  C   UNL     1      43.888 -15.160   6.287  1.00  0.00     0.035 A 
HETATM   29  O   UNL     1      44.482 -16.915   7.791  1.00  0.00    -0.267 OA
HETATM   30  C   UNL     1      43.455 -14.915   5.031  1.00  0.00     0.061 A 
HETATM   31  N   UNL     1      43.178 -15.902   4.106  1.00  0.00    -0.067 NA
HETATM   32  C   UNL     1      43.269 -13.524   4.479  1.00  0.00     0.072 C 
BRANCH  28  33
HETATM   33  C   UNL     1      44.188 -14.138   7.353  1.00  0.00     0.042 C 
HETATM   34  C   UNL     1      45.558 -13.505   7.165  1.00  0.00     0.010 C 
ENDBRANCH  28  33
ENDBRANCH   1  24
TORSDOF 5
ENDMDL
MODEL 4
REMARK VINA RESULT:      -8.5      4.629      6.799
REMARK  5 active torsions:
REMARK  status: ('A' for Active; 'I' for Inactive)
REMARK    1  A    between atoms: C_2  and  C_3 
REMARK    2  A    between atoms: C_7  and  N_8 
REMARK    3  A    between atoms: C_13  and  N_14 
REMARK       I    between atoms: N_14  and  C_15 
REMARK    4  A    between atoms: C_15  and  C_16 
REMARK       I    between atoms: C_16  and  N_17 
REMARK    5  A    between atoms: N_17  and  C_18 
ROOT
HETATM    1  N   UNL     1      41.112 -14.324   0.057  1.00  0.00    -0.045 N 
HETATM    2  N   UNL     1      40.507 -13.718  -1.014  1.00  0.00    -0.156 NA
HETATM    3  C   UNL     1      40.416 -14.688  -1.933  1.00  0.00     0.055 C 
HETATM    4  C   UNL     1      39.754 -14.435  -3.238  1.00  0.00     0.072 C 
HETATM    5  C   UNL     1      41.024 -15.889  -1.501  1.00  0.00     0.079 C 
HETATM    6  C   UNL     1      41.568 -15.590  -0.275  1.00  0.00     0.152 C 
ENDROOT
BRANCH   6   7
HETATM    7  N   UNL     1      42.384 -16.458   0.424  1.00  0.00    -0.303 N 
HETATM    8  C   UNL     1      41.851 -17.375   1.395  1.00  0.00     0.315 C 
HETATM    9  O   UNL     1      40.678 -17.383   1.721  1.00  0.00    -0.262 OA
HETATM   10  H   UNL     1      43.395 -16.359   0.397  1.00  0.00     0.171 HD
BRANCH   8  11
HETATM   11  C   UNL     1      42.960 -18.095   2.182  1.00  0.00     0.310 C 
HETATM   12  N   UNL     1      42.911 -17.939   3.556  1.00  0.00    -0.348 N 
HETATM   13  H   UNL     1      42.116 -17.441   3.952  1.00  0.00     0.163 HD
HETATM   14  O   UNL     1      43.884 -18.582   1.542  1.00  0.00    -0.262 OA
BRANCH  12  15
HETATM   15  C   UNL     1      44.122 -18.085   4.353  1.00  0.00     0.085 C 
HETATM   16  C   UNL     1      44.223 -17.007   5.449  1.00  0.00     0.034 C 
HETATM   17  C   UNL     1      43.301 -17.221   6.673  1.00  0.00    -0.045 C 
HETATM   18  C   UNL     1      41.816 -16.982   6.338  1.00  0.00     0.015 C 
HETATM   19  C   UNL     1      43.690 -16.193   7.755  1.00  0.00     0.015 C 
HETATM   20  C   UNL     1      43.515 -18.645   7.227  1.00  0.00     0.013 C 
HETATM   21  C   UNL     1      43.362 -19.747   6.165  1.00  0.00    -0.016 C 
HETATM   22  C   UNL     1      43.684 -21.111   6.784  1.00  0.00     0.010 C 
HETATM   23  C   UNL     1      44.263 -19.492   4.946  1.00  0.00     0.029 C 
ENDBRANCH  12  15
ENDBRANCH   8  11
ENDBRANCH   6   7
BRANCH   1  24
HETATM   24  C   UNL     1      41.042 -13.725   1.326  1.00  0.00     0.732 A 
HETATM   25  N   UNL     1      39.852 -13.091   1.520  1.00  0.00    -0.152 N 
HETATM   26  C   UNL     1      39.551 -12.495   2.703  1.00  0.00     0.268 A 
HETATM   27  H   UNL     1      39.148 -13.096   0.788  1.00  0.00     0.188 HD
HETATM   28  C   UNL     1      40.609 -12.579   3.751  1.00  0.00     0.035 A 
HETATM   29  O   UNL     1      38.475 -11.941   2.892  1.00  0.00    -0.267 OA
HETATM   30  C   UNL     1      41.748 -13.234   3.435  1.00  0.00     0.061 A 
HETATM   31  N   UNL     1      41.982 -13.822   2.208  1.00  0.00    -0.067 NA
HETATM   32  C   UNL     1      42.879 -13.438   4.411  1.00  0.00     0.072 C 
BRANCH  28  33
HETATM   33  C   UNL     1      40.294 -11.895   5.056  1.00  0.00     0.042 C 
HETATM   34  C   UNL     1      39.633 -12.841   6.048  1.00  0.00     0.010 C 
ENDBRANCH  28  33
ENDBRANCH   1  24
TORSDOF 5
ENDMDL
MODEL 5
REMARK VINA RESULT:      -8.4      4.731      7.871
REMARK  5 active torsions:
REMARK  status: ('A' for Active; 'I' for Inactive)
REMARK    1  A    between atoms: C_2  and  C_3 
REMARK    2  A    between atoms: C_7  and  N_8 
REMARK    3  A    between atoms: C_13  and  N_14 
REMARK       I    between atoms: N_14  and  C_15 
REMARK    4  A    between atoms: C_15  and  C_16 
REMARK       I    between atoms: C_16  and  N_17 
REMARK    5  A    between atoms: N_17  and  C_18 
ROOT
HETATM    1  N   UNL     1      39.872 -11.980   1.182  1.00  0.00    -0.045 N 
HETATM    2  N   UNL     1      39.361 -10.778   0.764  1.00  0.00    -0.156 NA
HETATM    3  C   UNL     1      39.568  -9.954   1.798  1.00  0.00     0.055 C 
HETATM    4  C   UNL     1      39.197  -8.518   1.709  1.00  0.00     0.072 C 
HETATM    5  C   UNL     1      40.134 -10.623   2.907  1.00  0.00     0.079 C 
HETATM    6  C   UNL     1      40.203 -11.942   2.527  1.00  0.00     0.152 C 
ENDROOT
BRANCH   6   7
HETATM    7  N   UNL     1      40.563 -12.961   3.389  1.00  0.00    -0.303 N 
HETATM    8  C   UNL     1      41.928 -13.400   3.506  1.00  0.00     0.315 C 
HETATM    9  O   UNL     1      42.822 -12.969   2.803  1.00  0.00    -0.262 OA
HETATM   10  H   UNL     1      39.858 -13.540   3.835  1.00  0.00     0.171 HD
BRANCH   8  11
HETATM   11  C   UNL     1      42.056 -14.666   4.369  1.00  0.00     0.310 C 
HETATM   12  N   UNL     1      42.375 -15.824   3.682  1.00  0.00    -0.348 N 
HETATM   13  H   UNL     1      42.582 -15.748   2.688  1.00  0.00     0.163 HD
HETATM   14  O   UNL     1      41.693 -14.596   5.537  1.00  0.00    -0.262 OA
BRANCH  12  15
HETATM   15  C   UNL     1      42.014 -17.125   4.231  1.00  0.00     0.085 C 
HETATM   16  C   UNL     1      42.041 -18.230   3.158  1.00  0.00     0.034 C 
HETATM   17  C   UNL     1      43.450 -18.713   2.742  1.00  0.00    -0.045 C 
HETATM   18  C   UNL     1      44.212 -17.658   1.916  1.00  0.00     0.015 C 
HETATM   19  C   UNL     1      43.289 -19.957   1.844  1.00  0.00     0.015 C 
HETATM   20  C   UNL     1      44.247 -19.100   4.005  1.00  0.00     0.013 C 
HETATM   21  C   UNL     1      44.287 -17.991   5.071  1.00  0.00    -0.016 C 
HETATM   22  C   UNL     1      45.015 -18.499   6.319  1.00  0.00     0.010 C 
HETATM   23  C   UNL     1      42.876 -17.506   5.440  1.00  0.00     0.029 C 
ENDBRANCH  12  15
ENDBRANCH   8  11
ENDBRANCH   6   7
BRANCH   1  24
HETATM   24  C   UNL     1      40.161 -12.980   0.238  1.00  0.00     0.732 A 
HETATM   25  N   UNL     1      40.003 -12.530  -1.038  1.00  0.00    -0.152 N 
HETATM   26  C   UNL     1      40.288 -13.318  -2.107  1.00  0.00     0.268 A 
HETATM   27  H   UNL     1      39.711 -11.573  -1.207  1.00  0.00     0.188 HD
HETATM   28  C   UNL     1      40.768 -14.692  -1.781  1.00  0.00     0.035 A 
HETATM   29  O   UNL     1      40.170 -12.914  -3.257  1.00  0.00    -0.267 OA
HETATM   30  C   UNL     1      40.880 -15.020  -0.475  1.00  0.00     0.061 A 
HETATM   31  N   UNL     1      40.576 -14.161   0.562  1.00  0.00    -0.067 NA
HETATM   32  C   UNL     1      41.398 -16.355  -0.001  1.00  0.00     0.072 C 
BRANCH  28  33
HETATM   33  C   UNL     1      41.059 -15.581  -2.962  1.00  0.00     0.042 C 
HETATM   34  C   UNL     1      39.805 -16.275  -3.474  1.00  0.00     0.010 C 
ENDBRANCH  28  33
ENDBRANCH   1  24
TORSDOF 5
ENDMDL
MODEL 6
REMARK VINA RESULT:      -8.4      2.528      8.452
REMARK  5 active torsions:
REMARK  status: ('A' for Active; 'I' for Inactive)
REMARK    1  A    between atoms: C_2  and  C_3 
REMARK    2  A    between atoms: C_7  and  N_8 
REMARK    3  A    between atoms: C_13  and  N_14 
REMARK       I    between atoms: N_14  and  C_15 
REMARK    4  A    between atoms: C_15  and  C_16 
REMARK       I    between atoms: C_16  and  N_17 
REMARK    5  A    between atoms: N_17  and  C_18 
ROOT
HETATM    1  N   UNL     1      43.229 -15.824   5.343  1.00  0.00    -0.045 N 
HETATM    2  N   UNL     1      43.612 -16.984   4.721  1.00  0.00    -0.156 NA
HETATM    3  C   UNL     1      44.151 -17.721   5.700  1.00  0.00     0.055 C 
HETATM    4  C   UNL     1      44.641 -19.097   5.432  1.00  0.00     0.072 C 
HETATM    5  C   UNL     1      44.194 -17.023   6.929  1.00  0.00     0.079 C 
HETATM    6  C   UNL     1      43.711 -15.770   6.642  1.00  0.00     0.152 C 
ENDROOT
BRANCH   6   7
HETATM    7  N   UNL     1      43.727 -14.726   7.547  1.00  0.00    -0.303 N 
HETATM    8  C   UNL     1      44.723 -13.690   7.486  1.00  0.00     0.315 C 
HETATM    9  O   UNL     1      45.651 -13.714   6.698  1.00  0.00    -0.262 OA
HETATM   10  H   UNL     1      43.144 -14.749   8.380  1.00  0.00     0.171 HD
BRANCH   8  11
HETATM   11  C   UNL     1      44.661 -12.754   8.703  1.00  0.00     0.310 C 
HETATM   12  N   UNL     1      43.471 -12.064   8.863  1.00  0.00    -0.348 N 
HETATM   13  H   UNL     1      42.706 -12.280   8.229  1.00  0.00     0.163 HD
HETATM   14  O   UNL     1      45.702 -12.550   9.317  1.00  0.00    -0.262 OA
BRANCH  12  15
HETATM   15  C   UNL     1      43.448 -10.805   9.596  1.00  0.00     0.085 C 
HETATM   16  C   UNL     1      42.515  -9.772   8.937  1.00  0.00     0.034 C 
HETATM   17  C   UNL     1      41.002 -10.014   9.154  1.00  0.00    -0.045 C 
HETATM   18  C   UNL     1      40.484 -11.234   8.367  1.00  0.00     0.015 C 
HETATM   19  C   UNL     1      40.236  -8.782   8.628  1.00  0.00     0.015 C 
HETATM   20  C   UNL     1      40.726 -10.176  10.662  1.00  0.00     0.013 C 
HETATM   21  C   UNL     1      41.603 -11.245  11.337  1.00  0.00    -0.016 C 
HETATM   22  C   UNL     1      41.326 -11.268  12.843  1.00  0.00     0.010 C 
HETATM   23  C   UNL     1      43.098 -11.000  11.077  1.00  0.00     0.029 C 
ENDBRANCH  12  15
ENDBRANCH   8  11
ENDBRANCH   6   7
BRANCH   1  24
HETATM   24  C   UNL     1      42.305 -14.970   4.718  1.00  0.00     0.732 A 
HETATM   25  N   UNL     1      41.503 -15.645   3.847  1.00  0.00    -0.152 N 
HETATM   26  C   UNL     1      40.500 -15.021   3.178  1.00  0.00     0.268 A 
HETATM   27  H   UNL     1      41.619 -16.646   3.722  1.00  0.00     0.188 HD
HETATM   28  C   UNL     1      40.354 -13.563   3.457  1.00  0.00     0.035 A 
HETATM   29  O   UNL     1      39.762 -15.625   2.411  1.00  0.00    -0.267 OA
HETATM   30  C   UNL     1      41.213 -13.008   4.340  1.00  0.00     0.061 A 
HETATM   31  N   UNL     1      42.209 -13.710   4.988  1.00  0.00    -0.067 NA
HETATM   32  C   UNL     1      41.149 -11.559   4.753  1.00  0.00     0.072 C 
BRANCH  28  33
HETATM   33  C   UNL     1      39.261 -12.858   2.697  1.00  0.00     0.042 C 
HETATM   34  C   UNL     1      39.765 -12.274   1.385  1.00  0.00     0.010 C 
ENDBRANCH  28  33
ENDBRANCH   1  24
TORSDOF 5
ENDMDL
MODEL 7
REMARK VINA RESULT:      -8.3      4.294      8.112
REMARK  5 active torsions:
REMARK  status: ('A' for Active; 'I' for Inactive)
REMARK    1  A    between atoms: C_2  and  C_3 
REMARK    2  A    between atoms: C_7  and  N_8 
REMARK    3  A    between atoms: C_13  and  N_14 
REMARK       I    between atoms: N_14  and  C_15 
REMARK    4  A    between atoms: C_15  and  C_16 
REMARK       I    between atoms: C_16  and  N_17 
REMARK    5  A    between atoms: N_17  and  C_18 
ROOT
HETATM    1  N   UNL     1      42.954 -17.378   3.004  1.00  0.00    -0.045 N 
HETATM    2  N   UNL     1      43.227 -18.560   3.644  1.00  0.00    -0.156 NA
HETATM    3  C   UNL     1      43.838 -19.304   2.714  1.00  0.00     0.055 C 
HETATM    4  C   UNL     1      44.350 -20.659   3.044  1.00  0.00     0.072 C 
HETATM    5  C   UNL     1      43.895 -18.650   1.461  1.00  0.00     0.079 C 
HETATM    6  C   UNL     1      43.213 -17.472   1.646  1.00  0.00     0.152 C 
ENDROOT
BRANCH   6   7
HETATM    7  N   UNL     1      42.909 -16.604   0.615  1.00  0.00    -0.303 N 
HETATM    8  C   UNL     1      41.548 -16.317   0.249  1.00  0.00     0.315 C 
HETATM    9  O   UNL     1      40.595 -16.878   0.758  1.00  0.00    -0.262 OA
HETATM   10  H   UNL     1      43.631 -16.277  -0.021  1.00  0.00     0.171 HD
BRANCH   8  11
HETATM   11  C   UNL     1      41.458 -15.486  -1.042  1.00  0.00     0.310 C 
HETATM   12  N   UNL     1      42.052 -14.237  -0.988  1.00  0.00    -0.348 N 
HETATM   13  H   UNL     1      42.569 -13.991  -0.147  1.00  0.00     0.163 HD
HETATM   14  O   UNL     1      40.728 -15.901  -1.934  1.00  0.00    -0.262 OA
BRANCH  12  15
HETATM   15  C   UNL     1      41.606 -13.175  -1.880  1.00  0.00     0.085 C 
HETATM   16  C   UNL     1      40.276 -12.553  -1.414  1.00  0.00     0.034 C 
HETATM   17  C   UNL     1      40.383 -11.595  -0.204  1.00  0.00    -0.045 C 
HETATM   18  C   UNL     1      40.688 -12.341   1.109  1.00  0.00     0.015 C 
HETATM   19  C   UNL     1      39.018 -10.899  -0.019  1.00  0.00     0.015 C 
HETATM   20  C   UNL     1      41.460 -10.530  -0.493  1.00  0.00     0.013 C 
HETATM   21  C   UNL     1      42.818 -11.125  -0.904  1.00  0.00    -0.016 C 
HETATM   22  C   UNL     1      43.790  -9.997  -1.262  1.00  0.00     0.010 C 
HETATM   23  C   UNL     1      42.679 -12.098  -2.086  1.00  0.00     0.029 C 
ENDBRANCH  12  15
ENDBRANCH   8  11
ENDBRANCH   6   7
BRANCH   1  24
HETATM   24  C   UNL     1      42.650 -16.232   3.758  1.00  0.00     0.732 A 
HETATM   25  N   UNL     1      41.360 -15.835   3.575  1.00  0.00    -0.152 N 
HETATM   26  C   UNL     1      40.839 -14.782   4.255  1.00  0.00     0.268 A 
HETATM   27  H   UNL     1      40.751 -16.358   2.953  1.00  0.00     0.188 HD
HETATM   28  C   UNL     1      41.776 -14.098   5.194  1.00  0.00     0.035 A 
HETATM   29  O   UNL     1      39.675 -14.432   4.112  1.00  0.00    -0.267 OA
HETATM   30  C   UNL     1      43.032 -14.586   5.285  1.00  0.00     0.061 A 
HETATM   31  N   UNL     1      43.491 -15.669   4.563  1.00  0.00    -0.067 NA
HETATM   32  C   UNL     1      44.068 -14.026   6.228  1.00  0.00     0.072 C 
BRANCH  28  33
HETATM   33  C   UNL     1      41.213 -12.911   5.931  1.00  0.00     0.042 C 
HETATM   34  C   UNL     1      41.386 -11.619   5.146  1.00  0.00     0.010 C 
ENDBRANCH  28  33
ENDBRANCH   1  24
TORSDOF 5
ENDMDL
MODEL 8
REMARK VINA RESULT:      -8.3      4.398      7.822
REMARK  5 active torsions:
REMARK  status: ('A' for Active; 'I' for Inactive)
REMARK    1  A    between atoms: C_2  and  C_3 
REMARK    2  A    between atoms: C_7  and  N_8 
REMARK    3  A    between atoms: C_13  and  N_14 
REMARK       I    between atoms: N_14  and  C_15 
REMARK    4  A    between atoms: C_15  and  C_16 
REMARK       I    between atoms: C_16  and  N_17 
REMARK    5  A    between atoms: N_17  and  C_18 
ROOT
HETATM    1  N   UNL     1      41.616 -14.736   4.683  1.00  0.00    -0.045 N 
HETATM    2  N   UNL     1      41.141 -14.142   5.824  1.00  0.00    -0.156 NA
HETATM    3  C   UNL     1      40.094 -13.418   5.409  1.00  0.00     0.055 C 
HETATM    4  C   UNL     1      39.264 -12.660   6.380  1.00  0.00     0.072 C 
HETATM    5  C   UNL     1      39.933 -13.473   4.006  1.00  0.00     0.079 C 
HETATM    6  C   UNL     1      40.993 -14.222   3.556  1.00  0.00     0.152 C 
ENDROOT
BRANCH   6   7
HETATM    7  N   UNL     1      41.288 -14.390   2.217  1.00  0.00    -0.303 N 
HETATM    8  C   UNL     1      40.578 -15.340   1.403  1.00  0.00     0.315 C 
HETATM    9  O   UNL     1      39.745 -16.104   1.855  1.00  0.00    -0.262 OA
HETATM   10  H   UNL     1      42.122 -13.975   1.810  1.00  0.00     0.171 HD
BRANCH   8  11
HETATM   11  C   UNL     1      41.207 -15.492   0.008  1.00  0.00     0.310 C 
HETATM   12  N   UNL     1      41.048 -14.407  -0.838  1.00  0.00    -0.348 N 
HETATM   13  H   UNL     1      40.610 -13.570  -0.462  1.00  0.00     0.163 HD
HETATM   14  O   UNL     1      41.626 -16.599  -0.308  1.00  0.00    -0.262 OA
BRANCH  12  15
HETATM   15  C   UNL     1      41.098 -14.592  -2.282  1.00  0.00     0.085 C 
HETATM   16  C   UNL     1      39.794 -15.204  -2.829  1.00  0.00     0.034 C 
HETATM   17  C   UNL     1      38.594 -14.232  -2.918  1.00  0.00    -0.045 C 
HETATM   18  C   UNL     1      38.036 -13.859  -1.530  1.00  0.00     0.015 C 
HETATM   19  C   UNL     1      37.457 -14.937  -3.686  1.00  0.00     0.015 C 
HETATM   20  C   UNL     1      39.021 -12.969  -3.694  1.00  0.00     0.013 C 
HETATM   21  C   UNL     1      40.289 -12.302  -3.133  1.00  0.00    -0.016 C 
HETATM   22  C   UNL     1      40.687 -11.119  -4.020  1.00  0.00     0.010 C 
HETATM   23  C   UNL     1      41.454 -13.298  -3.023  1.00  0.00     0.029 C 
ENDBRANCH  12  15
ENDBRANCH   8  11
ENDBRANCH   6   7
BRANCH   1  24
HETATM   24  C   UNL     1      42.473 -15.844   4.779  1.00  0.00     0.732 A 
HETATM   25  N   UNL     1      42.854 -16.077   6.067  1.00  0.00    -0.152 N 
HETATM   26  C   UNL     1      43.637 -17.138   6.393  1.00  0.00     0.268 A 
HETATM   27  H   UNL     1      42.515 -15.479   6.813  1.00  0.00     0.188 HD
HETATM   28  C   UNL     1      44.048 -18.006   5.252  1.00  0.00     0.035 A 
HETATM   29  O   UNL     1      43.965 -17.367   7.550  1.00  0.00    -0.267 OA
HETATM   30  C   UNL     1      43.607 -17.668   4.021  1.00  0.00     0.061 A 
HETATM   31  N   UNL     1      42.806 -16.573   3.765  1.00  0.00    -0.067 NA
HETATM   32  C   UNL     1      43.903 -18.481   2.786  1.00  0.00     0.072 C 
BRANCH  28  33
HETATM   33  C   UNL     1      44.940 -19.169   5.602  1.00  0.00     0.042 C 
HETATM   34  C   UNL     1      44.139 -20.414   5.956  1.00  0.00     0.010 C 
ENDBRANCH  28  33
ENDBRANCH   1  24
TORSDOF 5
ENDMDL
MODEL 9
REMARK VINA RESULT:      -8.3      4.033      7.778
REMARK  5 active torsions:
REMARK  status: ('A' for Active; 'I' for Inactive)
REMARK    1  A    between atoms: C_2  and  C_3 
REMARK    2  A    between atoms: C_7  and  N_8 
REMARK    3  A    between atoms: C_13  and  N_14 
REMARK       I    between atoms: N_14  and  C_15 
REMARK    4  A    between atoms: C_15  and  C_16 
REMARK       I    between atoms: C_16  and  N_17 
REMARK    5  A    between atoms: N_17  and  C_18 
ROOT
HETATM    1  N   UNL     1      44.073 -15.994   5.800  1.00  0.00    -0.045 N 
HETATM    2  N   UNL     1      44.736 -15.400   6.843  1.00  0.00    -0.156 NA
HETATM    3  C   UNL     1      44.208 -14.171   6.912  1.00  0.00     0.055 C 
HETATM    4  C   UNL     1      44.633 -13.223   7.974  1.00  0.00     0.072 C 
HETATM    5  C   UNL     1      43.271 -13.936   5.880  1.00  0.00     0.079 C 
HETATM    6  C   UNL     1      43.297 -15.074   5.111  1.00  0.00     0.152 C 
ENDROOT
BRANCH   6   7
HETATM    7  N   UNL     1      42.628 -15.191   3.908  1.00  0.00    -0.303 N 
HETATM    8  C   UNL     1      41.344 -15.834   3.820  1.00  0.00     0.315 C 
HETATM    9  O   UNL     1      40.815 -16.384   4.769  1.00  0.00    -0.262 OA
HETATM   10  H   UNL     1      43.094 -14.981   3.030  1.00  0.00     0.171 HD
BRANCH   8  11
HETATM   11  C   UNL     1      40.889 -16.022   2.363  1.00  0.00     0.310 C 
HETATM   12  N   UNL     1      41.237 -15.000   1.496  1.00  0.00    -0.348 N 
HETATM   13  H   UNL     1      41.829 -14.253   1.852  1.00  0.00     0.163 HD
HETATM   14  O   UNL     1      40.115 -16.940   2.124  1.00  0.00    -0.262 OA
BRANCH  12  15
HETATM   15  C   UNL     1      40.458 -14.771   0.286  1.00  0.00     0.085 C 
HETATM   16  C   UNL     1      39.415 -13.653   0.477  1.00  0.00     0.034 C 
HETATM   17  C   UNL     1      39.982 -12.213   0.477  1.00  0.00    -0.045 C 
HETATM   18  C   UNL     1      40.795 -11.903   1.748  1.00  0.00     0.015 C 
HETATM   19  C   UNL     1      38.795 -11.228   0.451  1.00  0.00     0.015 C 
HETATM   20  C   UNL     1      40.840 -12.006  -0.788  1.00  0.00     0.013 C 
HETATM   21  C   UNL     1      41.930 -13.076  -0.973  1.00  0.00    -0.016 C 
HETATM   22  C   UNL     1      42.665 -12.843  -2.296  1.00  0.00     0.010 C 
HETATM   23  C   UNL     1      41.345 -14.497  -0.934  1.00  0.00     0.029 C 
ENDBRANCH  12  15
ENDBRANCH   8  11
ENDBRANCH   6   7
BRANCH   1  24
HETATM   24  C   UNL     1      44.098 -17.392   5.664  1.00  0.00     0.732 A 
HETATM   25  N   UNL     1      43.991 -18.017   6.870  1.00  0.00    -0.152 N 
HETATM   26  C   UNL     1      43.934 -19.371   6.964  1.00  0.00     0.268 A 
HETATM   27  H   UNL     1      43.905 -17.470   7.721  1.00  0.00     0.188 HD
HETATM   28  C   UNL     1      44.007 -20.107   5.668  1.00  0.00     0.035 A 
HETATM   29  O   UNL     1      43.816 -19.939   8.041  1.00  0.00    -0.267 OA
HETATM   30  C   UNL     1      44.114 -19.372   4.540  1.00  0.00     0.061 A 
HETATM   31  N   UNL     1      44.161 -17.992   4.521  1.00  0.00    -0.067 NA
HETATM   32  C   UNL     1      44.148 -19.980   3.159  1.00  0.00     0.072 C 
BRANCH  28  33
HETATM   33  C   UNL     1      43.973 -21.609   5.766  1.00  0.00     0.042 C 
HETATM   34  C   UNL     1      45.261 -22.242   5.259  1.00  0.00     0.010 C 
ENDBRANCH  28  33
ENDBRANCH   1  24
TORSDOF 5
ENDMDL
MODEL 10
REMARK VINA RESULT:      -8.3      4.669      8.198
REMARK  5 active torsions:
REMARK  status: ('A' for Active; 'I' for Inactive)
REMARK    1  A    between atoms: C_2  and  C_3 
REMARK    2  A    between atoms: C_7  and  N_8 
REMARK    3  A    between atoms: C_13  and  N_14 
REMARK       I    between atoms: N_14  and  C_15 
REMARK    4  A    between atoms: C_15  and  C_16 
REMARK       I    between atoms: C_16  and  N_17 
REMARK    5  A    between atoms: N_17  and  C_18 
ROOT
HETATM    1  N   UNL     1      43.451 -18.167   3.057  1.00  0.00    -0.045 N 
HETATM    2  N   UNL     1      43.651 -19.425   3.564  1.00  0.00    -0.156 NA
HETATM    3  C   UNL     1      43.957 -20.168   2.494  1.00  0.00     0.055 C 
HETATM    4  C   UNL     1      44.305 -21.604   2.642  1.00  0.00     0.072 C 
HETATM    5  C   UNL     1      43.882 -19.426   1.292  1.00  0.00     0.079 C 
HETATM    6  C   UNL     1      43.436 -18.183   1.671  1.00  0.00     0.152 C 
ENDROOT
BRANCH   6   7
HETATM    7  N   UNL     1      43.085 -17.197   0.769  1.00  0.00    -0.303 N 
HETATM    8  C   UNL     1      41.715 -16.805   0.577  1.00  0.00     0.315 C 
HETATM    9  O   UNL     1      40.785 -17.368   1.125  1.00  0.00    -0.262 OA
HETATM   10  H   UNL     1      43.759 -16.842   0.096  1.00  0.00     0.171 HD
BRANCH   8  11
HETATM   11  C   UNL     1      41.549 -15.840  -0.609  1.00  0.00     0.310 C 
HETATM   12  N   UNL     1      41.842 -14.514  -0.342  1.00  0.00    -0.348 N 
HETATM   13  H   UNL     1      42.220 -14.284   0.574  1.00  0.00     0.163 HD
HETATM   14  O   UNL     1      41.006 -16.271  -1.619  1.00  0.00    -0.262 OA
BRANCH  12  15
HETATM   15  C   UNL     1      41.246 -13.456  -1.147  1.00  0.00     0.085 C 
HETATM   16  C   UNL     1      39.854 -13.051  -0.623  1.00  0.00     0.034 C 
HETATM   17  C   UNL     1      39.857 -12.180   0.655  1.00  0.00    -0.045 C 
HETATM   18  C   UNL     1      40.282 -12.976   1.906  1.00  0.00     0.015 C 
HETATM   19  C   UNL     1      38.418 -11.685   0.905  1.00  0.00     0.015 C 
HETATM   20  C   UNL     1      40.781 -10.964   0.440  1.00  0.00     0.013 C 
HETATM   21  C   UNL     1      42.197 -11.344  -0.027  1.00  0.00    -0.016 C 
HETATM   22  C   UNL     1      43.008 -10.074  -0.305  1.00  0.00     0.010 C 
HETATM   23  C   UNL     1      42.165 -12.235  -1.278  1.00  0.00     0.029 C 
ENDBRANCH  12  15
ENDBRANCH   8  11
ENDBRANCH   6   7
BRANCH   1  24
HETATM   24  C   UNL     1      43.473 -17.057   3.918  1.00  0.00     0.732 A 
HETATM   25  N   UNL     1      43.723 -17.423   5.206  1.00  0.00    -0.152 N 
HETATM   26  C   UNL     1      43.845 -16.499   6.194  1.00  0.00     0.268 A 
HETATM   27  H   UNL     1      43.868 -18.400   5.438  1.00  0.00     0.188 HD
HETATM   28  C   UNL     1      43.677 -15.079   5.768  1.00  0.00     0.035 A 
HETATM   29  O   UNL     1      44.091 -16.817   7.350  1.00  0.00    -0.267 OA
HETATM   30  C   UNL     1      43.429 -14.846   4.461  1.00  0.00     0.061 A 
HETATM   31  N   UNL     1      43.323 -15.840   3.508  1.00  0.00    -0.067 NA
HETATM   32  C   UNL     1      43.287 -13.460   3.882  1.00  0.00     0.072 C 
BRANCH  28  33
HETATM   33  C   UNL     1      43.783 -14.050   6.863  1.00  0.00     0.042 C 
HETATM   34  C   UNL     1      45.227 -13.662   7.142  1.00  0.00     0.010 C 
ENDBRANCH  28  33
ENDBRANCH   1  24
TORSDOF 5
ENDMDL
