MODEL 1
REMARK VINA RESULT:      -9.8      0.000      0.000
REMARK  5 active torsions:
REMARK  status: ('A' for Active; 'I' for Inactive)
REMARK    1  A    between atoms: C_6  and  C_7 
REMARK       I    between atoms: C_7  and  N_8 
REMARK    2  A    between atoms: N_8  and  C_9 
REMARK    3  A    between atoms: C_16  and  C_17 
REMARK    4  A    between atoms: C_23  and  C_24 
REMARK       I    between atoms: C_24  and  N_25 
REMARK    5  A    between atoms: N_25  and  C_26 
ROOT
HETATM    1  C   UNL     1      41.812 -12.218   5.342  1.00  0.00     0.069 C 
HETATM    2  C   UNL     1      42.299 -13.589   4.940  1.00  0.00     0.018 C 
HETATM    3  N   UNL     1      41.507 -14.267   4.023  1.00  0.00    -0.362 N 
HETATM    4  C   UNL     1      41.876 -15.450   3.400  1.00  0.00     0.018 C 
HETATM    5  C   UNL     1      40.998 -15.903   2.263  1.00  0.00     0.069 C 
HETATM    6  C   UNL     1      42.989 -16.095   3.813  1.00  0.00     0.045 C 
HETATM    7  C   UNL     1      43.857 -15.560   4.946  1.00  0.00     0.101 C 
HETATM    8  C   UNL     1      43.437 -14.160   5.395  1.00  0.00     0.045 C 
HETATM    9  H   UNL     1      40.718 -13.760   3.626  1.00  0.00     0.165 HD
ENDROOT
BRANCH   6  10
HETATM   10  C   UNL     1      43.521 -17.233   3.021  1.00  0.00     0.255 C 
HETATM   11  N   UNL     1      43.247 -18.457   3.587  1.00  0.00    -0.323 N 
HETATM   12  H   UNL     1      42.782 -18.460   4.488  1.00  0.00     0.169 HD
HETATM   13  O   UNL     1      44.150 -17.002   1.997  1.00  0.00    -0.268 OA
BRANCH  11  14
HETATM   14  C   UNL     1      43.625 -19.722   3.095  1.00  0.00     0.035 A 
HETATM   15  C   UNL     1      43.162 -20.258   1.892  1.00  0.00     0.029 A 
HETATM   16  C   UNL     1      43.579 -21.527   1.477  1.00  0.00     0.002 A 
HETATM   17  C   UNL     1      44.469 -22.263   2.255  1.00  0.00     0.000 A 
HETATM   18  C   UNL     1      44.938 -21.735   3.455  1.00  0.00     0.002 A 
HETATM   19  C   UNL     1      44.512 -20.473   3.877  1.00  0.00     0.029 A 
ENDBRANCH  11  14
ENDBRANCH   6  10
BRANCH   7  20
HETATM   20  C   UNL     1      43.895 -16.535   6.115  1.00  0.00    -0.027 A 
HETATM   21  C   UNL     1      42.838 -16.603   7.020  1.00  0.00     0.124 A 
HETATM   22  N   UNL     1      42.824 -17.400   8.111  1.00  0.00    -0.273 NA
HETATM   23  C   UNL     1      43.899 -18.192   8.304  1.00  0.00     0.116 A 
HETATM   24  C   UNL     1      45.002 -18.205   7.469  1.00  0.00     0.020 A 
HETATM   25  C   UNL     1      45.001 -17.358   6.365  1.00  0.00     0.011 A 
ENDBRANCH   7  20
BRANCH   8  26
HETATM   26  C   UNL     1      44.256 -13.481   6.439  1.00  0.00     0.255 C 
HETATM   27  N   UNL     1      43.499 -12.962   7.469  1.00  0.00    -0.323 N 
HETATM   28  H   UNL     1      42.499 -13.103   7.434  1.00  0.00     0.169 HD
HETATM   29  O   UNL     1      45.474 -13.430   6.315  1.00  0.00    -0.268 OA
BRANCH  27  30
HETATM   30  C   UNL     1      43.968 -12.256   8.598  1.00  0.00     0.035 A 
HETATM   31  C   UNL     1      45.142 -12.571   9.284  1.00  0.00     0.029 A 
HETATM   32  C   UNL     1      45.531 -11.826  10.403  1.00  0.00     0.002 A 
HETATM   33  C   UNL     1      44.756 -10.755  10.839  1.00  0.00     0.000 A 
HETATM   34  C   UNL     1      43.585 -10.429  10.159  1.00  0.00     0.002 A 
HETATM   35  C   UNL     1      43.190 -11.181   9.048  1.00  0.00     0.029 A 
ENDBRANCH  27  30
ENDBRANCH   8  26
TORSDOF 5
ENDMDL
MODEL 2
REMARK VINA RESULT:      -9.3      2.578      8.326
REMARK  5 active torsions:
REMARK  status: ('A' for Active; 'I' for Inactive)
REMARK    1  A    between atoms: C_6  and  C_7 
REMARK       I    between atoms: C_7  and  N_8 
REMARK    2  A    between atoms: N_8  and  C_9 
REMARK    3  A    between atoms: C_16  and  C_17 
REMARK    4  A    between atoms: C_23  and  C_24 
REMARK       I    between atoms: C_24  and  N_25 
REMARK    5  A    between atoms: N_25  and  C_26 
ROOT
HETATM    1  C   UNL     1      40.207 -16.280   1.641  1.00  0.00     0.069 C 
HETATM    2  C   UNL     1      40.337 -15.373   2.840  1.00  0.00     0.018 C 
HETATM    3  N   UNL     1      39.889 -14.071   2.665  1.00  0.00    -0.362 N 
HETATM    4  C   UNL     1      39.759 -13.147   3.692  1.00  0.00     0.018 C 
HETATM    5  C   UNL     1      39.033 -11.873   3.349  1.00  0.00     0.069 C 
HETATM    6  C   UNL     1      40.247 -13.447   4.915  1.00  0.00     0.045 C 
HETATM    7  C   UNL     1      40.937 -14.774   5.205  1.00  0.00     0.101 C 
HETATM    8  C   UNL     1      40.829 -15.757   4.040  1.00  0.00     0.045 C 
HETATM    9  H   UNL     1      39.430 -13.853   1.783  1.00  0.00     0.165 HD
ENDROOT
BRANCH   6  10
HETATM   10  C   UNL     1      39.924 -12.575   6.073  1.00  0.00     0.255 C 
HETATM   11  N   UNL     1      40.869 -11.600   6.293  1.00  0.00    -0.323 N 
HETATM   12  H   UNL     1      41.696 -11.611   5.706  1.00  0.00     0.169 HD
HETATM   13  O   UNL     1      38.909 -12.798   6.721  1.00  0.00    -0.268 OA
BRANCH  11  14
HETATM   14  C   UNL     1      40.865 -10.630   7.316  1.00  0.00     0.035 A 
HETATM   15  C   UNL     1      39.926  -9.602   7.407  1.00  0.00     0.029 A 
HETATM   16  C   UNL     1      39.995  -8.672   8.450  1.00  0.00     0.002 A 
HETATM   17  C   UNL     1      40.997  -8.771   9.413  1.00  0.00     0.000 A 
HETATM   18  C   UNL     1      41.937  -9.795   9.331  1.00  0.00     0.002 A 
HETATM   19  C   UNL     1      41.876 -10.716   8.283  1.00  0.00     0.029 A 
ENDBRANCH  11  14
ENDBRANCH   6  10
BRANCH   7  20
HETATM   20  C   UNL     1      42.385 -14.560   5.624  1.00  0.00    -0.027 A 
HETATM   21  C   UNL     1      43.235 -13.759   4.863  1.00  0.00     0.124 A 
HETATM   22  N   UNL     1      44.544 -13.567   5.138  1.00  0.00    -0.273 NA
HETATM   23  C   UNL     1      45.034 -14.175   6.240  1.00  0.00     0.116 A 
HETATM   24  C   UNL     1      44.279 -14.990   7.065  1.00  0.00     0.020 A 
HETATM   25  C   UNL     1      42.939 -15.189   6.747  1.00  0.00     0.011 A 
ENDBRANCH   7  20
BRANCH   8  26
HETATM   26  C   UNL     1      41.387 -17.128   4.222  1.00  0.00     0.255 C 
HETATM   27  N   UNL     1      42.469 -17.385   3.406  1.00  0.00    -0.323 N 
HETATM   28  H   UNL     1      42.787 -16.642   2.799  1.00  0.00     0.169 HD
HETATM   29  O   UNL     1      40.872 -17.889   5.033  1.00  0.00    -0.268 OA
BRANCH  27  30
HETATM   30  C   UNL     1      43.212 -18.583   3.330  1.00  0.00     0.035 A 
HETATM   31  C   UNL     1      44.106 -19.012   4.312  1.00  0.00     0.029 A 
HETATM   32  C   UNL     1      44.812 -20.210   4.154  1.00  0.00     0.002 A 
HETATM   33  C   UNL     1      44.623 -20.993   3.018  1.00  0.00     0.000 A 
HETATM   34  C   UNL     1      43.731 -20.577   2.034  1.00  0.00     0.002 A 
HETATM   35  C   UNL     1      43.033 -19.374   2.187  1.00  0.00     0.029 A 
ENDBRANCH  27  30
ENDBRANCH   8  26
TORSDOF 5
ENDMDL
MODEL 3
REMARK VINA RESULT:      -9.2      3.158      6.050
REMARK  5 active torsions:
REMARK  status: ('A' for Active; 'I' for Inactive)
REMARK    1  A    between atoms: C_6  and  C_7 
REMARK       I    between atoms: C_7  and  N_8 
REMARK    2  A    between atoms: N_8  and  C_9 
REMARK    3  A    between atoms: C_16  and  C_17 
REMARK    4  A    between atoms: C_23  and  C_24 
REMARK       I    between atoms: C_24  and  N_25 
REMARK    5  A    between atoms: N_25  and  C_26 
ROOT
HETATM    1  C   UNL     1      41.525 -11.269   6.834  1.00  0.00     0.069 C 
HETATM    2  C   UNL     1      41.714 -12.635   6.219  1.00  0.00     0.018 C 
HETATM    3  N   UNL     1      42.931 -13.250   6.477  1.00  0.00    -0.362 N 
HETATM    4  C   UNL     1      43.220 -14.569   6.154  1.00  0.00     0.018 C 
HETATM    5  C   UNL     1      44.497 -15.126   6.727  1.00  0.00     0.069 C 
HETATM    6  C   UNL     1      42.350 -15.269   5.394  1.00  0.00     0.045 C 
HETATM    7  C   UNL     1      41.054 -14.655   4.878  1.00  0.00     0.101 C 
HETATM    8  C   UNL     1      40.782 -13.274   5.476  1.00  0.00     0.045 C 
HETATM    9  H   UNL     1      43.560 -12.782   7.126  1.00  0.00     0.165 HD
ENDROOT
BRANCH   6  10
HETATM   10  C   UNL     1      42.530 -16.733   5.225  1.00  0.00     0.255 C 
HETATM   11  N   UNL     1      43.352 -17.056   4.170  1.00  0.00    -0.323 N 
HETATM   12  H   UNL     1      43.691 -16.294   3.593  1.00  0.00     0.169 HD
HETATM   13  O   UNL     1      41.942 -17.496   5.980  1.00  0.00    -0.268 OA
BRANCH  11  14
HETATM   14  C   UNL     1      43.708 -18.349   3.737  1.00  0.00     0.035 A 
HETATM   15  C   UNL     1      44.494 -19.229   4.484  1.00  0.00     0.029 A 
HETATM   16  C   UNL     1      44.810 -20.495   3.980  1.00  0.00     0.002 A 
HETATM   17  C   UNL     1      44.335 -20.893   2.732  1.00  0.00     0.000 A 
HETATM   18  C   UNL     1      43.548 -20.023   1.982  1.00  0.00     0.002 A 
HETATM   19  C   UNL     1      43.243 -18.753   2.479  1.00  0.00     0.029 A 
ENDBRANCH  11  14
ENDBRANCH   6  10
BRANCH   7  20
HETATM   20  C   UNL     1      41.030 -14.621   3.357  1.00  0.00    -0.027 A 
HETATM   21  C   UNL     1      42.027 -13.958   2.643  1.00  0.00     0.124 A 
HETATM   22  N   UNL     1      42.044 -13.837   1.297  1.00  0.00    -0.273 NA
HETATM   23  C   UNL     1      41.036 -14.425   0.618  1.00  0.00     0.116 A 
HETATM   24  C   UNL     1      39.997 -15.108   1.225  1.00  0.00     0.020 A 
HETATM   25  C   UNL     1      39.992 -15.199   2.613  1.00  0.00     0.011 A 
ENDBRANCH   7  20
BRANCH   8  26
HETATM   26  C   UNL     1      39.503 -12.595   5.123  1.00  0.00     0.255 C 
HETATM   27  N   UNL     1      39.565 -11.907   3.930  1.00  0.00    -0.323 N 
HETATM   28  H   UNL     1      40.432 -11.942   3.411  1.00  0.00     0.169 HD
HETATM   29  O   UNL     1      38.542 -12.685   5.878  1.00  0.00    -0.268 OA
BRANCH  27  30
HETATM   30  C   UNL     1      38.534 -11.156   3.325  1.00  0.00     0.035 A 
HETATM   31  C   UNL     1      38.008  -9.979   3.860  1.00  0.00     0.029 A 
HETATM   32  C   UNL     1      36.977  -9.299   3.200  1.00  0.00     0.002 A 
HETATM   33  C   UNL     1      36.471  -9.785   1.998  1.00  0.00     0.000 A 
HETATM   34  C   UNL     1      36.992 -10.956   1.453  1.00  0.00     0.002 A 
HETATM   35  C   UNL     1      38.014 -11.641   2.117  1.00  0.00     0.029 A 
ENDBRANCH  27  30
ENDBRANCH   8  26
TORSDOF 5
ENDMDL
MODEL 4
REMARK VINA RESULT:      -8.7      2.396      8.495
REMARK  5 active torsions:
REMARK  status: ('A' for Active; 'I' for Inactive)
REMARK    1  A    between atoms: C_6  and  C_7 
REMARK       I    between atoms: C_7  and  N_8 
REMARK    2  A    between atoms: N_8  and  C_9 
REMARK    3  A    between atoms: C_16  and  C_17 
REMARK    4  A    between atoms: C_23  and  C_24 
REMARK       I    between atoms: C_24  and  N_25 
REMARK    5  A    between atoms: N_25  and  C_26 
ROOT
HETATM    1  C   UNL     1      41.786 -18.006   3.062  1.00  0.00     0.069 C 
HETATM    2  C   UNL     1      42.256 -16.830   3.882  1.00  0.00     0.018 C 
HETATM    3  N   UNL     1      42.903 -17.141   5.071  1.00  0.00    -0.362 N 
HETATM    4  C   UNL     1      43.561 -16.212   5.864  1.00  0.00     0.018 C 
HETATM    5  C   UNL     1      44.404 -16.773   6.980  1.00  0.00     0.069 C 
HETATM    6  C   UNL     1      43.439 -14.897   5.581  1.00  0.00     0.045 C 
HETATM    7  C   UNL     1      42.601 -14.398   4.411  1.00  0.00     0.101 C 
HETATM    8  C   UNL     1      42.104 -15.536   3.519  1.00  0.00     0.045 C 
HETATM    9  H   UNL     1      43.090 -18.124   5.254  1.00  0.00     0.165 HD
ENDROOT
BRANCH   6  10
HETATM   10  C   UNL     1      44.305 -13.909   6.274  1.00  0.00     0.255 C 
HETATM   11  N   UNL     1      43.775 -13.472   7.466  1.00  0.00    -0.323 N 
HETATM   12  H   UNL     1      42.850 -13.804   7.715  1.00  0.00     0.169 HD
HETATM   13  O   UNL     1      45.353 -13.562   5.745  1.00  0.00    -0.268 OA
BRANCH  11  14
HETATM   14  C   UNL     1      44.338 -12.528   8.349  1.00  0.00     0.035 A 
HETATM   15  C   UNL     1      45.704 -12.442   8.626  1.00  0.00     0.029 A 
HETATM   16  C   UNL     1      46.184 -11.482   9.522  1.00  0.00     0.002 A 
HETATM   17  C   UNL     1      45.304 -10.595  10.139  1.00  0.00     0.000 A 
HETATM   18  C   UNL     1      43.941 -10.672   9.866  1.00  0.00     0.002 A 
HETATM   19  C   UNL     1      43.459 -11.639   8.981  1.00  0.00     0.029 A 
ENDBRANCH  11  14
ENDBRANCH   6  10
BRANCH   7  20
HETATM   20  C   UNL     1      41.452 -13.523   4.893  1.00  0.00    -0.027 A 
HETATM   21  C   UNL     1      41.388 -12.175   4.542  1.00  0.00     0.124 A 
HETATM   22  N   UNL     1      40.433 -11.323   4.976  1.00  0.00    -0.273 NA
HETATM   23  C   UNL     1      39.473 -11.836   5.776  1.00  0.00     0.116 A 
HETATM   24  C   UNL     1      39.441 -13.157   6.184  1.00  0.00     0.020 A 
HETATM   25  C   UNL     1      40.448 -14.008   5.742  1.00  0.00     0.011 A 
ENDBRANCH   7  20
BRANCH   8  26
HETATM   26  C   UNL     1      41.342 -15.183   2.287  1.00  0.00     0.255 C 
HETATM   27  N   UNL     1      42.149 -15.009   1.182  1.00  0.00    -0.323 N 
HETATM   28  H   UNL     1      43.143 -15.153   1.298  1.00  0.00     0.169 HD
HETATM   29  O   UNL     1      40.123 -15.073   2.340  1.00  0.00    -0.268 OA
BRANCH  27  30
HETATM   30  C   UNL     1      41.741 -14.664  -0.124  1.00  0.00     0.035 A 
HETATM   31  C   UNL     1      41.811 -13.372  -0.649  1.00  0.00     0.029 A 
HETATM   32  C   UNL     1      41.375 -13.111  -1.953  1.00  0.00     0.002 A 
HETATM   33  C   UNL     1      40.875 -14.140  -2.746  1.00  0.00     0.000 A 
HETATM   34  C   UNL     1      40.804 -15.433  -2.234  1.00  0.00     0.002 A 
HETATM   35  C   UNL     1      41.229 -15.692  -0.928  1.00  0.00     0.029 A 
ENDBRANCH  27  30
ENDBRANCH   8  26
TORSDOF 5
ENDMDL
MODEL 5
REMARK VINA RESULT:      -8.5      5.493      9.638
REMARK  5 active torsions:
REMARK  status: ('A' for Active; 'I' for Inactive)
REMARK    1  A    between atoms: C_6  and  C_7 
REMARK       I    between atoms: C_7  and  N_8 
REMARK    2  A    between atoms: N_8  and  C_9 
REMARK    3  A    between atoms: C_16  and  C_17 
REMARK    4  A    between atoms: C_23  and  C_24 
REMARK       I    between atoms: C_24  and  N_25 
REMARK    5  A    between atoms: N_25  and  C_26 
ROOT
HETATM    1  C   UNL     1      40.335 -13.804   3.784  1.00  0.00     0.069 C 
HETATM    2  C   UNL     1      40.759 -13.257   2.443  1.00  0.00     0.018 C 
HETATM    3  N   UNL     1      40.571 -11.894   2.258  1.00  0.00    -0.362 N 
HETATM    4  C   UNL     1      41.060 -11.180   1.173  1.00  0.00     0.018 C 
HETATM    5  C   UNL     1      40.965  -9.680   1.270  1.00  0.00     0.069 C 
HETATM    6  C   UNL     1      41.607 -11.849   0.135  1.00  0.00     0.045 C 
HETATM    7  C   UNL     1      41.707 -13.370   0.119  1.00  0.00     0.101 C 
HETATM    8  C   UNL     1      41.313 -13.997   1.456  1.00  0.00     0.045 C 
HETATM    9  H   UNL     1      40.251 -11.356   3.062  1.00  0.00     0.165 HD
ENDROOT
BRANCH   6  10
HETATM   10  C   UNL     1      42.330 -11.103  -0.925  1.00  0.00     0.255 C 
HETATM   11  N   UNL     1      41.508 -10.685  -1.946  1.00  0.00    -0.323 N 
HETATM   12  H   UNL     1      40.536 -10.972  -1.908  1.00  0.00     0.169 HD
HETATM   13  O   UNL     1      43.541 -10.951  -0.825  1.00  0.00    -0.268 OA
BRANCH  11  14
HETATM   14  C   UNL     1      41.885  -9.972  -3.102  1.00  0.00     0.035 A 
HETATM   15  C   UNL     1      42.081  -8.591  -3.133  1.00  0.00     0.029 A 
HETATM   16  C   UNL     1      42.448  -7.955  -4.323  1.00  0.00     0.002 A 
HETATM   17  C   UNL     1      42.632  -8.698  -5.488  1.00  0.00     0.000 A 
HETATM   18  C   UNL     1      42.441 -10.077  -5.465  1.00  0.00     0.002 A 
HETATM   19  C   UNL     1      42.062 -10.711  -4.279  1.00  0.00     0.029 A 
ENDBRANCH  11  14
ENDBRANCH   6  10
BRANCH   7  20
HETATM   20  C   UNL     1      40.908 -13.961  -1.034  1.00  0.00    -0.027 A 
HETATM   21  C   UNL     1      41.539 -14.698  -2.034  1.00  0.00     0.124 A 
HETATM   22  N   UNL     1      40.907 -15.205  -3.116  1.00  0.00    -0.273 NA
HETATM   23  C   UNL     1      39.576 -14.996  -3.201  1.00  0.00     0.116 A 
HETATM   24  C   UNL     1      38.851 -14.280  -2.265  1.00  0.00     0.020 A 
HETATM   25  C   UNL     1      39.529 -13.749  -1.172  1.00  0.00     0.011 A 
ENDBRANCH   7  20
BRANCH   8  26
HETATM   26  C   UNL     1      41.448 -15.475   1.607  1.00  0.00     0.255 C 
HETATM   27  N   UNL     1      42.684 -15.861   2.081  1.00  0.00    -0.323 N 
HETATM   28  H   UNL     1      43.353 -15.134   2.296  1.00  0.00     0.169 HD
HETATM   29  O   UNL     1      40.506 -16.201   1.311  1.00  0.00    -0.268 OA
BRANCH  27  30
HETATM   30  C   UNL     1      43.129 -17.178   2.323  1.00  0.00     0.035 A 
HETATM   31  C   UNL     1      43.530 -18.064   1.321  1.00  0.00     0.029 A 
HETATM   32  C   UNL     1      43.950 -19.359   1.646  1.00  0.00     0.002 A 
HETATM   33  C   UNL     1      43.981 -19.775   2.974  1.00  0.00     0.000 A 
HETATM   34  C   UNL     1      43.588 -18.898   3.982  1.00  0.00     0.002 A 
HETATM   35  C   UNL     1      43.158 -17.608   3.657  1.00  0.00     0.029 A 
ENDBRANCH  27  30
ENDBRANCH   8  26
TORSDOF 5
ENDMDL
MODEL 6
REMARK VINA RESULT:      -8.5      4.212      7.146
REMARK  5 active torsions:
REMARK  status: ('A' for Active; 'I' for Inactive)
REMARK    1  A    between atoms: C_6  and  C_7 
REMARK       I    between atoms: C_7  and  N_8 
REMARK    2  A    between atoms: N_8  and  C_9 
REMARK    3  A    between atoms: C_16  and  C_17 
REMARK    4  A    between atoms: C_23  and  C_24 
REMARK       I    between atoms: C_24  and  N_25 
REMARK    5  A    between atoms: N_25  and  C_26 
ROOT
HETATM    1  C   UNL     1      39.882 -14.294  -1.747  1.00  0.00     0.069 C 
HETATM    2  C   UNL     1      40.642 -14.672  -0.499  1.00  0.00     0.018 C 
HETATM    3  N   UNL     1      40.588 -16.012  -0.141  1.00  0.00    -0.362 N 
HETATM    4  C   UNL     1      41.362 -16.581   0.860  1.00  0.00     0.018 C 
HETATM    5  C   UNL     1      41.341 -18.086   0.939  1.00  0.00     0.069 C 
HETATM    6  C   UNL     1      42.095 -15.781   1.665  1.00  0.00     0.045 C 
HETATM    7  C   UNL     1      42.102 -14.265   1.505  1.00  0.00     0.101 C 
HETATM    8  C   UNL     1      41.365 -13.806   0.247  1.00  0.00     0.045 C 
HETATM    9  H   UNL     1      40.123 -16.647  -0.786  1.00  0.00     0.165 HD
ENDROOT
BRANCH   6  10
HETATM   10  C   UNL     1      43.093 -16.377   2.589  1.00  0.00     0.255 C 
HETATM   11  N   UNL     1      42.566 -16.688   3.822  1.00  0.00    -0.323 N 
HETATM   12  H   UNL     1      41.601 -16.430   3.994  1.00  0.00     0.169 HD
HETATM   13  O   UNL     1      44.249 -16.513   2.210  1.00  0.00    -0.268 OA
BRANCH  11  14
HETATM   14  C   UNL     1      43.251 -17.247   4.920  1.00  0.00     0.035 A 
HETATM   15  C   UNL     1      43.642 -18.585   4.991  1.00  0.00     0.029 A 
HETATM   16  C   UNL     1      44.311 -19.066   6.121  1.00  0.00     0.002 A 
HETATM   17  C   UNL     1      44.603 -18.211   7.182  1.00  0.00     0.000 A 
HETATM   18  C   UNL     1      44.218 -16.874   7.117  1.00  0.00     0.002 A 
HETATM   19  C   UNL     1      43.538 -16.396   5.995  1.00  0.00     0.029 A 
ENDBRANCH  11  14
ENDBRANCH   6  10
BRANCH   7  20
HETATM   20  C   UNL     1      41.560 -13.580   2.752  1.00  0.00    -0.027 A 
HETATM   21  C   UNL     1      42.389 -12.792   3.548  1.00  0.00     0.124 A 
HETATM   22  N   UNL     1      41.997 -12.198   4.697  1.00  0.00    -0.273 NA
HETATM   23  C   UNL     1      40.709 -12.370   5.066  1.00  0.00     0.116 A 
HETATM   24  C   UNL     1      39.802 -13.130   4.350  1.00  0.00     0.020 A 
HETATM   25  C   UNL     1      40.237 -13.749   3.182  1.00  0.00     0.011 A 
ENDBRANCH   7  20
BRANCH   8  26
HETATM   26  C   UNL     1      41.368 -12.351  -0.079  1.00  0.00     0.255 C 
HETATM   27  N   UNL     1      42.454 -11.967  -0.837  1.00  0.00    -0.323 N 
HETATM   28  H   UNL     1      43.112 -12.684  -1.112  1.00  0.00     0.169 HD
HETATM   29  O   UNL     1      40.461 -11.637   0.332  1.00  0.00    -0.268 OA
BRANCH  27  30
HETATM   30  C   UNL     1      42.753 -10.667  -1.300  1.00  0.00     0.035 A 
HETATM   31  C   UNL     1      43.474  -9.724  -0.566  1.00  0.00     0.029 A 
HETATM   32  C   UNL     1      43.719  -8.451  -1.095  1.00  0.00     0.002 A 
HETATM   33  C   UNL     1      43.254  -8.115  -2.363  1.00  0.00     0.000 A 
HETATM   34  C   UNL     1      42.537  -9.050  -3.105  1.00  0.00     0.002 A 
HETATM   35  C   UNL     1      42.283 -10.318  -2.573  1.00  0.00     0.029 A 
ENDBRANCH  27  30
ENDBRANCH   8  26
TORSDOF 5
ENDMDL
MODEL 7
REMARK VINA RESULT:      -8.4      2.514      8.266
REMARK  5 active torsions:
REMARK  status: ('A' for Active; 'I' for Inactive)
REMARK    1  A    between atoms: C_6  and  C_7 
REMARK       I    between atoms: C_7  and  N_8 
REMARK    2  A    between atoms: N_8  and  C_9 
REMARK    3  A    between atoms: C_16  and  C_17 
REMARK    4  A    between atoms: C_23  and  C_24 
REMARK       I    between atoms: C_24  and  N_25 
REMARK    5  A    between atoms: N_25  and  C_26 
ROOT
HETATM    1  C   UNL     1      41.523 -17.086   2.745  1.00  0.00     0.069 C 
HETATM    2  C   UNL     1      42.071 -16.088   3.735  1.00  0.00     0.018 C 
HETATM    3  N   UNL     1      42.712 -16.625   4.844  1.00  0.00    -0.362 N 
HETATM    4  C   UNL     1      43.432 -15.878   5.764  1.00  0.00     0.018 C 
HETATM    5  C   UNL     1      44.252 -16.660   6.756  1.00  0.00     0.069 C 
HETATM    6  C   UNL     1      43.384 -14.529   5.702  1.00  0.00     0.045 C 
HETATM    7  C   UNL     1      42.563 -13.799   4.646  1.00  0.00     0.101 C 
HETATM    8  C   UNL     1      41.991 -14.746   3.591  1.00  0.00     0.045 C 
HETATM    9  H   UNL     1      42.843 -17.635   4.860  1.00  0.00     0.165 HD
ENDROOT
BRANCH   6  10
HETATM   10  C   UNL     1      44.314 -13.718   6.529  1.00  0.00     0.255 C 
HETATM   11  N   UNL     1      43.706 -13.154   7.626  1.00  0.00    -0.323 N 
HETATM   12  H   UNL     1      42.706 -13.288   7.725  1.00  0.00     0.169 HD
HETATM   13  O   UNL     1      45.479 -13.601   6.172  1.00  0.00    -0.268 OA
BRANCH  11  14
HETATM   14  C   UNL     1      44.305 -12.321   8.593  1.00  0.00     0.035 A 
HETATM   15  C   UNL     1      45.645 -12.410   8.972  1.00  0.00     0.029 A 
HETATM   16  C   UNL     1      46.163 -11.551   9.946  1.00  0.00     0.002 A 
HETATM   17  C   UNL     1      45.347 -10.592  10.541  1.00  0.00     0.000 A 
HETATM   18  C   UNL     1      44.009 -10.494  10.167  1.00  0.00     0.002 A 
HETATM   19  C   UNL     1      43.488 -11.360   9.203  1.00  0.00     0.029 A 
ENDBRANCH  11  14
ENDBRANCH   6  10
BRANCH   7  20
HETATM   20  C   UNL     1      41.473 -12.951   5.288  1.00  0.00    -0.027 A 
HETATM   21  C   UNL     1      41.496 -11.562   5.180  1.00  0.00     0.124 A 
HETATM   22  N   UNL     1      40.597 -10.741   5.768  1.00  0.00    -0.273 NA
HETATM   23  C   UNL     1      39.607 -11.325   6.477  1.00  0.00     0.116 A 
HETATM   24  C   UNL     1      39.490 -12.693   6.647  1.00  0.00     0.020 A 
HETATM   25  C   UNL     1      40.441 -13.515   6.050  1.00  0.00     0.011 A 
ENDBRANCH   7  20
BRANCH   8  26
HETATM   26  C   UNL     1      41.237 -14.154   2.449  1.00  0.00     0.255 C 
HETATM   27  N   UNL     1      39.888 -14.021   2.700  1.00  0.00    -0.323 N 
HETATM   28  H   UNL     1      39.549 -14.306   3.609  1.00  0.00     0.169 HD
HETATM   29  O   UNL     1      41.834 -13.849   1.423  1.00  0.00    -0.268 OA
BRANCH  27  30
HETATM   30  C   UNL     1      38.905 -13.509   1.826  1.00  0.00     0.035 A 
HETATM   31  C   UNL     1      38.318 -14.243   0.794  1.00  0.00     0.029 A 
HETATM   32  C   UNL     1      37.357 -13.655  -0.036  1.00  0.00     0.002 A 
HETATM   33  C   UNL     1      36.967 -12.334   0.165  1.00  0.00     0.000 A 
HETATM   34  C   UNL     1      37.543 -11.594   1.194  1.00  0.00     0.002 A 
HETATM   35  C   UNL     1      38.512 -12.177   2.017  1.00  0.00     0.029 A 
ENDBRANCH  27  30
ENDBRANCH   8  26
TORSDOF 5
ENDMDL
MODEL 8
REMARK VINA RESULT:      -8.3      4.142      7.444
REMARK  5 active torsions:
REMARK  status: ('A' for Active; 'I' for Inactive)
REMARK    1  A    between atoms: C_6  and  C_7 
REMARK       I    between atoms: C_7  and  N_8 
REMARK    2  A    between atoms: N_8  and  C_9 
REMARK    3  A    between atoms: C_16  and  C_17 
REMARK    4  A    between atoms: C_23  and  C_24 
REMARK       I    between atoms: C_24  and  N_25 
REMARK    5  A    between atoms: N_25  and  C_26 
ROOT
HETATM    1  C   UNL     1      41.735 -12.199   5.821  1.00  0.00     0.069 C 
HETATM    2  C   UNL     1      41.500 -12.417   4.347  1.00  0.00     0.018 C 
HETATM    3  N   UNL     1      40.471 -11.676   3.782  1.00  0.00    -0.362 N 
HETATM    4  C   UNL     1      40.222 -11.603   2.419  1.00  0.00     0.018 C 
HETATM    5  C   UNL     1      39.222 -10.564   1.983  1.00  0.00     0.069 C 
HETATM    6  C   UNL     1      40.893 -12.422   1.580  1.00  0.00     0.045 C 
HETATM    7  C   UNL     1      41.923 -13.426   2.084  1.00  0.00     0.101 C 
HETATM    8  C   UNL     1      42.230 -13.252   3.572  1.00  0.00     0.045 C 
HETATM    9  H   UNL     1      40.018 -10.983   4.375  1.00  0.00     0.165 HD
ENDROOT
BRANCH   6  10
HETATM   10  C   UNL     1      40.806 -12.209   0.113  1.00  0.00     0.255 C 
HETATM   11  N   UNL     1      41.889 -11.532  -0.399  1.00  0.00    -0.323 N 
HETATM   12  H   UNL     1      42.585 -11.200   0.261  1.00  0.00     0.169 HD
HETATM   13  O   UNL     1      39.817 -12.608  -0.488  1.00  0.00    -0.268 OA
BRANCH  11  14
HETATM   14  C   UNL     1      42.100 -11.160  -1.742  1.00  0.00     0.035 A 
HETATM   15  C   UNL     1      42.253 -12.074  -2.785  1.00  0.00     0.029 A 
HETATM   16  C   UNL     1      42.467 -11.625  -4.092  1.00  0.00     0.002 A 
HETATM   17  C   UNL     1      42.520 -10.260  -4.366  1.00  0.00     0.000 A 
HETATM   18  C   UNL     1      42.366  -9.341  -3.331  1.00  0.00     0.002 A 
HETATM   19  C   UNL     1      42.164  -9.789  -2.023  1.00  0.00     0.029 A 
ENDBRANCH  11  14
ENDBRANCH   6  10
BRANCH   7  20
HETATM   20  C   UNL     1      41.502 -14.853   1.763  1.00  0.00    -0.027 A 
HETATM   21  C   UNL     1      42.278 -15.653   0.927  1.00  0.00     0.124 A 
HETATM   22  N   UNL     1      41.942 -16.907   0.552  1.00  0.00    -0.273 NA
HETATM   23  C   UNL     1      40.792 -17.408   1.051  1.00  0.00     0.116 A 
HETATM   24  C   UNL     1      39.947 -16.701   1.888  1.00  0.00     0.020 A 
HETATM   25  C   UNL     1      40.305 -15.404   2.242  1.00  0.00     0.011 A 
ENDBRANCH   7  20
BRANCH   8  26
HETATM   26  C   UNL     1      43.286 -14.113   4.178  1.00  0.00     0.255 C 
HETATM   27  N   UNL     1      42.810 -15.338   4.598  1.00  0.00    -0.323 N 
HETATM   28  H   UNL     1      41.832 -15.541   4.443  1.00  0.00     0.169 HD
HETATM   29  O   UNL     1      44.434 -13.695   4.260  1.00  0.00    -0.268 OA
BRANCH  27  30
HETATM   30  C   UNL     1      43.547 -16.370   5.218  1.00  0.00     0.035 A 
HETATM   31  C   UNL     1      44.094 -16.279   6.499  1.00  0.00     0.029 A 
HETATM   32  C   UNL     1      44.822 -17.347   7.037  1.00  0.00     0.002 A 
HETATM   33  C   UNL     1      45.000 -18.517   6.303  1.00  0.00     0.000 A 
HETATM   34  C   UNL     1      44.455 -18.620   5.026  1.00  0.00     0.002 A 
HETATM   35  C   UNL     1      43.738 -17.549   4.484  1.00  0.00     0.029 A 
ENDBRANCH  27  30
ENDBRANCH   8  26
TORSDOF 5
ENDMDL
MODEL 9
REMARK VINA RESULT:      -8.0      5.162      9.010
REMARK  5 active torsions:
REMARK  status: ('A' for Active; 'I' for Inactive)
REMARK    1  A    between atoms: C_6  and  C_7 
REMARK       I    between atoms: C_7  and  N_8 
REMARK    2  A    between atoms: N_8  and  C_9 
REMARK    3  A    between atoms: C_16  and  C_17 
REMARK    4  A    between atoms: C_23  and  C_24 
REMARK       I    between atoms: C_24  and  N_25 
REMARK    5  A    between atoms: N_25  and  C_26 
ROOT
HETATM    1  C   UNL     1      41.091 -15.629  -3.124  1.00  0.00     0.069 C 
HETATM    2  C   UNL     1      40.974 -15.289  -1.658  1.00  0.00     0.018 C 
HETATM    3  N   UNL     1      40.957 -16.370  -0.787  1.00  0.00    -0.362 N 
HETATM    4  C   UNL     1      41.037 -16.258   0.594  1.00  0.00     0.018 C 
HETATM    5  C   UNL     1      41.246 -17.542   1.352  1.00  0.00     0.069 C 
HETATM    6  C   UNL     1      40.957 -15.035   1.163  1.00  0.00     0.045 C 
HETATM    7  C   UNL     1      40.784 -13.769   0.333  1.00  0.00     0.101 C 
HETATM    8  C   UNL     1      40.911 -14.031  -1.168  1.00  0.00     0.045 C 
HETATM    9  H   UNL     1      41.113 -17.293  -1.187  1.00  0.00     0.165 HD
ENDROOT
BRANCH   6  10
HETATM   10  C   UNL     1      41.261 -14.871   2.607  1.00  0.00     0.255 C 
HETATM   11  N   UNL     1      42.561 -15.190   2.923  1.00  0.00    -0.323 N 
HETATM   12  H   UNL     1      43.146 -15.553   2.179  1.00  0.00     0.169 HD
HETATM   13  O   UNL     1      40.370 -14.511   3.365  1.00  0.00    -0.268 OA
BRANCH  11  14
HETATM   14  C   UNL     1      43.156 -15.156   4.201  1.00  0.00     0.035 A 
HETATM   15  C   UNL     1      43.285 -16.274   5.027  1.00  0.00     0.029 A 
HETATM   16  C   UNL     1      43.882 -16.157   6.286  1.00  0.00     0.002 A 
HETATM   17  C   UNL     1      44.361 -14.924   6.724  1.00  0.00     0.000 A 
HETATM   18  C   UNL     1      44.238 -13.805   5.906  1.00  0.00     0.002 A 
HETATM   19  C   UNL     1      43.632 -13.918   4.653  1.00  0.00     0.029 A 
ENDBRANCH  11  14
ENDBRANCH   6  10
BRANCH   7  20
HETATM   20  C   UNL     1      39.476 -13.066   0.669  1.00  0.00    -0.027 A 
HETATM   21  C   UNL     1      39.478 -11.821   1.295  1.00  0.00     0.124 A 
HETATM   22  N   UNL     1      38.361 -11.162   1.675  1.00  0.00    -0.273 NA
HETATM   23  C   UNL     1      37.178 -11.751   1.398  1.00  0.00     0.116 A 
HETATM   24  C   UNL     1      37.062 -12.984   0.780  1.00  0.00     0.020 A 
HETATM   25  C   UNL     1      38.228 -13.652   0.419  1.00  0.00     0.011 A 
ENDBRANCH   7  20
BRANCH   8  26
HETATM   26  C   UNL     1      40.849 -12.863  -2.094  1.00  0.00     0.255 C 
HETATM   27  N   UNL     1      42.001 -12.105  -2.089  1.00  0.00    -0.323 N 
HETATM   28  H   UNL     1      42.762 -12.411  -1.498  1.00  0.00     0.169 HD
HETATM   29  O   UNL     1      39.834 -12.668  -2.752  1.00  0.00    -0.268 OA
BRANCH  27  30
HETATM   30  C   UNL     1      42.255 -10.938  -2.841  1.00  0.00     0.035 A 
HETATM   31  C   UNL     1      42.362 -10.913  -4.232  1.00  0.00     0.029 A 
HETATM   32  C   UNL     1      42.626  -9.713  -4.902  1.00  0.00     0.002 A 
HETATM   33  C   UNL     1      42.776  -8.527  -4.187  1.00  0.00     0.000 A 
HETATM   34  C   UNL     1      42.667  -8.540  -2.799  1.00  0.00     0.002 A 
HETATM   35  C   UNL     1      42.414  -9.741  -2.129  1.00  0.00     0.029 A 
ENDBRANCH  27  30
ENDBRANCH   8  26
TORSDOF 5
ENDMDL
MODEL 10
REMARK VINA RESULT:      -7.8      3.567      6.557
REMARK  5 active torsions:
REMARK  status: ('A' for Active; 'I' for Inactive)
REMARK    1  A    between atoms: C_6  and  C_7 
REMARK       I    between atoms: C_7  and  N_8 
REMARK    2  A    between atoms: N_8  and  C_9 
REMARK    3  A    between atoms: C_16  and  C_17 
REMARK    4  A    between atoms: C_23  and  C_24 
REMARK       I    between atoms: C_24  and  N_25 
REMARK    5  A    between atoms: N_25  and  C_26 
ROOT
HETATM    1  C   UNL     1      40.244 -13.957  -1.385  1.00  0.00     0.069 C 
HETATM    2  C   UNL     1      40.831 -14.451  -0.085  1.00  0.00     0.018 C 
HETATM    3  N   UNL     1      40.609 -15.789   0.209  1.00  0.00    -0.362 N 
HETATM    4  C   UNL     1      41.215 -16.467   1.257  1.00  0.00     0.018 C 
HETATM    5  C   UNL     1      41.039 -17.963   1.269  1.00  0.00     0.069 C 
HETATM    6  C   UNL     1      41.936 -15.772   2.163  1.00  0.00     0.045 C 
HETATM    7  C   UNL     1      42.108 -14.261   2.070  1.00  0.00     0.101 C 
HETATM    8  C   UNL     1      41.555 -13.688   0.766  1.00  0.00     0.045 C 
HETATM    9  H   UNL     1      40.153 -16.352  -0.506  1.00  0.00     0.165 HD
ENDROOT
BRANCH   6  10
HETATM   10  C   UNL     1      42.770 -16.497   3.156  1.00  0.00     0.255 C 
HETATM   11  N   UNL     1      42.114 -16.728   4.343  1.00  0.00    -0.323 N 
HETATM   12  H   UNL     1      41.183 -16.340   4.444  1.00  0.00     0.169 HD
HETATM   13  O   UNL     1      43.922 -16.791   2.864  1.00  0.00    -0.268 OA
BRANCH  11  14
HETATM   14  C   UNL     1      42.630 -17.373   5.485  1.00  0.00     0.035 A 
HETATM   15  C   UNL     1      42.641 -16.803   6.760  1.00  0.00     0.029 A 
HETATM   16  C   UNL     1      43.179 -17.505   7.843  1.00  0.00     0.002 A 
HETATM   17  C   UNL     1      43.700 -18.784   7.662  1.00  0.00     0.000 A 
HETATM   18  C   UNL     1      43.690 -19.361   6.394  1.00  0.00     0.002 A 
HETATM   19  C   UNL     1      43.165 -18.656   5.309  1.00  0.00     0.029 A 
ENDBRANCH  11  14
ENDBRANCH   6  10
BRANCH   7  20
HETATM   20  C   UNL     1      41.511 -13.565   3.285  1.00  0.00    -0.027 A 
HETATM   21  C   UNL     1      42.310 -12.797   4.130  1.00  0.00     0.124 A 
HETATM   22  N   UNL     1      41.864 -12.196   5.256  1.00  0.00    -0.273 NA
HETATM   23  C   UNL     1      40.554 -12.338   5.548  1.00  0.00     0.116 A 
HETATM   24  C   UNL     1      39.673 -13.076   4.778  1.00  0.00     0.020 A 
HETATM   25  C   UNL     1      40.161 -13.703   3.637  1.00  0.00     0.011 A 
ENDBRANCH   7  20
BRANCH   8  26
HETATM   26  C   UNL     1      41.734 -12.231   0.505  1.00  0.00     0.255 C 
HETATM   27  N   UNL     1      40.622 -11.482   0.827  1.00  0.00    -0.323 N 
HETATM   28  H   UNL     1      39.826 -11.966   1.217  1.00  0.00     0.169 HD
HETATM   29  O   UNL     1      42.794 -11.825   0.043  1.00  0.00    -0.268 OA
BRANCH  27  30
HETATM   30  C   UNL     1      40.468 -10.085   0.691  1.00  0.00     0.035 A 
HETATM   31  C   UNL     1      39.990  -9.461  -0.463  1.00  0.00     0.029 A 
HETATM   32  C   UNL     1      39.877  -8.068  -0.520  1.00  0.00     0.002 A 
HETATM   33  C   UNL     1      40.230  -7.288   0.578  1.00  0.00     0.000 A 
HETATM   34  C   UNL     1      40.703  -7.900   1.735  1.00  0.00     0.002 A 
HETATM   35  C   UNL     1      40.827  -9.291   1.788  1.00  0.00     0.029 A 
ENDBRANCH  27  30
ENDBRANCH   8  26
TORSDOF 5
ENDMDL
