MODEL 1
REMARK VINA RESULT:      -8.8      0.000      0.000
REMARK  8 active torsions:
REMARK  status: ('A' for Active; 'I' for Inactive)
REMARK    1  A    between atoms: C_3  and  N_4 
REMARK    2  A    between atoms: C_5  and  S_6 
REMARK    3  A    between atoms: S_6  and  C_7 
REMARK    4  A    between atoms: C_7  and  C_8 
REMARK       I    between atoms: C_8  and  N_9 
REMARK    5  A    between atoms: N_9  and  C_10 
REMARK    6  A    between atoms: C_10  and  C_11 
REMARK    7  A    between atoms: C_11  and  C_12 
REMARK    8  A    between atoms: C_22  and  N_23 
ROOT
HETATM    1  N   UNL     1      41.490 -15.315   3.023  1.00  0.00    -0.275 N 
HETATM    2  C   UNL     1      42.232 -14.113   3.164  1.00  0.00     0.177 A 
HETATM    3  N   UNL     1      41.879 -12.934   2.712  1.00  0.00    -0.204 NA
HETATM    4  C   UNL     1      40.669 -12.924   2.109  1.00  0.00     0.162 A 
HETATM    5  C   UNL     1      39.798 -13.957   1.893  1.00  0.00     0.081 A 
HETATM    6  C   UNL     1      40.201 -15.252   2.354  1.00  0.00     0.124 A 
HETATM    7  N   UNL     1      40.056 -11.824   1.590  1.00  0.00    -0.260 N 
HETATM    8  H   UNL     1      40.401 -10.871   1.576  1.00  0.00     0.191 HD
HETATM    9  N   UNL     1      38.849 -12.097   1.046  1.00  0.00    -0.177 NA
HETATM   10  C   UNL     1      38.682 -13.415   1.239  1.00  0.00     0.068 A 
HETATM   11  C   UNL     1      37.437 -14.068   0.770  1.00  0.00     0.073 C 
ENDROOT
BRANCH   2  12
HETATM   12  S   UNL     1      43.814 -14.158   3.970  1.00  0.00    -0.082 SA
BRANCH  12  13
HETATM   13  C   UNL     1      43.338 -13.738   5.665  1.00  0.00     0.185 C 
BRANCH  13  14
HETATM   14  C   UNL     1      44.089 -14.557   6.709  1.00  0.00     0.227 C 
HETATM   15  N   UNL     1      44.497 -13.898   7.846  1.00  0.00    -0.360 N 
HETATM   16  H   UNL     1      45.033 -14.477   8.484  1.00  0.00     0.162 HD
HETATM   17  O   UNL     1      44.324 -15.762   6.607  1.00  0.00    -0.273 OA
BRANCH  15  18
HETATM   18  C   UNL     1      44.400 -12.468   8.086  1.00  0.00     0.127 C 
BRANCH  18  19
HETATM   19  C   UNL     1      45.359 -11.972   9.168  1.00  0.00     0.058 C 
BRANCH  19  20
HETATM   20  C   UNL     1      44.599 -11.551  10.403  1.00  0.00    -0.057 A 
HETATM   21  C   UNL     1      44.126 -12.509  11.309  1.00  0.00     0.007 A 
HETATM   22  C   UNL     1      43.382 -12.121  12.425  1.00  0.00     0.001 A 
HETATM   23  C   UNL     1      43.100 -10.774  12.642  1.00  0.00     0.000 A 
HETATM   24  C   UNL     1      43.565  -9.813  11.748  1.00  0.00     0.001 A 
HETATM   25  C   UNL     1      44.312 -10.198  10.634  1.00  0.00     0.007 A 
ENDBRANCH  19  20
ENDBRANCH  18  19
ENDBRANCH  15  18
ENDBRANCH  13  14
ENDBRANCH  12  13
ENDBRANCH   2  12
BRANCH   1  26
HETATM   26  C   UNL     1      41.955 -16.550   3.570  1.00  0.00     0.051 A 
HETATM   27  C   UNL     1      41.637 -16.950   4.887  1.00  0.00    -0.035 A 
HETATM   28  C   UNL     1      40.700 -16.168   5.769  1.00  0.00     0.050 C 
HETATM   29  C   UNL     1      42.163 -18.154   5.380  1.00  0.00     0.011 A 
HETATM   30  C   UNL     1      43.026 -18.930   4.604  1.00  0.00     0.024 A 
HETATM   31  C   UNL     1      43.355 -18.518   3.318  1.00  0.00     0.036 A 
HETATM   32  C   UNL     1      42.824 -17.340   2.797  1.00  0.00     0.054 A 
HETATM   33 CL   UNL     1      44.440 -19.456   2.370  1.00  0.00    -0.084 Cl
ENDBRANCH   1  26
BRANCH   6  34
HETATM   34  N   UNL     1      39.448 -16.316   2.153  1.00  0.00    -0.384 N 
HETATM   35  H   UNL     1      38.448 -16.295   2.284  1.00  0.00     0.157 HD
HETATM   36  H   UNL     1      39.874 -17.182   1.850  1.00  0.00     0.157 HD
ENDBRANCH   6  34
TORSDOF 8
ENDMDL
MODEL 2
REMARK VINA RESULT:      -8.6      3.763      8.128
REMARK  8 active torsions:
REMARK  status: ('A' for Active; 'I' for Inactive)
REMARK    1  A    between atoms: C_3  and  N_4 
REMARK    2  A    between atoms: C_5  and  S_6 
REMARK    3  A    between atoms: S_6  and  C_7 
REMARK    4  A    between atoms: C_7  and  C_8 
REMARK       I    between atoms: C_8  and  N_9 
REMARK    5  A    between atoms: N_9  and  C_10 
REMARK    6  A    between atoms: C_10  and  C_11 
REMARK    7  A    between atoms: C_11  and  C_12 
REMARK    8  A    between atoms: C_22  and  N_23 
ROOT
HETATM    1  N   UNL     1      41.629 -14.537   3.564  1.00  0.00    -0.275 N 
HETATM    2  C   UNL     1      41.036 -15.824   3.485  1.00  0.00     0.177 A 
HETATM    3  N   UNL     1      41.288 -16.837   4.279  1.00  0.00    -0.204 NA
HETATM    4  C   UNL     1      42.164 -16.546   5.267  1.00  0.00     0.162 A 
HETATM    5  C   UNL     1      42.822 -15.376   5.528  1.00  0.00     0.081 A 
HETATM    6  C   UNL     1      42.575 -14.281   4.638  1.00  0.00     0.124 A 
HETATM    7  N   UNL     1      42.563 -17.407   6.245  1.00  0.00    -0.260 N 
HETATM    8  H   UNL     1      42.274 -18.369   6.380  1.00  0.00     0.191 HD
HETATM    9  N   UNL     1      43.446 -16.856   7.107  1.00  0.00    -0.177 NA
HETATM   10  C   UNL     1      43.603 -15.596   6.672  1.00  0.00     0.068 A 
HETATM   11  C   UNL     1      44.510 -14.681   7.402  1.00  0.00     0.073 C 
ENDROOT
BRANCH   2  12
HETATM   12  S   UNL     1      39.882 -16.170   2.181  1.00  0.00    -0.082 SA
BRANCH  12  13
HETATM   13  C   UNL     1      40.786 -17.440   1.261  1.00  0.00     0.185 C 
BRANCH  13  14
HETATM   14  C   UNL     1      41.908 -16.863   0.405  1.00  0.00     0.227 C 
HETATM   15  N   UNL     1      43.190 -17.266   0.699  1.00  0.00    -0.360 N 
HETATM   16  H   UNL     1      43.901 -16.815   0.132  1.00  0.00     0.162 HD
HETATM   17  O   UNL     1      41.733 -16.088  -0.537  1.00  0.00    -0.273 OA
BRANCH  15  18
HETATM   18  C   UNL     1      43.590 -18.084   1.832  1.00  0.00     0.127 C 
BRANCH  18  19
HETATM   19  C   UNL     1      43.680 -19.573   1.499  1.00  0.00     0.058 C 
BRANCH  19  20
HETATM   20  C   UNL     1      44.128 -20.363   2.705  1.00  0.00    -0.057 A 
HETATM   21  C   UNL     1      44.299 -21.751   2.624  1.00  0.00     0.007 A 
HETATM   22  C   UNL     1      44.667 -22.486   3.753  1.00  0.00     0.001 A 
HETATM   23  C   UNL     1      44.862 -21.842   4.973  1.00  0.00     0.000 A 
HETATM   24  C   UNL     1      44.695 -20.462   5.065  1.00  0.00     0.001 A 
HETATM   25  C   UNL     1      44.330 -19.725   3.937  1.00  0.00     0.007 A 
ENDBRANCH  19  20
ENDBRANCH  18  19
ENDBRANCH  15  18
ENDBRANCH  13  14
ENDBRANCH  12  13
ENDBRANCH   2  12
BRANCH   1  26
HETATM   26  C   UNL     1      41.272 -13.492   2.659  1.00  0.00     0.051 A 
HETATM   27  C   UNL     1      40.181 -12.630   2.906  1.00  0.00    -0.035 A 
HETATM   28  C   UNL     1      39.386 -12.672   4.184  1.00  0.00     0.050 C 
HETATM   29  C   UNL     1      39.854 -11.652   1.953  1.00  0.00     0.011 A 
HETATM   30  C   UNL     1      40.564 -11.553   0.755  1.00  0.00     0.024 A 
HETATM   31  C   UNL     1      41.621 -12.421   0.507  1.00  0.00     0.036 A 
HETATM   32  C   UNL     1      41.980 -13.383   1.448  1.00  0.00     0.054 A 
HETATM   33 CL   UNL     1      42.478 -12.323  -0.981  1.00  0.00    -0.084 Cl
ENDBRANCH   1  26
BRANCH   6  34
HETATM   34  N   UNL     1      43.197 -13.126   4.782  1.00  0.00    -0.384 N 
HETATM   35  H   UNL     1      43.791 -12.747   4.060  1.00  0.00     0.157 HD
HETATM   36  H   UNL     1      43.075 -12.594   5.633  1.00  0.00     0.157 HD
ENDBRANCH   6  34
TORSDOF 8
ENDMDL
MODEL 3
REMARK VINA RESULT:      -8.5      4.338      7.547
REMARK  8 active torsions:
REMARK  status: ('A' for Active; 'I' for Inactive)
REMARK    1  A    between atoms: C_3  and  N_4 
REMARK    2  A    between atoms: C_5  and  S_6 
REMARK    3  A    between atoms: S_6  and  C_7 
REMARK    4  A    between atoms: C_7  and  C_8 
REMARK       I    between atoms: C_8  and  N_9 
REMARK    5  A    between atoms: N_9  and  C_10 
REMARK    6  A    between atoms: C_10  and  C_11 
REMARK    7  A    between atoms: C_11  and  C_12 
REMARK    8  A    between atoms: C_22  and  N_23 
ROOT
HETATM    1  N   UNL     1      39.974 -13.635   2.306  1.00  0.00    -0.275 N 
HETATM    2  C   UNL     1      40.202 -14.857   2.992  1.00  0.00     0.177 A 
HETATM    3  N   UNL     1      40.244 -15.013   4.293  1.00  0.00    -0.204 NA
HETATM    4  C   UNL     1      39.994 -13.877   4.983  1.00  0.00     0.162 A 
HETATM    5  C   UNL     1      39.733 -12.618   4.518  1.00  0.00     0.081 A 
HETATM    6  C   UNL     1      39.724 -12.441   3.096  1.00  0.00     0.124 A 
HETATM    7  N   UNL     1      39.939 -13.775   6.341  1.00  0.00    -0.260 N 
HETATM    8  H   UNL     1      40.073 -14.513   7.023  1.00  0.00     0.191 HD
HETATM    9  N   UNL     1      39.669 -12.522   6.768  1.00  0.00    -0.177 NA
HETATM   10  C   UNL     1      39.532 -11.803   5.643  1.00  0.00     0.068 A 
HETATM   11  C   UNL     1      39.213 -10.360   5.734  1.00  0.00     0.073 C 
ENDROOT
BRANCH   2  12
HETATM   12  S   UNL     1      40.519 -16.332   2.056  1.00  0.00    -0.082 SA
BRANCH  12  13
HETATM   13  C   UNL     1      42.307 -16.198   1.814  1.00  0.00     0.185 C 
BRANCH  13  14
HETATM   14  C   UNL     1      42.999 -15.430   2.935  1.00  0.00     0.227 C 
HETATM   15  N   UNL     1      43.328 -16.137   4.067  1.00  0.00    -0.360 N 
HETATM   16  H   UNL     1      43.741 -15.569   4.800  1.00  0.00     0.162 HD
HETATM   17  O   UNL     1      43.299 -14.236   2.874  1.00  0.00    -0.273 OA
BRANCH  15  18
HETATM   18  C   UNL     1      42.959 -17.514   4.353  1.00  0.00     0.127 C 
BRANCH  18  19
HETATM   19  C   UNL     1      44.155 -18.399   4.703  1.00  0.00     0.058 C 
BRANCH  19  20
HETATM   20  C   UNL     1      44.180 -19.632   3.833  1.00  0.00    -0.057 A 
HETATM   21  C   UNL     1      43.612 -19.613   2.553  1.00  0.00     0.007 A 
HETATM   22  C   UNL     1      43.593 -20.768   1.769  1.00  0.00     0.001 A 
HETATM   23  C   UNL     1      44.137 -21.954   2.260  1.00  0.00     0.000 A 
HETATM   24  C   UNL     1      44.705 -21.985   3.531  1.00  0.00     0.001 A 
HETATM   25  C   UNL     1      44.728 -20.830   4.315  1.00  0.00     0.007 A 
ENDBRANCH  19  20
ENDBRANCH  18  19
ENDBRANCH  15  18
ENDBRANCH  13  14
ENDBRANCH  12  13
ENDBRANCH   2  12
BRANCH   1  26
HETATM   26  C   UNL     1      39.929 -13.574   0.880  1.00  0.00     0.051 A 
HETATM   27  C   UNL     1      38.754 -13.873   0.157  1.00  0.00    -0.035 A 
HETATM   28  C   UNL     1      37.438 -14.166   0.829  1.00  0.00     0.050 C 
HETATM   29  C   UNL     1      38.789 -13.839  -1.246  1.00  0.00     0.011 A 
HETATM   30  C   UNL     1      39.975 -13.559  -1.927  1.00  0.00     0.024 A 
HETATM   31  C   UNL     1      41.134 -13.290  -1.209  1.00  0.00     0.036 A 
HETATM   32  C   UNL     1      41.118 -13.293   0.184  1.00  0.00     0.054 A 
HETATM   33 CL   UNL     1      42.604 -12.975  -2.044  1.00  0.00    -0.084 Cl
ENDBRANCH   1  26
BRANCH   6  34
HETATM   34  N   UNL     1      39.525 -11.254   2.554  1.00  0.00    -0.384 N 
HETATM   35  H   UNL     1      39.909 -10.413   2.957  1.00  0.00     0.157 HD
HETATM   36  H   UNL     1      38.980 -11.175   1.706  1.00  0.00     0.157 HD
ENDBRANCH   6  34
TORSDOF 8
ENDMDL
MODEL 4
REMARK VINA RESULT:      -8.5      4.279      7.565
REMARK  8 active torsions:
REMARK  status: ('A' for Active; 'I' for Inactive)
REMARK    1  A    between atoms: C_3  and  N_4 
REMARK    2  A    between atoms: C_5  and  S_6 
REMARK    3  A    between atoms: S_6  and  C_7 
REMARK    4  A    between atoms: C_7  and  C_8 
REMARK       I    between atoms: C_8  and  N_9 
REMARK    5  A    between atoms: N_9  and  C_10 
REMARK    6  A    between atoms: C_10  and  C_11 
REMARK    7  A    between atoms: C_11  and  C_12 
REMARK    8  A    between atoms: C_22  and  N_23 
ROOT
HETATM    1  N   UNL     1      40.842 -12.822   1.558  1.00  0.00    -0.275 N 
HETATM    2  C   UNL     1      40.702 -14.152   1.080  1.00  0.00     0.177 A 
HETATM    3  N   UNL     1      41.115 -14.601  -0.080  1.00  0.00    -0.204 NA
HETATM    4  C   UNL     1      41.767 -13.674  -0.819  1.00  0.00     0.162 A 
HETATM    5  C   UNL     1      42.024 -12.361  -0.535  1.00  0.00     0.081 A 
HETATM    6  C   UNL     1      41.539 -11.862   0.718  1.00  0.00     0.124 A 
HETATM    7  N   UNL     1      42.328 -13.892  -2.040  1.00  0.00    -0.260 N 
HETATM    8  H   UNL     1      42.344 -14.757  -2.569  1.00  0.00     0.191 HD
HETATM    9  N   UNL     1      42.918 -12.791  -2.557  1.00  0.00    -0.177 NA
HETATM   10  C   UNL     1      42.740 -11.843  -1.624  1.00  0.00     0.068 A 
HETATM   11  C   UNL     1      43.281 -10.483  -1.854  1.00  0.00     0.073 C 
ENDROOT
BRANCH   2  12
HETATM   12  S   UNL     1      39.849 -15.348   2.079  1.00  0.00    -0.082 SA
BRANCH  12  13
HETATM   13  C   UNL     1      41.244 -16.319   2.702  1.00  0.00     0.185 C 
BRANCH  13  14
HETATM   14  C   UNL     1      41.411 -16.212   4.213  1.00  0.00     0.227 C 
HETATM   15  N   UNL     1      42.611 -16.628   4.741  1.00  0.00    -0.360 N 
HETATM   16  H   UNL     1      42.651 -16.581   5.754  1.00  0.00     0.162 HD
HETATM   17  O   UNL     1      40.557 -15.755   4.974  1.00  0.00    -0.273 OA
BRANCH  15  18
HETATM   18  C   UNL     1      43.682 -17.287   4.012  1.00  0.00     0.127 C 
BRANCH  18  19
HETATM   19  C   UNL     1      44.261 -18.494   4.750  1.00  0.00     0.058 C 
BRANCH  19  20
HETATM   20  C   UNL     1      44.193 -19.730   3.886  1.00  0.00    -0.057 A 
HETATM   21  C   UNL     1      44.717 -20.947   4.341  1.00  0.00     0.007 A 
HETATM   22  C   UNL     1      44.696 -22.078   3.521  1.00  0.00     0.001 A 
HETATM   23  C   UNL     1      44.158 -22.000   2.239  1.00  0.00     0.000 A 
HETATM   24  C   UNL     1      43.634 -20.796   1.775  1.00  0.00     0.001 A 
HETATM   25  C   UNL     1      43.650 -19.665   2.594  1.00  0.00     0.007 A 
ENDBRANCH  19  20
ENDBRANCH  18  19
ENDBRANCH  15  18
ENDBRANCH  13  14
ENDBRANCH  12  13
ENDBRANCH   2  12
BRANCH   1  26
HETATM   26  C   UNL     1      40.371 -12.437   2.849  1.00  0.00     0.051 A 
HETATM   27  C   UNL     1      39.077 -11.907   3.045  1.00  0.00    -0.035 A 
HETATM   28  C   UNL     1      38.062 -11.812   1.937  1.00  0.00     0.050 C 
HETATM   29  C   UNL     1      38.692 -11.505   4.334  1.00  0.00     0.011 A 
HETATM   30  C   UNL     1      39.584 -11.582   5.405  1.00  0.00     0.024 A 
HETATM   31  C   UNL     1      40.865 -12.082   5.201  1.00  0.00     0.036 A 
HETATM   32  C   UNL     1      41.261 -12.511   3.936  1.00  0.00     0.054 A 
HETATM   33 CL   UNL     1      41.976 -12.151   6.511  1.00  0.00    -0.084 Cl
ENDBRANCH   1  26
BRANCH   6  34
HETATM   34  N   UNL     1      41.700 -10.598   1.061  1.00  0.00    -0.384 N 
HETATM   35  H   UNL     1      40.936  -9.939   1.041  1.00  0.00     0.157 HD
HETATM   36  H   UNL     1      42.609 -10.271   1.360  1.00  0.00     0.157 HD
ENDBRANCH   6  34
TORSDOF 8
ENDMDL
MODEL 5
REMARK VINA RESULT:      -8.4      3.830      5.017
REMARK  8 active torsions:
REMARK  status: ('A' for Active; 'I' for Inactive)
REMARK    1  A    between atoms: C_3  and  N_4 
REMARK    2  A    between atoms: C_5  and  S_6 
REMARK    3  A    between atoms: S_6  and  C_7 
REMARK    4  A    between atoms: C_7  and  C_8 
REMARK       I    between atoms: C_8  and  N_9 
REMARK    5  A    between atoms: N_9  and  C_10 
REMARK    6  A    between atoms: C_10  and  C_11 
REMARK    7  A    between atoms: C_11  and  C_12 
REMARK    8  A    between atoms: C_22  and  N_23 
ROOT
HETATM    1  N   UNL     1      41.912 -14.279   0.626  1.00  0.00    -0.275 N 
HETATM    2  C   UNL     1      42.292 -13.199   1.465  1.00  0.00     0.177 A 
HETATM    3  N   UNL     1      42.432 -11.949   1.095  1.00  0.00    -0.204 NA
HETATM    4  C   UNL     1      42.124 -11.730  -0.203  1.00  0.00     0.162 A 
HETATM    5  C   UNL     1      41.722 -12.619  -1.162  1.00  0.00     0.081 A 
HETATM    6  C   UNL     1      41.606 -13.991  -0.766  1.00  0.00     0.124 A 
HETATM    7  N   UNL     1      42.148 -10.519  -0.826  1.00  0.00    -0.260 N 
HETATM    8  H   UNL     1      42.392  -9.620  -0.425  1.00  0.00     0.191 HD
HETATM    9  N   UNL     1      41.794 -10.586  -2.129  1.00  0.00    -0.177 NA
HETATM   10  C   UNL     1      41.521 -11.883  -2.339  1.00  0.00     0.068 A 
HETATM   11  C   UNL     1      41.080 -12.327  -3.682  1.00  0.00     0.073 C 
ENDROOT
BRANCH   2  12
HETATM   12  S   UNL     1      42.680 -13.518   3.169  1.00  0.00    -0.082 SA
BRANCH  12  13
HETATM   13  C   UNL     1      41.131 -13.022   3.963  1.00  0.00     0.185 C 
BRANCH  13  14
HETATM   14  C   UNL     1      41.216 -13.040   5.485  1.00  0.00     0.227 C 
HETATM   15  N   UNL     1      41.051 -14.256   6.106  1.00  0.00    -0.360 N 
HETATM   16  H   UNL     1      41.067 -14.204   7.120  1.00  0.00     0.162 HD
HETATM   17  O   UNL     1      41.447 -12.048   6.178  1.00  0.00    -0.273 OA
BRANCH  15  18
HETATM   18  C   UNL     1      40.668 -15.500   5.460  1.00  0.00     0.127 C 
BRANCH  18  19
HETATM   19  C   UNL     1      40.745 -16.711   6.390  1.00  0.00     0.058 C 
BRANCH  19  20
HETATM   20  C   UNL     1      42.157 -17.239   6.465  1.00  0.00    -0.057 A 
HETATM   21  C   UNL     1      42.779 -17.436   7.705  1.00  0.00     0.007 A 
HETATM   22  C   UNL     1      44.102 -17.879   7.770  1.00  0.00     0.001 A 
HETATM   23  C   UNL     1      44.816 -18.122   6.598  1.00  0.00     0.000 A 
HETATM   24  C   UNL     1      44.207 -17.930   5.360  1.00  0.00     0.001 A 
HETATM   25  C   UNL     1      42.884 -17.491   5.292  1.00  0.00     0.007 A 
ENDBRANCH  19  20
ENDBRANCH  18  19
ENDBRANCH  15  18
ENDBRANCH  13  14
ENDBRANCH  12  13
ENDBRANCH   2  12
BRANCH   1  26
HETATM   26  C   UNL     1      41.770 -15.606   1.132  1.00  0.00     0.051 A 
HETATM   27  C   UNL     1      40.558 -16.066   1.692  1.00  0.00    -0.035 A 
HETATM   28  C   UNL     1      39.300 -15.239   1.698  1.00  0.00     0.050 C 
HETATM   29  C   UNL     1      40.499 -17.368   2.214  1.00  0.00     0.011 A 
HETATM   30  C   UNL     1      41.629 -18.189   2.224  1.00  0.00     0.024 A 
HETATM   31  C   UNL     1      42.825 -17.721   1.693  1.00  0.00     0.036 A 
HETATM   32  C   UNL     1      42.902 -16.442   1.146  1.00  0.00     0.054 A 
HETATM   33 CL   UNL     1      44.226 -18.717   1.731  1.00  0.00    -0.084 Cl
ENDBRANCH   1  26
BRANCH   6  34
HETATM   34  N   UNL     1      41.266 -14.928  -1.631  1.00  0.00    -0.384 N 
HETATM   35  H   UNL     1      41.134 -14.727  -2.611  1.00  0.00     0.157 HD
HETATM   36  H   UNL     1      41.141 -15.881  -1.315  1.00  0.00     0.157 HD
ENDBRANCH   6  34
TORSDOF 8
ENDMDL
MODEL 6
REMARK VINA RESULT:      -8.4      3.964      5.987
REMARK  8 active torsions:
REMARK  status: ('A' for Active; 'I' for Inactive)
REMARK    1  A    between atoms: C_3  and  N_4 
REMARK    2  A    between atoms: C_5  and  S_6 
REMARK    3  A    between atoms: S_6  and  C_7 
REMARK    4  A    between atoms: C_7  and  C_8 
REMARK       I    between atoms: C_8  and  N_9 
REMARK    5  A    between atoms: N_9  and  C_10 
REMARK    6  A    between atoms: C_10  and  C_11 
REMARK    7  A    between atoms: C_11  and  C_12 
REMARK    8  A    between atoms: C_22  and  N_23 
ROOT
HETATM    1  N   UNL     1      41.714 -14.052   1.646  1.00  0.00    -0.275 N 
HETATM    2  C   UNL     1      41.456 -15.327   1.076  1.00  0.00     0.177 A 
HETATM    3  N   UNL     1      41.396 -15.599  -0.205  1.00  0.00    -0.204 NA
HETATM    4  C   UNL     1      41.660 -14.537  -0.998  1.00  0.00     0.162 A 
HETATM    5  C   UNL     1      41.950 -13.245  -0.652  1.00  0.00     0.081 A 
HETATM    6  C   UNL     1      41.979 -12.940   0.747  1.00  0.00     0.124 A 
HETATM    7  N   UNL     1      41.701 -14.560  -2.359  1.00  0.00    -0.260 N 
HETATM    8  H   UNL     1      41.546 -15.354  -2.971  1.00  0.00     0.191 HD
HETATM    9  N   UNL     1      41.990 -13.356  -2.902  1.00  0.00    -0.177 NA
HETATM   10  C   UNL     1      42.153 -12.541  -1.848  1.00  0.00     0.068 A 
HETATM   11  C   UNL     1      42.498 -11.118  -2.074  1.00  0.00     0.073 C 
ENDROOT
BRANCH   2  12
HETATM   12  S   UNL     1      41.122 -16.704   2.146  1.00  0.00    -0.082 SA
BRANCH  12  13
HETATM   13  C   UNL     1      42.214 -17.957   1.429  1.00  0.00     0.185 C 
BRANCH  13  14
HETATM   14  C   UNL     1      43.689 -17.674   1.690  1.00  0.00     0.227 C 
HETATM   15  N   UNL     1      44.361 -18.557   2.503  1.00  0.00    -0.360 N 
HETATM   16  H   UNL     1      45.325 -18.296   2.683  1.00  0.00     0.162 HD
HETATM   17  O   UNL     1      44.311 -16.730   1.200  1.00  0.00    -0.273 OA
BRANCH  15  18
HETATM   18  C   UNL     1      43.767 -19.657   3.245  1.00  0.00     0.127 C 
BRANCH  18  19
HETATM   19  C   UNL     1      44.306 -19.783   4.670  1.00  0.00     0.058 C 
BRANCH  19  20
HETATM   20  C   UNL     1      43.707 -18.724   5.564  1.00  0.00    -0.057 A 
HETATM   21  C   UNL     1      44.389 -18.288   6.707  1.00  0.00     0.007 A 
HETATM   22  C   UNL     1      43.811 -17.343   7.558  1.00  0.00     0.001 A 
HETATM   23  C   UNL     1      42.546 -16.831   7.277  1.00  0.00     0.000 A 
HETATM   24  C   UNL     1      41.859 -17.257   6.143  1.00  0.00     0.001 A 
HETATM   25  C   UNL     1      42.436 -18.199   5.289  1.00  0.00     0.007 A 
ENDBRANCH  19  20
ENDBRANCH  18  19
ENDBRANCH  15  18
ENDBRANCH  13  14
ENDBRANCH  12  13
ENDBRANCH   2  12
BRANCH   1  26
HETATM   26  C   UNL     1      41.777 -13.863   3.059  1.00  0.00     0.051 A 
HETATM   27  C   UNL     1      40.672 -13.384   3.798  1.00  0.00    -0.035 A 
HETATM   28  C   UNL     1      39.321 -13.146   3.177  1.00  0.00     0.050 C 
HETATM   29  C   UNL     1      40.813 -13.177   5.179  1.00  0.00     0.011 A 
HETATM   30  C   UNL     1      42.037 -13.394   5.815  1.00  0.00     0.024 A 
HETATM   31  C   UNL     1      43.127 -13.841   5.078  1.00  0.00     0.036 A 
HETATM   32  C   UNL     1      43.004 -14.079   3.711  1.00  0.00     0.054 A 
HETATM   33 CL   UNL     1      44.643 -14.081   5.852  1.00  0.00    -0.084 Cl
ENDBRANCH   1  26
BRANCH   6  34
HETATM   34  N   UNL     1      42.206 -11.713   1.177  1.00  0.00    -0.384 N 
HETATM   35  H   UNL     1      42.732 -11.532   2.018  1.00  0.00     0.157 HD
HETATM   36  H   UNL     1      41.853 -10.924   0.651  1.00  0.00     0.157 HD
ENDBRANCH   6  34
TORSDOF 8
ENDMDL
MODEL 7
REMARK VINA RESULT:      -8.3      3.612      4.570
REMARK  8 active torsions:
REMARK  status: ('A' for Active; 'I' for Inactive)
REMARK    1  A    between atoms: C_3  and  N_4 
REMARK    2  A    between atoms: C_5  and  S_6 
REMARK    3  A    between atoms: S_6  and  C_7 
REMARK    4  A    between atoms: C_7  and  C_8 
REMARK       I    between atoms: C_8  and  N_9 
REMARK    5  A    between atoms: N_9  and  C_10 
REMARK    6  A    between atoms: C_10  and  C_11 
REMARK    7  A    between atoms: C_11  and  C_12 
REMARK    8  A    between atoms: C_22  and  N_23 
ROOT
HETATM    1  N   UNL     1      41.890 -15.349   1.427  1.00  0.00    -0.275 N 
HETATM    2  C   UNL     1      42.177 -13.971   1.610  1.00  0.00     0.177 A 
HETATM    3  N   UNL     1      42.003 -13.024   0.720  1.00  0.00    -0.204 NA
HETATM    4  C   UNL     1      41.454 -13.460  -0.436  1.00  0.00     0.162 A 
HETATM    5  C   UNL     1      41.088 -14.727  -0.799  1.00  0.00     0.081 A 
HETATM    6  C   UNL     1      41.313 -15.767   0.160  1.00  0.00     0.124 A 
HETATM    7  N   UNL     1      41.135 -12.676  -1.503  1.00  0.00    -0.260 N 
HETATM    8  H   UNL     1      41.256 -11.673  -1.593  1.00  0.00     0.191 HD
HETATM    9  N   UNL     1      40.597 -13.370  -2.530  1.00  0.00    -0.177 NA
HETATM   10  C   UNL     1      40.557 -14.639  -2.095  1.00  0.00     0.068 A 
HETATM   11  C   UNL     1      40.004 -15.694  -2.976  1.00  0.00     0.073 C 
ENDROOT
BRANCH   2  12
HETATM   12  S   UNL     1      42.889 -13.429   3.144  1.00  0.00    -0.082 SA
BRANCH  12  13
HETATM   13  C   UNL     1      41.416 -12.820   4.001  1.00  0.00     0.185 C 
BRANCH  13  14
HETATM   14  C   UNL     1      41.747 -12.077   5.290  1.00  0.00     0.227 C 
HETATM   15  N   UNL     1      42.345 -12.802   6.293  1.00  0.00    -0.360 N 
HETATM   16  H   UNL     1      42.499 -12.272   7.146  1.00  0.00     0.162 HD
HETATM   17  O   UNL     1      41.536 -10.877   5.471  1.00  0.00    -0.273 OA
BRANCH  15  18
HETATM   18  C   UNL     1      42.569 -14.238   6.294  1.00  0.00     0.127 C 
BRANCH  18  19
HETATM   19  C   UNL     1      44.041 -14.619   6.446  1.00  0.00     0.058 C 
BRANCH  19  20
HETATM   20  C   UNL     1      44.179 -16.065   6.859  1.00  0.00    -0.057 A 
HETATM   21  C   UNL     1      45.172 -16.876   6.295  1.00  0.00     0.007 A 
HETATM   22  C   UNL     1      45.267 -18.225   6.644  1.00  0.00     0.001 A 
HETATM   23  C   UNL     1      44.367 -18.775   7.554  1.00  0.00     0.000 A 
HETATM   24  C   UNL     1      43.376 -17.979   8.122  1.00  0.00     0.001 A 
HETATM   25  C   UNL     1      43.281 -16.629   7.778  1.00  0.00     0.007 A 
ENDBRANCH  19  20
ENDBRANCH  18  19
ENDBRANCH  15  18
ENDBRANCH  13  14
ENDBRANCH  12  13
ENDBRANCH   2  12
BRANCH   1  26
HETATM   26  C   UNL     1      42.099 -16.302   2.469  1.00  0.00     0.051 A 
HETATM   27  C   UNL     1      43.136 -17.259   2.409  1.00  0.00    -0.035 A 
HETATM   28  C   UNL     1      44.162 -17.277   1.307  1.00  0.00     0.050 C 
HETATM   29  C   UNL     1      43.259 -18.198   3.446  1.00  0.00     0.011 A 
HETATM   30  C   UNL     1      42.347 -18.222   4.503  1.00  0.00     0.024 A 
HETATM   31  C   UNL     1      41.314 -17.293   4.543  1.00  0.00     0.036 A 
HETATM   32  C   UNL     1      41.187 -16.335   3.539  1.00  0.00     0.054 A 
HETATM   33 CL   UNL     1      40.172 -17.339   5.827  1.00  0.00    -0.084 Cl
ENDBRANCH   1  26
BRANCH   6  34
HETATM   34  N   UNL     1      41.032 -17.027  -0.117  1.00  0.00    -0.384 N 
HETATM   35  H   UNL     1      41.136 -17.759   0.570  1.00  0.00     0.157 HD
HETATM   36  H   UNL     1      40.696 -17.275  -1.038  1.00  0.00     0.157 HD
ENDBRANCH   6  34
TORSDOF 8
ENDMDL
MODEL 8
REMARK VINA RESULT:      -8.2      3.122      7.252
REMARK  8 active torsions:
REMARK  status: ('A' for Active; 'I' for Inactive)
REMARK    1  A    between atoms: C_3  and  N_4 
REMARK    2  A    between atoms: C_5  and  S_6 
REMARK    3  A    between atoms: S_6  and  C_7 
REMARK    4  A    between atoms: C_7  and  C_8 
REMARK       I    between atoms: C_8  and  N_9 
REMARK    5  A    between atoms: N_9  and  C_10 
REMARK    6  A    between atoms: C_10  and  C_11 
REMARK    7  A    between atoms: C_11  and  C_12 
REMARK    8  A    between atoms: C_22  and  N_23 
ROOT
HETATM    1  N   UNL     1      41.648 -14.267   4.380  1.00  0.00    -0.275 N 
HETATM    2  C   UNL     1      41.062 -15.546   4.567  1.00  0.00     0.177 A 
HETATM    3  N   UNL     1      40.670 -16.360   3.616  1.00  0.00    -0.204 NA
HETATM    4  C   UNL     1      40.920 -15.897   2.370  1.00  0.00     0.162 A 
HETATM    5  C   UNL     1      41.488 -14.715   1.980  1.00  0.00     0.081 A 
HETATM    6  C   UNL     1      41.882 -13.811   3.019  1.00  0.00     0.124 A 
HETATM    7  N   UNL     1      40.648 -16.562   1.213  1.00  0.00    -0.260 N 
HETATM    8  H   UNL     1      40.230 -17.480   1.109  1.00  0.00     0.191 HD
HETATM    9  N   UNL     1      41.001 -15.869   0.108  1.00  0.00    -0.177 NA
HETATM   10  C   UNL     1      41.530 -14.729   0.578  1.00  0.00     0.068 A 
HETATM   11  C   UNL     1      42.044 -13.717  -0.374  1.00  0.00     0.073 C 
ENDROOT
BRANCH   2  12
HETATM   12  S   UNL     1      40.756 -16.129   6.217  1.00  0.00    -0.082 SA
BRANCH  12  13
HETATM   13  C   UNL     1      41.925 -17.507   6.307  1.00  0.00     0.185 C 
BRANCH  13  14
HETATM   14  C   UNL     1      43.207 -17.147   7.050  1.00  0.00     0.227 C 
HETATM   15  N   UNL     1      44.394 -17.370   6.392  1.00  0.00    -0.360 N 
HETATM   16  H   UNL     1      45.217 -17.159   6.948  1.00  0.00     0.162 HD
HETATM   17  O   UNL     1      43.239 -16.651   8.177  1.00  0.00    -0.273 OA
BRANCH  15  18
HETATM   18  C   UNL     1      44.550 -18.040   5.112  1.00  0.00     0.127 C 
BRANCH  18  19
HETATM   19  C   UNL     1      44.958 -19.507   5.245  1.00  0.00     0.058 C 
BRANCH  19  20
HETATM   20  C   UNL     1      44.585 -20.281   4.004  1.00  0.00    -0.057 A 
HETATM   21  C   UNL     1      43.957 -19.640   2.927  1.00  0.00     0.007 A 
HETATM   22  C   UNL     1      43.569 -20.367   1.800  1.00  0.00     0.001 A 
HETATM   23  C   UNL     1      43.800 -21.740   1.740  1.00  0.00     0.000 A 
HETATM   24  C   UNL     1      44.423 -22.387   2.804  1.00  0.00     0.001 A 
HETATM   25  C   UNL     1      44.815 -21.662   3.931  1.00  0.00     0.007 A 
ENDBRANCH  19  20
ENDBRANCH  18  19
ENDBRANCH  15  18
ENDBRANCH  13  14
ENDBRANCH  12  13
ENDBRANCH   2  12
BRANCH   1  26
HETATM   26  C   UNL     1      42.058 -13.463   5.486  1.00  0.00     0.051 A 
HETATM   27  C   UNL     1      41.281 -12.377   5.949  1.00  0.00    -0.035 A 
HETATM   28  C   UNL     1      39.920 -12.056   5.391  1.00  0.00     0.050 C 
HETATM   29  C   UNL     1      41.763 -11.598   7.013  1.00  0.00     0.011 A 
HETATM   30  C   UNL     1      43.011 -11.856   7.582  1.00  0.00     0.024 A 
HETATM   31  C   UNL     1      43.782 -12.910   7.105  1.00  0.00     0.036 A 
HETATM   32  C   UNL     1      43.313 -13.713   6.068  1.00  0.00     0.054 A 
HETATM   33 CL   UNL     1      45.332 -13.212   7.784  1.00  0.00    -0.084 Cl
ENDBRANCH   1  26
BRANCH   6  34
HETATM   34  N   UNL     1      42.399 -12.629   2.741  1.00  0.00    -0.384 N 
HETATM   35  H   UNL     1      41.929 -11.771   2.986  1.00  0.00     0.157 HD
HETATM   36  H   UNL     1      43.294 -12.571   2.275  1.00  0.00     0.157 HD
ENDBRANCH   6  34
TORSDOF 8
ENDMDL
MODEL 9
REMARK VINA RESULT:      -8.1      4.436      7.391
REMARK  8 active torsions:
REMARK  status: ('A' for Active; 'I' for Inactive)
REMARK    1  A    between atoms: C_3  and  N_4 
REMARK    2  A    between atoms: C_5  and  S_6 
REMARK    3  A    between atoms: S_6  and  C_7 
REMARK    4  A    between atoms: C_7  and  C_8 
REMARK       I    between atoms: C_8  and  N_9 
REMARK    5  A    between atoms: N_9  and  C_10 
REMARK    6  A    between atoms: C_10  and  C_11 
REMARK    7  A    between atoms: C_11  and  C_12 
REMARK    8  A    between atoms: C_22  and  N_23 
ROOT
HETATM    1  N   UNL     1      39.854 -12.961   2.558  1.00  0.00    -0.275 N 
HETATM    2  C   UNL     1      39.800 -14.251   3.147  1.00  0.00     0.177 A 
HETATM    3  N   UNL     1      39.746 -14.510   4.431  1.00  0.00    -0.204 NA
HETATM    4  C   UNL     1      39.691 -13.402   5.205  1.00  0.00     0.162 A 
HETATM    5  C   UNL     1      39.709 -12.084   4.838  1.00  0.00     0.081 A 
HETATM    6  C   UNL     1      39.805 -11.803   3.436  1.00  0.00     0.124 A 
HETATM    7  N   UNL     1      39.591 -13.393   6.563  1.00  0.00    -0.260 N 
HETATM    8  H   UNL     1      39.542 -14.192   7.186  1.00  0.00     0.191 HD
HETATM    9  N   UNL     1      39.553 -12.147   7.084  1.00  0.00    -0.177 NA
HETATM   10  C   UNL     1      39.617 -11.333   6.019  1.00  0.00     0.068 A 
HETATM   11  C   UNL     1      39.587  -9.866   6.219  1.00  0.00     0.073 C 
ENDROOT
BRANCH   2  12
HETATM   12  S   UNL     1      39.865 -15.686   2.102  1.00  0.00    -0.082 SA
BRANCH  12  13
HETATM   13  C   UNL     1      41.654 -15.931   1.979  1.00  0.00     0.185 C 
BRANCH  13  14
HETATM   14  C   UNL     1      42.098 -16.348   0.581  1.00  0.00     0.227 C 
HETATM   15  N   UNL     1      43.222 -17.135   0.492  1.00  0.00    -0.360 N 
HETATM   16  H   UNL     1      43.502 -17.343  -0.462  1.00  0.00     0.162 HD
HETATM   17  O   UNL     1      41.501 -16.049  -0.454  1.00  0.00    -0.273 OA
BRANCH  15  18
HETATM   18  C   UNL     1      44.105 -17.493   1.590  1.00  0.00     0.127 C 
BRANCH  18  19
HETATM   19  C   UNL     1      44.077 -18.984   1.924  1.00  0.00     0.058 C 
BRANCH  19  20
HETATM   20  C   UNL     1      44.090 -19.197   3.418  1.00  0.00    -0.057 A 
HETATM   21  C   UNL     1      44.596 -20.383   3.965  1.00  0.00     0.007 A 
HETATM   22  C   UNL     1      44.563 -20.598   5.344  1.00  0.00     0.001 A 
HETATM   23  C   UNL     1      44.018 -19.633   6.188  1.00  0.00     0.000 A 
HETATM   24  C   UNL     1      43.511 -18.449   5.656  1.00  0.00     0.001 A 
HETATM   25  C   UNL     1      43.547 -18.231   4.278  1.00  0.00     0.007 A 
ENDBRANCH  19  20
ENDBRANCH  18  19
ENDBRANCH  15  18
ENDBRANCH  13  14
ENDBRANCH  12  13
ENDBRANCH   2  12
BRANCH   1  26
HETATM   26  C   UNL     1      39.893 -12.785   1.142  1.00  0.00     0.051 A 
HETATM   27  C   UNL     1      38.724 -12.837   0.350  1.00  0.00    -0.035 A 
HETATM   28  C   UNL     1      37.346 -12.966   0.944  1.00  0.00     0.050 C 
HETATM   29  C   UNL     1      38.837 -12.702  -1.043  1.00  0.00     0.011 A 
HETATM   30  C   UNL     1      40.086 -12.565  -1.651  1.00  0.00     0.024 A 
HETATM   31  C   UNL     1      41.234 -12.539  -0.868  1.00  0.00     0.036 A 
HETATM   32  C   UNL     1      41.146 -12.645   0.518  1.00  0.00     0.054 A 
HETATM   33 CL   UNL     1      42.776 -12.400  -1.616  1.00  0.00    -0.084 Cl
ENDBRANCH   1  26
BRANCH   6  34
HETATM   34  N   UNL     1      39.873 -10.564   2.989  1.00  0.00    -0.384 N 
HETATM   35  H   UNL     1      39.071 -10.094   2.596  1.00  0.00     0.157 HD
HETATM   36  H   UNL     1      40.747 -10.058   3.043  1.00  0.00     0.157 HD
ENDBRANCH   6  34
TORSDOF 8
ENDMDL
MODEL 10
REMARK VINA RESULT:      -8.1      4.043      9.524
REMARK  8 active torsions:
REMARK  status: ('A' for Active; 'I' for Inactive)
REMARK    1  A    between atoms: C_3  and  N_4 
REMARK    2  A    between atoms: C_5  and  S_6 
REMARK    3  A    between atoms: S_6  and  C_7 
REMARK    4  A    between atoms: C_7  and  C_8 
REMARK       I    between atoms: C_8  and  N_9 
REMARK    5  A    between atoms: N_9  and  C_10 
REMARK    6  A    between atoms: C_10  and  C_11 
REMARK    7  A    between atoms: C_11  and  C_12 
REMARK    8  A    between atoms: C_22  and  N_23 
ROOT
HETATM    1  N   UNL     1      43.799 -17.903   4.375  1.00  0.00    -0.275 N 
HETATM    2  C   UNL     1      43.848 -17.824   2.959  1.00  0.00     0.177 A 
HETATM    3  N   UNL     1      44.156 -18.804   2.144  1.00  0.00    -0.204 NA
HETATM    4  C   UNL     1      44.390 -19.978   2.771  1.00  0.00     0.162 A 
HETATM    5  C   UNL     1      44.372 -20.267   4.109  1.00  0.00     0.081 A 
HETATM    6  C   UNL     1      44.072 -19.187   5.001  1.00  0.00     0.124 A 
HETATM    7  N   UNL     1      44.689 -21.156   2.156  1.00  0.00    -0.260 N 
HETATM    8  H   UNL     1      44.780 -21.329   1.161  1.00  0.00     0.191 HD
HETATM    9  N   UNL     1      44.874 -22.176   3.023  1.00  0.00    -0.177 NA
HETATM   10  C   UNL     1      44.670 -21.632   4.233  1.00  0.00     0.068 A 
HETATM   11  C   UNL     1      44.779 -22.481   5.442  1.00  0.00     0.073 C 
ENDROOT
BRANCH   2  12
HETATM   12  S   UNL     1      43.527 -16.269   2.164  1.00  0.00    -0.082 SA
BRANCH  12  13
HETATM   13  C   UNL     1      42.819 -16.833   0.597  1.00  0.00     0.185 C 
BRANCH  13  14
HETATM   14  C   UNL     1      41.298 -16.936   0.639  1.00  0.00     0.227 C 
HETATM   15  N   UNL     1      40.586 -15.830   0.237  1.00  0.00    -0.360 N 
HETATM   16  H   UNL     1      39.581 -15.934   0.331  1.00  0.00     0.162 HD
HETATM   17  O   UNL     1      40.681 -17.945   0.981  1.00  0.00    -0.273 OA
BRANCH  15  18
HETATM   18  C   UNL     1      41.142 -14.528  -0.094  1.00  0.00     0.127 C 
BRANCH  18  19
HETATM   19  C   UNL     1      41.326 -14.315  -1.596  1.00  0.00     0.058 C 
BRANCH  19  20
HETATM   20  C   UNL     1      40.087 -14.734  -2.350  1.00  0.00    -0.057 A 
HETATM   21  C   UNL     1      40.144 -15.762  -3.299  1.00  0.00     0.007 A 
HETATM   22  C   UNL     1      39.007 -16.115  -4.029  1.00  0.00     0.001 A 
HETATM   23  C   UNL     1      37.806 -15.440  -3.822  1.00  0.00     0.000 A 
HETATM   24  C   UNL     1      37.737 -14.416  -2.880  1.00  0.00     0.001 A 
HETATM   25  C   UNL     1      38.871 -14.064  -2.147  1.00  0.00     0.007 A 
ENDBRANCH  19  20
ENDBRANCH  18  19
ENDBRANCH  15  18
ENDBRANCH  13  14
ENDBRANCH  12  13
ENDBRANCH   2  12
BRANCH   1  26
HETATM   26  C   UNL     1      43.433 -16.779   5.175  1.00  0.00     0.051 A 
HETATM   27  C   UNL     1      42.083 -16.436   5.409  1.00  0.00    -0.035 A 
HETATM   28  C   UNL     1      40.935 -17.285   4.931  1.00  0.00     0.050 C 
HETATM   29  C   UNL     1      41.792 -15.290   6.167  1.00  0.00     0.011 A 
HETATM   30  C   UNL     1      42.814 -14.471   6.650  1.00  0.00     0.024 A 
HETATM   31  C   UNL     1      44.140 -14.801   6.395  1.00  0.00     0.036 A 
HETATM   32  C   UNL     1      44.455 -15.946   5.667  1.00  0.00     0.054 A 
HETATM   33 CL   UNL     1      45.400 -13.778   6.962  1.00  0.00    -0.084 Cl
ENDBRANCH   1  26
BRANCH   6  34
HETATM   34  N   UNL     1      44.074 -19.358   6.309  1.00  0.00    -0.384 N 
HETATM   35  H   UNL     1      43.551 -20.099   6.751  1.00  0.00     0.157 HD
HETATM   36  H   UNL     1      44.618 -18.738   6.895  1.00  0.00     0.157 HD
ENDBRANCH   6  34
TORSDOF 8
ENDMDL
