MODEL 1
REMARK VINA RESULT:      -9.1      0.000      0.000
REMARK  7 active torsions:
REMARK  status: ('A' for Active; 'I' for Inactive)
REMARK    1  A    between atoms: C_5  and  S_6 
REMARK    2  A    between atoms: S_6  and  C_7 
REMARK    3  A    between atoms: C_7  and  C_8 
REMARK       I    between atoms: C_8  and  N_9 
REMARK    4  A    between atoms: N_9  and  C_10 
REMARK    5  A    between atoms: C_10  and  C_11 
REMARK    6  A    between atoms: C_11  and  C_12 
REMARK    7  A    between atoms: C_26  and  O_27 
ROOT
HETATM    1  C   UNL     1      44.380 -20.373   3.095  1.00  0.00     0.052 C 
HETATM    2  C   UNL     1      43.697 -19.112   3.567  1.00  0.00    -0.013 A 
HETATM    3  C   UNL     1      44.096 -18.432   4.757  1.00  0.00     0.165 A 
HETATM    4  N   UNL     1      43.430 -17.281   5.183  1.00  0.00    -0.271 N 
HETATM    5  C   UNL     1      44.096 -16.937   6.348  1.00  0.00     0.197 A 
HETATM    6  N   UNL     1      45.073 -17.787   6.581  1.00  0.00    -0.122 NA
HETATM    7  N   UNL     1      45.072 -18.723   5.592  1.00  0.00    -0.128 NA
HETATM    8  C   UNL     1      42.351 -16.709   4.451  1.00  0.00     0.053 A 
HETATM    9  C   UNL     1      41.982 -17.374   3.268  1.00  0.00    -0.005 A 
HETATM   10  C   UNL     1      42.677 -18.599   2.854  1.00  0.00     0.024 A 
HETATM   11  C   UNL     1      41.669 -15.548   4.821  1.00  0.00     0.034 A 
HETATM   12  C   UNL     1      40.635 -15.047   4.015  1.00  0.00     0.039 A 
HETATM   13  C   UNL     1      40.274 -15.698   2.837  1.00  0.00     0.069 A 
HETATM   14  C   UNL     1      40.947 -16.865   2.473  1.00  0.00     0.050 A 
ENDROOT
BRANCH   5  15
HETATM   15  S   UNL     1      43.757 -15.612   7.408  1.00  0.00    -0.080 SA
BRANCH  15  16
HETATM   16  C   UNL     1      44.791 -14.304   6.695  1.00  0.00     0.185 C 
BRANCH  16  17
HETATM   17  C   UNL     1      45.200 -13.285   7.744  1.00  0.00     0.227 C 
HETATM   18  N   UNL     1      44.213 -12.978   8.657  1.00  0.00    -0.360 N 
HETATM   19  H   UNL     1      43.251 -13.124   8.344  1.00  0.00     0.162 HD
HETATM   20  O   UNL     1      46.331 -12.808   7.788  1.00  0.00    -0.273 OA
BRANCH  18  21
HETATM   21  C   UNL     1      44.436 -11.990   9.695  1.00  0.00     0.127 C 
BRANCH  21  22
HETATM   22  C   UNL     1      43.240 -11.052   9.844  1.00  0.00     0.058 C 
BRANCH  22  23
HETATM   23  C   UNL     1      42.901 -10.781  11.288  1.00  0.00    -0.057 A 
HETATM   24  C   UNL     1      41.740 -11.314  11.862  1.00  0.00     0.007 A 
HETATM   25  C   UNL     1      41.425 -11.046  13.196  1.00  0.00     0.001 A 
HETATM   26  C   UNL     1      42.267 -10.246  13.966  1.00  0.00     0.000 A 
HETATM   27  C   UNL     1      43.423  -9.710  13.404  1.00  0.00     0.001 A 
HETATM   28  C   UNL     1      43.738  -9.973  12.070  1.00  0.00     0.007 A 
ENDBRANCH  22  23
ENDBRANCH  21  22
ENDBRANCH  18  21
ENDBRANCH  16  17
ENDBRANCH  15  16
ENDBRANCH   5  15
BRANCH  13  29
HETATM   29  O   UNL     1      39.296 -15.306   1.967  1.00  0.00    -0.356 OA
HETATM   30  C   UNL     1      39.694 -14.485   0.877  1.00  0.00     0.210 C 
ENDBRANCH  13  29
TORSDOF 7
ENDMDL
MODEL 2
REMARK VINA RESULT:      -9.1      2.031      3.680
REMARK  7 active torsions:
REMARK  status: ('A' for Active; 'I' for Inactive)
REMARK    1  A    between atoms: C_5  and  S_6 
REMARK    2  A    between atoms: S_6  and  C_7 
REMARK    3  A    between atoms: C_7  and  C_8 
REMARK       I    between atoms: C_8  and  N_9 
REMARK    4  A    between atoms: N_9  and  C_10 
REMARK    5  A    between atoms: C_10  and  C_11 
REMARK    6  A    between atoms: C_11  and  C_12 
REMARK    7  A    between atoms: C_26  and  O_27 
ROOT
HETATM    1  C   UNL     1      40.778 -15.930   1.424  1.00  0.00     0.052 C 
HETATM    2  C   UNL     1      41.717 -16.480   2.470  1.00  0.00    -0.013 A 
HETATM    3  C   UNL     1      42.050 -15.749   3.651  1.00  0.00     0.165 A 
HETATM    4  N   UNL     1      42.941 -16.271   4.591  1.00  0.00    -0.271 N 
HETATM    5  C   UNL     1      43.004 -15.282   5.558  1.00  0.00     0.197 A 
HETATM    6  N   UNL     1      42.215 -14.280   5.237  1.00  0.00    -0.122 NA
HETATM    7  N   UNL     1      41.623 -14.566   4.045  1.00  0.00    -0.128 NA
HETATM    8  C   UNL     1      43.534 -17.558   4.446  1.00  0.00     0.053 A 
HETATM    9  C   UNL     1      43.180 -18.279   3.291  1.00  0.00    -0.005 A 
HETATM   10  C   UNL     1      42.265 -17.697   2.302  1.00  0.00     0.024 A 
HETATM   11  C   UNL     1      44.410 -18.135   5.367  1.00  0.00     0.034 A 
HETATM   12  C   UNL     1      44.921 -19.423   5.147  1.00  0.00     0.039 A 
HETATM   13  C   UNL     1      44.565 -20.144   4.009  1.00  0.00     0.069 A 
HETATM   14  C   UNL     1      43.699 -19.563   3.082  1.00  0.00     0.050 A 
ENDROOT
BRANCH   5  15
HETATM   15  S   UNL     1      43.958 -15.275   7.003  1.00  0.00    -0.080 SA
BRANCH  15  16
HETATM   16  C   UNL     1      44.872 -13.719   6.825  1.00  0.00     0.185 C 
BRANCH  16  17
HETATM   17  C   UNL     1      45.116 -13.062   8.172  1.00  0.00     0.227 C 
HETATM   18  N   UNL     1      43.972 -12.663   8.829  1.00  0.00    -0.360 N 
HETATM   19  H   UNL     1      43.158 -12.476   8.240  1.00  0.00     0.162 HD
HETATM   20  O   UNL     1      46.244 -12.935   8.644  1.00  0.00    -0.273 OA
BRANCH  18  21
HETATM   21  C   UNL     1      44.043 -11.982  10.107  1.00  0.00     0.127 C 
BRANCH  21  22
HETATM   22  C   UNL     1      42.849 -11.053  10.316  1.00  0.00     0.058 C 
BRANCH  22  23
HETATM   23  C   UNL     1      42.693 -10.635  11.757  1.00  0.00    -0.057 A 
HETATM   24  C   UNL     1      41.637 -11.128  12.534  1.00  0.00     0.007 A 
HETATM   25  C   UNL     1      41.490 -10.725  13.863  1.00  0.00     0.001 A 
HETATM   26  C   UNL     1      42.397  -9.829  14.426  1.00  0.00     0.000 A 
HETATM   27  C   UNL     1      43.449  -9.331  13.660  1.00  0.00     0.001 A 
HETATM   28  C   UNL     1      43.595  -9.730  12.331  1.00  0.00     0.007 A 
ENDBRANCH  22  23
ENDBRANCH  21  22
ENDBRANCH  18  21
ENDBRANCH  16  17
ENDBRANCH  15  16
ENDBRANCH   5  15
BRANCH  13  29
HETATM   29  O   UNL     1      44.985 -21.403   3.689  1.00  0.00    -0.356 OA
HETATM   30  C   UNL     1      44.335 -22.042   2.597  1.00  0.00     0.210 C 
ENDBRANCH  13  29
TORSDOF 7
ENDMDL
MODEL 3
REMARK VINA RESULT:      -9.0      3.968      8.863
REMARK  7 active torsions:
REMARK  status: ('A' for Active; 'I' for Inactive)
REMARK    1  A    between atoms: C_5  and  S_6 
REMARK    2  A    between atoms: S_6  and  C_7 
REMARK    3  A    between atoms: C_7  and  C_8 
REMARK       I    between atoms: C_8  and  N_9 
REMARK    4  A    between atoms: N_9  and  C_10 
REMARK    5  A    between atoms: C_10  and  C_11 
REMARK    6  A    between atoms: C_11  and  C_12 
REMARK    7  A    between atoms: C_26  and  O_27 
ROOT
HETATM    1  C   UNL     1      45.243 -13.246   7.424  1.00  0.00     0.052 C 
HETATM    2  C   UNL     1      44.346 -14.294   6.810  1.00  0.00    -0.013 A 
HETATM    3  C   UNL     1      43.182 -13.951   6.057  1.00  0.00     0.165 A 
HETATM    4  N   UNL     1      42.356 -14.941   5.522  1.00  0.00    -0.271 N 
HETATM    5  C   UNL     1      41.359 -14.220   4.886  1.00  0.00     0.197 A 
HETATM    6  N   UNL     1      41.581 -12.929   5.014  1.00  0.00    -0.122 NA
HETATM    7  N   UNL     1      42.714 -12.759   5.748  1.00  0.00    -0.128 NA
HETATM    8  C   UNL     1      42.639 -16.330   5.665  1.00  0.00     0.053 A 
HETATM    9  C   UNL     1      43.800 -16.655   6.389  1.00  0.00    -0.005 A 
HETATM   10  C   UNL     1      44.638 -15.598   6.968  1.00  0.00     0.024 A 
HETATM   11  C   UNL     1      41.860 -17.357   5.129  1.00  0.00     0.034 A 
HETATM   12  C   UNL     1      42.239 -18.697   5.303  1.00  0.00     0.039 A 
HETATM   13  C   UNL     1      43.394 -19.022   6.010  1.00  0.00     0.069 A 
HETATM   14  C   UNL     1      44.167 -17.997   6.556  1.00  0.00     0.050 A 
ENDROOT
BRANCH   5  15
HETATM   15  S   UNL     1      39.984 -14.838   4.035  1.00  0.00    -0.080 SA
BRANCH  15  16
HETATM   16  C   UNL     1      40.558 -14.760   2.316  1.00  0.00     0.185 C 
BRANCH  16  17
HETATM   17  C   UNL     1      41.263 -16.041   1.908  1.00  0.00     0.227 C 
HETATM   18  N   UNL     1      42.618 -15.903   1.689  1.00  0.00    -0.360 N 
HETATM   19  H   UNL     1      42.937 -14.966   1.434  1.00  0.00     0.162 HD
HETATM   20  O   UNL     1      40.672 -17.115   1.819  1.00  0.00    -0.273 OA
BRANCH  18  21
HETATM   21  C   UNL     1      43.423 -17.027   1.252  1.00  0.00     0.127 C 
BRANCH  21  22
HETATM   22  C   UNL     1      44.152 -17.683   2.423  1.00  0.00     0.058 C 
BRANCH  22  23
HETATM   23  C   UNL     1      44.075 -19.188   2.374  1.00  0.00    -0.057 A 
HETATM   24  C   UNL     1      45.101 -19.975   2.912  1.00  0.00     0.007 A 
HETATM   25  C   UNL     1      45.030 -21.368   2.851  1.00  0.00     0.001 A 
HETATM   26  C   UNL     1      43.933 -21.986   2.252  1.00  0.00     0.000 A 
HETATM   27  C   UNL     1      42.908 -21.213   1.712  1.00  0.00     0.001 A 
HETATM   28  C   UNL     1      42.979 -19.821   1.770  1.00  0.00     0.007 A 
ENDBRANCH  22  23
ENDBRANCH  21  22
ENDBRANCH  18  21
ENDBRANCH  16  17
ENDBRANCH  15  16
ENDBRANCH   5  15
BRANCH  13  29
HETATM   29  O   UNL     1      43.872 -20.282   6.237  1.00  0.00    -0.356 OA
HETATM   30  C   UNL     1      43.560 -20.873   7.493  1.00  0.00     0.210 C 
ENDBRANCH  13  29
TORSDOF 7
ENDMDL
MODEL 4
REMARK VINA RESULT:      -8.9      1.667      2.153
REMARK  7 active torsions:
REMARK  status: ('A' for Active; 'I' for Inactive)
REMARK    1  A    between atoms: C_5  and  S_6 
REMARK    2  A    between atoms: S_6  and  C_7 
REMARK    3  A    between atoms: C_7  and  C_8 
REMARK       I    between atoms: C_8  and  N_9 
REMARK    4  A    between atoms: N_9  and  C_10 
REMARK    5  A    between atoms: C_10  and  C_11 
REMARK    6  A    between atoms: C_11  and  C_12 
REMARK    7  A    between atoms: C_26  and  O_27 
ROOT
HETATM    1  C   UNL     1      44.773 -21.115   2.333  1.00  0.00     0.052 C 
HETATM    2  C   UNL     1      43.927 -19.936   2.750  1.00  0.00    -0.013 A 
HETATM    3  C   UNL     1      43.744 -19.579   4.120  1.00  0.00     0.165 A 
HETATM    4  N   UNL     1      42.935 -18.498   4.478  1.00  0.00    -0.271 N 
HETATM    5  C   UNL     1      43.008 -18.486   5.861  1.00  0.00     0.197 A 
HETATM    6  N   UNL     1      43.797 -19.451   6.283  1.00  0.00    -0.122 NA
HETATM    7  N   UNL     1      44.253 -20.137   5.199  1.00  0.00    -0.128 NA
HETATM    8  C   UNL     1      42.283 -17.681   3.511  1.00  0.00     0.053 A 
HETATM    9  C   UNL     1      42.490 -18.027   2.164  1.00  0.00    -0.005 A 
HETATM   10  C   UNL     1      43.319 -19.186   1.812  1.00  0.00     0.024 A 
HETATM   11  C   UNL     1      41.485 -16.576   3.816  1.00  0.00     0.034 A 
HETATM   12  C   UNL     1      40.907 -15.816   2.788  1.00  0.00     0.039 A 
HETATM   13  C   UNL     1      41.118 -16.150   1.452  1.00  0.00     0.069 A 
HETATM   14  C   UNL     1      41.905 -17.261   1.147  1.00  0.00     0.050 A 
ENDROOT
BRANCH   5  15
HETATM   15  S   UNL     1      42.208 -17.407   6.953  1.00  0.00    -0.080 SA
BRANCH  15  16
HETATM   16  C   UNL     1      43.617 -16.640   7.800  1.00  0.00     0.185 C 
BRANCH  16  17
HETATM   17  C   UNL     1      43.954 -15.286   7.201  1.00  0.00     0.227 C 
HETATM   18  N   UNL     1      44.324 -14.330   8.123  1.00  0.00    -0.360 N 
HETATM   19  H   UNL     1      43.976 -14.465   9.074  1.00  0.00     0.162 HD
HETATM   20  O   UNL     1      43.929 -15.082   5.989  1.00  0.00    -0.273 OA
BRANCH  18  21
HETATM   21  C   UNL     1      44.634 -12.975   7.709  1.00  0.00     0.127 C 
BRANCH  21  22
HETATM   22  C   UNL     1      45.373 -12.209   8.805  1.00  0.00     0.058 C 
BRANCH  22  23
HETATM   23  C   UNL     1      44.441 -11.383   9.655  1.00  0.00    -0.057 A 
HETATM   24  C   UNL     1      43.193 -10.981   9.162  1.00  0.00     0.007 A 
HETATM   25  C   UNL     1      42.340 -10.203   9.949  1.00  0.00     0.001 A 
HETATM   26  C   UNL     1      42.727  -9.822  11.233  1.00  0.00     0.000 A 
HETATM   27  C   UNL     1      43.968 -10.215  11.731  1.00  0.00     0.001 A 
HETATM   28  C   UNL     1      44.822 -10.990  10.945  1.00  0.00     0.007 A 
ENDBRANCH  22  23
ENDBRANCH  21  22
ENDBRANCH  18  21
ENDBRANCH  16  17
ENDBRANCH  15  16
ENDBRANCH   5  15
BRANCH  13  29
HETATM   29  O   UNL     1      40.620 -15.486   0.367  1.00  0.00    -0.356 OA
HETATM   30  C   UNL     1      41.216 -15.771  -0.893  1.00  0.00     0.210 C 
ENDBRANCH  13  29
TORSDOF 7
ENDMDL
MODEL 5
REMARK VINA RESULT:      -8.5      4.840     10.023
REMARK  7 active torsions:
REMARK  status: ('A' for Active; 'I' for Inactive)
REMARK    1  A    between atoms: C_5  and  S_6 
REMARK    2  A    between atoms: S_6  and  C_7 
REMARK    3  A    between atoms: C_7  and  C_8 
REMARK       I    between atoms: C_8  and  N_9 
REMARK    4  A    between atoms: N_9  and  C_10 
REMARK    5  A    between atoms: C_10  and  C_11 
REMARK    6  A    between atoms: C_11  and  C_12 
REMARK    7  A    between atoms: C_26  and  O_27 
ROOT
HETATM    1  C   UNL     1      43.493 -16.578   7.668  1.00  0.00     0.052 C 
HETATM    2  C   UNL     1      43.227 -17.065   6.264  1.00  0.00    -0.013 A 
HETATM    3  C   UNL     1      42.339 -16.383   5.378  1.00  0.00     0.165 A 
HETATM    4  N   UNL     1      42.092 -16.871   4.093  1.00  0.00    -0.271 N 
HETATM    5  C   UNL     1      41.195 -15.955   3.569  1.00  0.00     0.197 A 
HETATM    6  N   UNL     1      40.947 -15.007   4.447  1.00  0.00    -0.122 NA
HETATM    7  N   UNL     1      41.656 -15.274   5.578  1.00  0.00    -0.128 NA
HETATM    8  C   UNL     1      42.727 -18.040   3.587  1.00  0.00     0.053 A 
HETATM    9  C   UNL     1      43.618 -18.690   4.459  1.00  0.00    -0.005 A 
HETATM   10  C   UNL     1      43.840 -18.177   5.816  1.00  0.00     0.024 A 
HETATM   11  C   UNL     1      42.534 -18.554   2.303  1.00  0.00     0.034 A 
HETATM   12  C   UNL     1      43.230 -19.700   1.887  1.00  0.00     0.039 A 
HETATM   13  C   UNL     1      44.121 -20.340   2.745  1.00  0.00     0.069 A 
HETATM   14  C   UNL     1      44.305 -19.834   4.033  1.00  0.00     0.050 A 
ENDROOT
BRANCH   5  15
HETATM   15  S   UNL     1      40.450 -15.980   2.006  1.00  0.00    -0.080 SA
BRANCH  15  16
HETATM   16  C   UNL     1      41.786 -15.340   0.959  1.00  0.00     0.185 C 
BRANCH  16  17
HETATM   17  C   UNL     1      41.283 -14.262   0.016  1.00  0.00     0.227 C 
HETATM   18  N   UNL     1      42.063 -14.075  -1.106  1.00  0.00    -0.360 N 
HETATM   19  H   UNL     1      43.043 -14.351  -1.023  1.00  0.00     0.162 HD
HETATM   20  O   UNL     1      40.245 -13.638   0.227  1.00  0.00    -0.273 OA
BRANCH  18  21
HETATM   21  C   UNL     1      41.736 -13.052  -2.081  1.00  0.00     0.127 C 
BRANCH  21  22
HETATM   22  C   UNL     1      41.426 -13.659  -3.448  1.00  0.00     0.058 C 
BRANCH  22  23
HETATM   23  C   UNL     1      40.001 -14.143  -3.550  1.00  0.00    -0.057 A 
HETATM   24  C   UNL     1      38.931 -13.270  -3.316  1.00  0.00     0.007 A 
HETATM   25  C   UNL     1      37.615 -13.728  -3.398  1.00  0.00     0.001 A 
HETATM   26  C   UNL     1      37.357 -15.061  -3.713  1.00  0.00     0.000 A 
HETATM   27  C   UNL     1      38.414 -15.938  -3.945  1.00  0.00     0.001 A 
HETATM   28  C   UNL     1      39.730 -15.482  -3.862  1.00  0.00     0.007 A 
ENDBRANCH  22  23
ENDBRANCH  21  22
ENDBRANCH  18  21
ENDBRANCH  16  17
ENDBRANCH  15  16
ENDBRANCH   5  15
BRANCH  13  29
HETATM   29  O   UNL     1      44.861 -21.451   2.456  1.00  0.00    -0.356 OA
HETATM   30  C   UNL     1      44.646 -22.599   3.268  1.00  0.00     0.210 C 
ENDBRANCH  13  29
TORSDOF 7
ENDMDL
MODEL 6
REMARK VINA RESULT:      -8.4      4.960      9.562
REMARK  7 active torsions:
REMARK  status: ('A' for Active; 'I' for Inactive)
REMARK    1  A    between atoms: C_5  and  S_6 
REMARK    2  A    between atoms: S_6  and  C_7 
REMARK    3  A    between atoms: C_7  and  C_8 
REMARK       I    between atoms: C_8  and  N_9 
REMARK    4  A    between atoms: N_9  and  C_10 
REMARK    5  A    between atoms: C_10  and  C_11 
REMARK    6  A    between atoms: C_11  and  C_12 
REMARK    7  A    between atoms: C_26  and  O_27 
ROOT
HETATM    1  C   UNL     1      43.642 -16.416   7.295  1.00  0.00     0.052 C 
HETATM    2  C   UNL     1      43.426 -17.010   5.924  1.00  0.00    -0.013 A 
HETATM    3  C   UNL     1      42.694 -16.326   4.906  1.00  0.00     0.165 A 
HETATM    4  N   UNL     1      42.488 -16.911   3.655  1.00  0.00    -0.271 N 
HETATM    5  C   UNL     1      41.747 -15.959   2.974  1.00  0.00     0.197 A 
HETATM    6  N   UNL     1      41.548 -14.906   3.737  1.00  0.00    -0.122 NA
HETATM    7  N   UNL     1      42.133 -15.135   4.945  1.00  0.00    -0.128 NA
HETATM    8  C   UNL     1      43.017 -18.188   3.314  1.00  0.00     0.053 A 
HETATM    9  C   UNL     1      43.757 -18.842   4.315  1.00  0.00    -0.005 A 
HETATM   10  C   UNL     1      43.935 -18.222   5.634  1.00  0.00     0.024 A 
HETATM   11  C   UNL     1      42.861 -18.804   2.070  1.00  0.00     0.034 A 
HETATM   12  C   UNL     1      43.446 -20.056   1.822  1.00  0.00     0.039 A 
HETATM   13  C   UNL     1      44.188 -20.701   2.809  1.00  0.00     0.069 A 
HETATM   14  C   UNL     1      44.335 -20.091   4.056  1.00  0.00     0.050 A 
ENDROOT
BRANCH   5  15
HETATM   15  S   UNL     1      41.125 -16.059   1.362  1.00  0.00    -0.080 SA
BRANCH  15  16
HETATM   16  C   UNL     1      39.970 -14.660   1.333  1.00  0.00     0.185 C 
BRANCH  16  17
HETATM   17  C   UNL     1      39.829 -14.086  -0.065  1.00  0.00     0.227 C 
HETATM   18  N   UNL     1      40.235 -14.933  -1.075  1.00  0.00    -0.360 N 
HETATM   19  H   UNL     1      40.920 -15.646  -0.814  1.00  0.00     0.162 HD
HETATM   20  O   UNL     1      39.357 -12.970  -0.271  1.00  0.00    -0.273 OA
BRANCH  18  21
HETATM   21  C   UNL     1      40.202 -14.513  -2.462  1.00  0.00     0.127 C 
BRANCH  21  22
HETATM   22  C   UNL     1      41.608 -14.282  -3.013  1.00  0.00     0.058 C 
BRANCH  22  23
HETATM   23  C   UNL     1      42.046 -12.845  -2.882  1.00  0.00    -0.057 A 
HETATM   24  C   UNL     1      41.821 -11.932  -3.920  1.00  0.00     0.007 A 
HETATM   25  C   UNL     1      42.243 -10.606  -3.798  1.00  0.00     0.001 A 
HETATM   26  C   UNL     1      42.891 -10.183  -2.639  1.00  0.00     0.000 A 
HETATM   27  C   UNL     1      43.122 -11.084  -1.602  1.00  0.00     0.001 A 
HETATM   28  C   UNL     1      42.704 -12.410  -1.723  1.00  0.00     0.007 A 
ENDBRANCH  22  23
ENDBRANCH  21  22
ENDBRANCH  18  21
ENDBRANCH  16  17
ENDBRANCH  15  16
ENDBRANCH   5  15
BRANCH  13  29
HETATM   29  O   UNL     1      44.812 -21.911   2.687  1.00  0.00    -0.356 OA
HETATM   30  C   UNL     1      44.712 -22.802   3.791  1.00  0.00     0.210 C 
ENDBRANCH  13  29
TORSDOF 7
ENDMDL
MODEL 7
REMARK VINA RESULT:      -8.4      2.815      8.594
REMARK  7 active torsions:
REMARK  status: ('A' for Active; 'I' for Inactive)
REMARK    1  A    between atoms: C_5  and  S_6 
REMARK    2  A    between atoms: S_6  and  C_7 
REMARK    3  A    between atoms: C_7  and  C_8 
REMARK       I    between atoms: C_8  and  N_9 
REMARK    4  A    between atoms: N_9  and  C_10 
REMARK    5  A    between atoms: C_10  and  C_11 
REMARK    6  A    between atoms: C_11  and  C_12 
REMARK    7  A    between atoms: C_26  and  O_27 
ROOT
HETATM    1  C   UNL     1      43.550 -19.375   6.979  1.00  0.00     0.052 C 
HETATM    2  C   UNL     1      43.323 -17.920   6.649  1.00  0.00    -0.013 A 
HETATM    3  C   UNL     1      42.417 -17.505   5.626  1.00  0.00     0.165 A 
HETATM    4  N   UNL     1      42.245 -16.153   5.325  1.00  0.00    -0.271 N 
HETATM    5  C   UNL     1      41.314 -16.167   4.299  1.00  0.00     0.197 A 
HETATM    6  N   UNL     1      40.953 -17.403   4.031  1.00  0.00    -0.122 NA
HETATM    7  N   UNL     1      41.644 -18.240   4.853  1.00  0.00    -0.128 NA
HETATM    8  C   UNL     1      42.928 -15.122   6.031  1.00  0.00     0.053 A 
HETATM    9  C   UNL     1      43.800 -15.541   7.052  1.00  0.00    -0.005 A 
HETATM   10  C   UNL     1      43.988 -16.969   7.332  1.00  0.00     0.024 A 
HETATM   11  C   UNL     1      42.773 -13.756   5.785  1.00  0.00     0.034 A 
HETATM   12  C   UNL     1      43.472 -12.814   6.557  1.00  0.00     0.039 A 
HETATM   13  C   UNL     1      44.328 -13.226   7.575  1.00  0.00     0.069 A 
HETATM   14  C   UNL     1      44.493 -14.591   7.814  1.00  0.00     0.050 A 
ENDROOT
BRANCH   5  15
HETATM   15  S   UNL     1      40.672 -14.812   3.435  1.00  0.00    -0.080 SA
BRANCH  15  16
HETATM   16  C   UNL     1      42.066 -14.375   2.360  1.00  0.00     0.185 C 
BRANCH  16  17
HETATM   17  C   UNL     1      42.501 -15.555   1.509  1.00  0.00     0.227 C 
HETATM   18  N   UNL     1      43.504 -16.320   2.065  1.00  0.00    -0.360 N 
HETATM   19  H   UNL     1      44.107 -15.848   2.741  1.00  0.00     0.162 HD
HETATM   20  O   UNL     1      41.971 -15.816   0.432  1.00  0.00    -0.273 OA
BRANCH  18  21
HETATM   21  C   UNL     1      44.057 -17.457   1.354  1.00  0.00     0.127 C 
BRANCH  21  22
HETATM   22  C   UNL     1      43.136 -18.673   1.438  1.00  0.00     0.058 C 
BRANCH  22  23
HETATM   23  C   UNL     1      43.760 -19.812   2.204  1.00  0.00    -0.057 A 
HETATM   24  C   UNL     1      43.617 -21.134   1.762  1.00  0.00     0.007 A 
HETATM   25  C   UNL     1      44.185 -22.185   2.485  1.00  0.00     0.001 A 
HETATM   26  C   UNL     1      44.899 -21.925   3.653  1.00  0.00     0.000 A 
HETATM   27  C   UNL     1      45.045 -20.614   4.102  1.00  0.00     0.001 A 
HETATM   28  C   UNL     1      44.476 -19.562   3.383  1.00  0.00     0.007 A 
ENDBRANCH  22  23
ENDBRANCH  21  22
ENDBRANCH  18  21
ENDBRANCH  16  17
ENDBRANCH  15  16
ENDBRANCH   5  15
BRANCH  13  29
HETATM   29  O   UNL     1      45.053 -12.410   8.397  1.00  0.00    -0.356 OA
HETATM   30  C   UNL     1      44.321 -11.537   9.249  1.00  0.00     0.210 C 
ENDBRANCH  13  29
TORSDOF 7
ENDMDL
MODEL 8
REMARK VINA RESULT:      -8.3      3.873      9.721
REMARK  7 active torsions:
REMARK  status: ('A' for Active; 'I' for Inactive)
REMARK    1  A    between atoms: C_5  and  S_6 
REMARK    2  A    between atoms: S_6  and  C_7 
REMARK    3  A    between atoms: C_7  and  C_8 
REMARK       I    between atoms: C_8  and  N_9 
REMARK    4  A    between atoms: N_9  and  C_10 
REMARK    5  A    between atoms: C_10  and  C_11 
REMARK    6  A    between atoms: C_11  and  C_12 
REMARK    7  A    between atoms: C_26  and  O_27 
ROOT
HETATM    1  C   UNL     1      45.912 -11.237  10.626  1.00  0.00     0.052 C 
HETATM    2  C   UNL     1      44.491 -10.780  10.850  1.00  0.00    -0.013 A 
HETATM    3  C   UNL     1      43.526 -10.756   9.798  1.00  0.00     0.165 A 
HETATM    4  N   UNL     1      42.225 -10.305  10.028  1.00  0.00    -0.271 N 
HETATM    5  C   UNL     1      41.618 -10.429   8.789  1.00  0.00     0.197 A 
HETATM    6  N   UNL     1      42.467 -10.923   7.914  1.00  0.00    -0.122 NA
HETATM    7  N   UNL     1      43.659 -11.123   8.540  1.00  0.00    -0.128 NA
HETATM    8  C   UNL     1      41.781  -9.879  11.312  1.00  0.00     0.053 A 
HETATM    9  C   UNL     1      42.733  -9.929  12.346  1.00  0.00    -0.005 A 
HETATM   10  C   UNL     1      44.104 -10.379  12.075  1.00  0.00     0.024 A 
HETATM   11  C   UNL     1      40.486  -9.442  11.600  1.00  0.00     0.034 A 
HETATM   12  C   UNL     1      40.139  -9.069  12.907  1.00  0.00     0.039 A 
HETATM   13  C   UNL     1      41.077  -9.127  13.935  1.00  0.00     0.069 A 
HETATM   14  C   UNL     1      42.375  -9.551  13.647  1.00  0.00     0.050 A 
ENDROOT
BRANCH   5  15
HETATM   15  S   UNL     1      39.993 -10.011   8.361  1.00  0.00    -0.080 SA
BRANCH  15  16
HETATM   16  C   UNL     1      39.214 -11.646   8.262  1.00  0.00     0.185 C 
BRANCH  16  17
HETATM   17  C   UNL     1      39.266 -12.201   6.849  1.00  0.00     0.227 C 
HETATM   18  N   UNL     1      39.728 -13.497   6.761  1.00  0.00    -0.360 N 
HETATM   19  H   UNL     1      40.333 -13.811   7.522  1.00  0.00     0.162 HD
HETATM   20  O   UNL     1      38.892 -11.550   5.876  1.00  0.00    -0.273 OA
BRANCH  18  21
HETATM   21  C   UNL     1      39.876 -14.151   5.476  1.00  0.00     0.127 C 
BRANCH  21  22
HETATM   22  C   UNL     1      41.341 -14.221   5.047  1.00  0.00     0.058 C 
BRANCH  22  23
HETATM   23  C   UNL     1      42.148 -15.153   5.915  1.00  0.00    -0.057 A 
HETATM   24  C   UNL     1      43.451 -14.818   6.304  1.00  0.00     0.007 A 
HETATM   25  C   UNL     1      44.198 -15.693   7.096  1.00  0.00     0.001 A 
HETATM   26  C   UNL     1      43.650 -16.908   7.505  1.00  0.00     0.000 A 
HETATM   27  C   UNL     1      42.355 -17.251   7.120  1.00  0.00     0.001 A 
HETATM   28  C   UNL     1      41.608 -16.380   6.327  1.00  0.00     0.007 A 
ENDBRANCH  22  23
ENDBRANCH  21  22
ENDBRANCH  18  21
ENDBRANCH  16  17
ENDBRANCH  15  16
ENDBRANCH   5  15
BRANCH  13  29
HETATM   29  O   UNL     1      40.859  -8.801  15.244  1.00  0.00    -0.356 OA
HETATM   30  C   UNL     1      41.962  -8.928  16.133  1.00  0.00     0.210 C 
ENDBRANCH  13  29
TORSDOF 7
ENDMDL
MODEL 9
REMARK VINA RESULT:      -8.1      5.593      9.175
REMARK  7 active torsions:
REMARK  status: ('A' for Active; 'I' for Inactive)
REMARK    1  A    between atoms: C_5  and  S_6 
REMARK    2  A    between atoms: S_6  and  C_7 
REMARK    3  A    between atoms: C_7  and  C_8 
REMARK       I    between atoms: C_8  and  N_9 
REMARK    4  A    between atoms: N_9  and  C_10 
REMARK    5  A    between atoms: C_10  and  C_11 
REMARK    6  A    between atoms: C_11  and  C_12 
REMARK    7  A    between atoms: C_26  and  O_27 
ROOT
HETATM    1  C   UNL     1      40.231 -15.737  -3.502  1.00  0.00     0.052 C 
HETATM    2  C   UNL     1      40.839 -14.643  -2.658  1.00  0.00    -0.013 A 
HETATM    3  C   UNL     1      41.131 -14.826  -1.273  1.00  0.00     0.165 A 
HETATM    4  N   UNL     1      41.671 -13.789  -0.510  1.00  0.00    -0.271 N 
HETATM    5  C   UNL     1      41.797 -14.348   0.751  1.00  0.00     0.197 A 
HETATM    6  N   UNL     1      41.390 -15.599   0.736  1.00  0.00    -0.122 NA
HETATM    7  N   UNL     1      40.969 -15.898  -0.524  1.00  0.00    -0.128 NA
HETATM    8  C   UNL     1      41.989 -12.518  -1.068  1.00  0.00     0.053 A 
HETATM    9  C   UNL     1      41.720 -12.357  -2.440  1.00  0.00    -0.005 A 
HETATM   10  C   UNL     1      41.124 -13.452  -3.215  1.00  0.00     0.024 A 
HETATM   11  C   UNL     1      42.553 -11.457  -0.356  1.00  0.00     0.034 A 
HETATM   12  C   UNL     1      42.856 -10.251  -1.005  1.00  0.00     0.039 A 
HETATM   13  C   UNL     1      42.600 -10.092  -2.364  1.00  0.00     0.069 A 
HETATM   14  C   UNL     1      42.026 -11.147  -3.075  1.00  0.00     0.050 A 
ENDROOT
BRANCH   5  15
HETATM   15  S   UNL     1      42.381 -13.587   2.192  1.00  0.00    -0.080 SA
BRANCH  15  16
HETATM   16  C   UNL     1      41.131 -14.099   3.403  1.00  0.00     0.185 C 
BRANCH  16  17
HETATM   17  C   UNL     1      41.652 -15.207   4.302  1.00  0.00     0.227 C 
HETATM   18  N   UNL     1      41.671 -16.456   3.717  1.00  0.00    -0.360 N 
HETATM   19  H   UNL     1      41.013 -16.602   2.950  1.00  0.00     0.162 HD
HETATM   20  O   UNL     1      42.053 -14.991   5.443  1.00  0.00    -0.273 OA
BRANCH  18  21
HETATM   21  C   UNL     1      42.102 -17.623   4.462  1.00  0.00     0.127 C 
BRANCH  21  22
HETATM   22  C   UNL     1      43.591 -17.899   4.261  1.00  0.00     0.058 C 
BRANCH  22  23
HETATM   23  C   UNL     1      43.844 -19.246   3.633  1.00  0.00    -0.057 A 
HETATM   24  C   UNL     1      43.329 -19.552   2.366  1.00  0.00     0.007 A 
HETATM   25  C   UNL     1      43.555 -20.807   1.797  1.00  0.00     0.001 A 
HETATM   26  C   UNL     1      44.297 -21.765   2.487  1.00  0.00     0.000 A 
HETATM   27  C   UNL     1      44.811 -21.471   3.748  1.00  0.00     0.001 A 
HETATM   28  C   UNL     1      44.584 -20.219   4.320  1.00  0.00     0.007 A 
ENDBRANCH  22  23
ENDBRANCH  21  22
ENDBRANCH  18  21
ENDBRANCH  16  17
ENDBRANCH  15  16
ENDBRANCH   5  15
BRANCH  13  29
HETATM   29  O   UNL     1      42.858  -8.975  -3.108  1.00  0.00    -0.356 OA
HETATM   30  C   UNL     1      41.737  -8.292  -3.657  1.00  0.00     0.210 C 
ENDBRANCH  13  29
TORSDOF 7
ENDMDL
MODEL 10
REMARK VINA RESULT:      -8.0      5.571      9.626
REMARK  7 active torsions:
REMARK  status: ('A' for Active; 'I' for Inactive)
REMARK    1  A    between atoms: C_5  and  S_6 
REMARK    2  A    between atoms: S_6  and  C_7 
REMARK    3  A    between atoms: C_7  and  C_8 
REMARK       I    between atoms: C_8  and  N_9 
REMARK    4  A    between atoms: N_9  and  C_10 
REMARK    5  A    between atoms: C_10  and  C_11 
REMARK    6  A    between atoms: C_11  and  C_12 
REMARK    7  A    between atoms: C_26  and  O_27 
ROOT
HETATM    1  C   UNL     1      40.624 -16.144   6.424  1.00  0.00     0.052 C 
HETATM    2  C   UNL     1      41.268 -16.763   5.208  1.00  0.00    -0.013 A 
HETATM    3  C   UNL     1      41.029 -16.272   3.889  1.00  0.00     0.165 A 
HETATM    4  N   UNL     1      41.618 -16.880   2.779  1.00  0.00    -0.271 N 
HETATM    5  C   UNL     1      41.144 -16.133   1.713  1.00  0.00     0.197 A 
HETATM    6  N   UNL     1      40.366 -15.165   2.147  1.00  0.00    -0.122 NA
HETATM    7  N   UNL     1      40.289 -15.252   3.503  1.00  0.00    -0.128 NA
HETATM    8  C   UNL     1      42.505 -17.988   2.897  1.00  0.00     0.053 A 
HETATM    9  C   UNL     1      42.752 -18.449   4.203  1.00  0.00    -0.005 A 
HETATM   10  C   UNL     1      42.098 -17.813   5.353  1.00  0.00     0.024 A 
HETATM   11  C   UNL     1      43.138 -18.616   1.823  1.00  0.00     0.034 A 
HETATM   12  C   UNL     1      44.018 -19.686   2.047  1.00  0.00     0.039 A 
HETATM   13  C   UNL     1      44.273 -20.137   3.339  1.00  0.00     0.069 A 
HETATM   14  C   UNL     1      43.631 -19.519   4.413  1.00  0.00     0.050 A 
ENDROOT
BRANCH   5  15
HETATM   15  S   UNL     1      41.466 -16.370   0.029  1.00  0.00    -0.080 SA
BRANCH  15  16
HETATM   16  C   UNL     1      40.598 -14.958  -0.707  1.00  0.00     0.185 C 
BRANCH  16  17
HETATM   17  C   UNL     1      41.324 -14.441  -1.937  1.00  0.00     0.227 C 
HETATM   18  N   UNL     1      42.230 -13.433  -1.685  1.00  0.00    -0.360 N 
HETATM   19  H   UNL     1      42.060 -12.877  -0.845  1.00  0.00     0.162 HD
HETATM   20  O   UNL     1      41.137 -14.916  -3.055  1.00  0.00    -0.273 OA
BRANCH  18  21
HETATM   21  C   UNL     1      42.970 -12.807  -2.763  1.00  0.00     0.127 C 
BRANCH  21  22
HETATM   22  C   UNL     1      42.221 -11.605  -3.335  1.00  0.00     0.058 C 
BRANCH  22  23
HETATM   23  C   UNL     1      42.710 -10.299  -2.761  1.00  0.00    -0.057 A 
HETATM   24  C   UNL     1      43.501 -10.278  -1.605  1.00  0.00     0.007 A 
HETATM   25  C   UNL     1      43.939  -9.064  -1.071  1.00  0.00     0.001 A 
HETATM   26  C   UNL     1      43.590  -7.863  -1.686  1.00  0.00     0.000 A 
HETATM   27  C   UNL     1      42.802  -7.873  -2.835  1.00  0.00     0.001 A 
HETATM   28  C   UNL     1      42.361  -9.085  -3.369  1.00  0.00     0.007 A 
ENDBRANCH  22  23
ENDBRANCH  21  22
ENDBRANCH  18  21
ENDBRANCH  16  17
ENDBRANCH  15  16
ENDBRANCH   5  15
BRANCH  13  29
HETATM   29  O   UNL     1      45.112 -21.158   3.686  1.00  0.00    -0.356 OA
HETATM   30  C   UNL     1      45.033 -21.633   5.024  1.00  0.00     0.210 C 
ENDBRANCH  13  29
TORSDOF 7
ENDMDL
