MODEL 1
REMARK VINA RESULT:      -8.3      0.000      0.000
REMARK  6 active torsions:
REMARK  status: ('A' for Active; 'I' for Inactive)
REMARK    1  A    between atoms: C_2  and  O_3 
REMARK    2  A    between atoms: O_3  and  C_4 
REMARK    3  A    between atoms: C_8  and  C_9 
REMARK    4  A    between atoms: C_9  and  N_10 
REMARK       I    between atoms: N_10  and  C_11 
REMARK       I    between atoms: C_11  and  N_12 
REMARK    5  A    between atoms: N_12  and  C_13 
REMARK    6  A    between atoms: C_14  and  C_15 
ROOT
HETATM    1  N   UNL     1      44.317 -13.585   8.372  1.00  0.00    -0.339 N 
HETATM    2  C   UNL     1      44.446 -14.194   7.148  1.00  0.00     0.316 C 
HETATM    3  N   UNL     1      43.548 -15.224   6.998  1.00  0.00    -0.338 N 
HETATM    4  O   UNL     1      45.249 -13.845   6.292  1.00  0.00    -0.247 OA
HETATM    5  H   UNL     1      43.408 -13.654   8.804  1.00  0.00     0.164 HD
HETATM    6  H   UNL     1      43.235 -15.666   7.851  1.00  0.00     0.164 HD
ENDROOT
BRANCH   1   7
HETATM    7  C   UNL     1      45.097 -12.411   8.701  1.00  0.00     0.163 C 
BRANCH   7   8
HETATM    8  C   UNL     1      44.339 -11.461   9.590  1.00  0.00    -0.035 A 
HETATM    9  C   UNL     1      44.848 -11.077  10.834  1.00  0.00     0.028 A 
HETATM   10  C   UNL     1      44.107 -10.210  11.620  1.00  0.00     0.120 A 
HETATM   11  N   UNL     1      42.902  -9.717  11.265  1.00  0.00    -0.237 NA
HETATM   12  C   UNL     1      42.414 -10.111  10.076  1.00  0.00     0.165 A 
HETATM   13  C   UNL     1      43.095 -10.953   9.206  1.00  0.00     0.066 A 
BRANCH  12  14
HETATM   14  O   UNL     1      41.190  -9.659   9.638  1.00  0.00    -0.324 OA
BRANCH  14  15
HETATM   15  C   UNL     1      40.000 -10.401   9.971  1.00  0.00     0.058 C 
HETATM   16  C   UNL     1      40.185 -11.286  11.211  1.00  0.00     0.045 C 
HETATM   17  C   UNL     1      39.427 -11.181   8.777  1.00  0.00     0.045 C 
HETATM   18  C   UNL     1      38.978  -9.304  10.336  1.00  0.00     0.045 C 
ENDBRANCH  14  15
ENDBRANCH  12  14
ENDBRANCH   7   8
ENDBRANCH   1   7
BRANCH   3  19
HETATM   19  C   UNL     1      43.436 -15.966   5.777  1.00  0.00     0.095 A 
HETATM   20  C   UNL     1      42.907 -17.387   5.755  1.00  0.00     0.043 A 
HETATM   21  C   UNL     1      42.076 -16.249   5.211  1.00  0.00     0.037 A 
BRANCH  20  22
HETATM   22  C   UNL     1      43.496 -18.398   4.798  1.00  0.00    -0.052 A 
HETATM   23  C   UNL     1      44.455 -19.335   5.220  1.00  0.00     0.007 A 
HETATM   24  C   UNL     1      45.000 -20.268   4.334  1.00  0.00     0.001 A 
HETATM   25  C   UNL     1      44.590 -20.289   3.004  1.00  0.00     0.000 A 
HETATM   26  C   UNL     1      43.633 -19.380   2.563  1.00  0.00     0.001 A 
HETATM   27  C   UNL     1      43.091 -18.450   3.453  1.00  0.00     0.007 A 
ENDBRANCH  20  22
ENDBRANCH   3  19
TORSDOF 6
ENDMDL
MODEL 2
REMARK VINA RESULT:      -8.2      1.935      3.181
REMARK  6 active torsions:
REMARK  status: ('A' for Active; 'I' for Inactive)
REMARK    1  A    between atoms: C_2  and  O_3 
REMARK    2  A    between atoms: O_3  and  C_4 
REMARK    3  A    between atoms: C_8  and  C_9 
REMARK    4  A    between atoms: C_9  and  N_10 
REMARK       I    between atoms: N_10  and  C_11 
REMARK       I    between atoms: C_11  and  N_12 
REMARK    5  A    between atoms: N_12  and  C_13 
REMARK    6  A    between atoms: C_14  and  C_15 
ROOT
HETATM    1  N   UNL     1      43.919 -15.198   7.184  1.00  0.00    -0.339 N 
HETATM    2  C   UNL     1      43.644 -16.212   6.300  1.00  0.00     0.316 C 
HETATM    3  N   UNL     1      43.837 -17.448   6.871  1.00  0.00    -0.338 N 
HETATM    4  O   UNL     1      43.254 -16.032   5.153  1.00  0.00    -0.247 OA
HETATM    5  H   UNL     1      43.821 -15.428   8.161  1.00  0.00     0.164 HD
HETATM    6  H   UNL     1      44.504 -17.486   7.628  1.00  0.00     0.164 HD
ENDROOT
BRANCH   1   7
HETATM    7  C   UNL     1      43.686 -13.816   6.822  1.00  0.00     0.163 C 
BRANCH   7   8
HETATM    8  C   UNL     1      44.528 -12.870   7.637  1.00  0.00    -0.035 A 
HETATM    9  C   UNL     1      45.919 -12.852   7.511  1.00  0.00     0.028 A 
HETATM   10  C   UNL     1      46.650 -11.972   8.291  1.00  0.00     0.120 A 
HETATM   11  N   UNL     1      46.099 -11.130   9.190  1.00  0.00    -0.237 NA
HETATM   12  C   UNL     1      44.762 -11.172   9.318  1.00  0.00     0.165 A 
HETATM   13  C   UNL     1      43.942 -11.998   8.560  1.00  0.00     0.066 A 
BRANCH  12  14
HETATM   14  O   UNL     1      44.119 -10.349  10.215  1.00  0.00    -0.324 OA
BRANCH  14  15
HETATM   15  C   UNL     1      43.384 -10.930  11.308  1.00  0.00     0.058 C 
HETATM   16  C   UNL     1      43.955 -12.284  11.750  1.00  0.00     0.045 C 
HETATM   17  C   UNL     1      41.870 -10.993  11.047  1.00  0.00     0.045 C 
HETATM   18  C   UNL     1      43.608  -9.936  12.467  1.00  0.00     0.045 C 
ENDBRANCH  14  15
ENDBRANCH  12  14
ENDBRANCH   7   8
ENDBRANCH   1   7
BRANCH   3  19
HETATM   19  C   UNL     1      43.545 -18.665   6.171  1.00  0.00     0.095 A 
HETATM   20  C   UNL     1      44.641 -19.509   5.551  1.00  0.00     0.043 A 
HETATM   21  C   UNL     1      43.920 -19.977   6.793  1.00  0.00     0.037 A 
BRANCH  20  22
HETATM   22  C   UNL     1      44.397 -20.220   4.240  1.00  0.00    -0.052 A 
HETATM   23  C   UNL     1      43.893 -19.538   3.119  1.00  0.00     0.007 A 
HETATM   24  C   UNL     1      43.666 -20.196   1.907  1.00  0.00     0.001 A 
HETATM   25  C   UNL     1      43.948 -21.554   1.789  1.00  0.00     0.000 A 
HETATM   26  C   UNL     1      44.460 -22.250   2.880  1.00  0.00     0.001 A 
HETATM   27  C   UNL     1      44.685 -21.587   4.088  1.00  0.00     0.007 A 
ENDBRANCH  20  22
ENDBRANCH   3  19
TORSDOF 6
ENDMDL
MODEL 3
REMARK VINA RESULT:      -8.1      1.448      2.401
REMARK  6 active torsions:
REMARK  status: ('A' for Active; 'I' for Inactive)
REMARK    1  A    between atoms: C_2  and  O_3 
REMARK    2  A    between atoms: O_3  and  C_4 
REMARK    3  A    between atoms: C_8  and  C_9 
REMARK    4  A    between atoms: C_9  and  N_10 
REMARK       I    between atoms: N_10  and  C_11 
REMARK       I    between atoms: C_11  and  N_12 
REMARK    5  A    between atoms: N_12  and  C_13 
REMARK    6  A    between atoms: C_14  and  C_15 
ROOT
HETATM    1  N   UNL     1      44.346 -13.675   8.489  1.00  0.00    -0.339 N 
HETATM    2  C   UNL     1      44.492 -14.191   7.225  1.00  0.00     0.316 C 
HETATM    3  N   UNL     1      43.784 -15.360   7.071  1.00  0.00    -0.338 N 
HETATM    4  O   UNL     1      45.154 -13.661   6.342  1.00  0.00    -0.247 OA
HETATM    5  H   UNL     1      43.499 -13.930   8.973  1.00  0.00     0.164 HD
HETATM    6  H   UNL     1      43.619 -15.892   7.914  1.00  0.00     0.164 HD
ENDROOT
BRANCH   1   7
HETATM    7  C   UNL     1      44.926 -12.395   8.838  1.00  0.00     0.163 C 
BRANCH   7   8
HETATM    8  C   UNL     1      43.883 -11.410   9.296  1.00  0.00    -0.035 A 
HETATM    9  C   UNL     1      42.836 -11.026   8.454  1.00  0.00     0.028 A 
HETATM   10  C   UNL     1      41.908 -10.108   8.917  1.00  0.00     0.120 A 
HETATM   11  N   UNL     1      41.960  -9.540  10.140  1.00  0.00    -0.237 NA
HETATM   12  C   UNL     1      42.984  -9.901  10.933  1.00  0.00     0.165 A 
HETATM   13  C   UNL     1      43.945 -10.835  10.569  1.00  0.00     0.066 A 
BRANCH  12  14
HETATM   14  O   UNL     1      43.114  -9.366  12.194  1.00  0.00    -0.324 OA
BRANCH  14  15
HETATM   15  C   UNL     1      42.090  -9.612  13.177  1.00  0.00     0.058 C 
HETATM   16  C   UNL     1      41.500 -11.026  13.073  1.00  0.00     0.045 C 
HETATM   17  C   UNL     1      41.002  -8.527  13.194  1.00  0.00     0.045 C 
HETATM   18  C   UNL     1      42.845  -9.526  14.519  1.00  0.00     0.045 C 
ENDBRANCH  14  15
ENDBRANCH  12  14
ENDBRANCH   7   8
ENDBRANCH   1   7
BRANCH   3  19
HETATM   19  C   UNL     1      43.718 -16.051   5.817  1.00  0.00     0.095 A 
HETATM   20  C   UNL     1      43.042 -17.402   5.688  1.00  0.00     0.043 A 
HETATM   21  C   UNL     1      42.400 -16.163   5.109  1.00  0.00     0.037 A 
BRANCH  20  22
HETATM   22  C   UNL     1      43.612 -18.447   4.755  1.00  0.00    -0.052 A 
HETATM   23  C   UNL     1      43.221 -18.517   3.408  1.00  0.00     0.007 A 
HETATM   24  C   UNL     1      43.746 -19.485   2.547  1.00  0.00     0.001 A 
HETATM   25  C   UNL     1      44.683 -20.401   3.017  1.00  0.00     0.000 A 
HETATM   26  C   UNL     1      45.096 -20.345   4.344  1.00  0.00     0.001 A 
HETATM   27  C   UNL     1      44.568 -19.375   5.200  1.00  0.00     0.007 A 
ENDBRANCH  20  22
ENDBRANCH   3  19
TORSDOF 6
ENDMDL
MODEL 4
REMARK VINA RESULT:      -7.9      2.384      9.790
REMARK  6 active torsions:
REMARK  status: ('A' for Active; 'I' for Inactive)
REMARK    1  A    between atoms: C_2  and  O_3 
REMARK    2  A    between atoms: O_3  and  C_4 
REMARK    3  A    between atoms: C_8  and  C_9 
REMARK    4  A    between atoms: C_9  and  N_10 
REMARK       I    between atoms: N_10  and  C_11 
REMARK       I    between atoms: C_11  and  N_12 
REMARK    5  A    between atoms: N_12  and  C_13 
REMARK    6  A    between atoms: C_14  and  C_15 
ROOT
HETATM    1  N   UNL     1      43.645 -13.519   6.841  1.00  0.00    -0.339 N 
HETATM    2  C   UNL     1      43.262 -12.454   7.619  1.00  0.00     0.316 C 
HETATM    3  N   UNL     1      43.990 -12.391   8.784  1.00  0.00    -0.338 N 
HETATM    4  O   UNL     1      42.394 -11.652   7.301  1.00  0.00    -0.247 OA
HETATM    5  H   UNL     1      44.591 -13.843   6.975  1.00  0.00     0.164 HD
HETATM    6  H   UNL     1      44.366 -13.266   9.120  1.00  0.00     0.164 HD
ENDROOT
BRANCH   1   7
HETATM    7  C   UNL     1      43.077 -13.717   5.525  1.00  0.00     0.163 C 
BRANCH   7   8
HETATM    8  C   UNL     1      42.538 -15.112   5.347  1.00  0.00    -0.035 A 
HETATM    9  C   UNL     1      41.369 -15.521   5.996  1.00  0.00     0.028 A 
HETATM   10  C   UNL     1      40.920 -16.817   5.809  1.00  0.00     0.120 A 
HETATM   11  N   UNL     1      41.556 -17.729   5.044  1.00  0.00    -0.237 NA
HETATM   12  C   UNL     1      42.690 -17.331   4.443  1.00  0.00     0.165 A 
HETATM   13  C   UNL     1      43.203 -16.044   4.546  1.00  0.00     0.066 A 
BRANCH  12  14
HETATM   14  O   UNL     1      43.403 -18.199   3.648  1.00  0.00    -0.324 OA
BRANCH  14  15
HETATM   15  C   UNL     1      43.164 -18.218   2.228  1.00  0.00     0.058 C 
HETATM   16  C   UNL     1      44.237 -17.456   1.439  1.00  0.00     0.045 C 
HETATM   17  C   UNL     1      41.740 -17.776   1.854  1.00  0.00     0.045 C 
HETATM   18  C   UNL     1      43.293 -19.710   1.857  1.00  0.00     0.045 C 
ENDBRANCH  14  15
ENDBRANCH  12  14
ENDBRANCH   7   8
ENDBRANCH   1   7
BRANCH   3  19
HETATM   19  C   UNL     1      43.827 -11.324   9.728  1.00  0.00     0.095 A 
HETATM   20  C   UNL     1      44.172 -11.498  11.193  1.00  0.00     0.043 A 
HETATM   21  C   UNL     1      45.042 -10.652  10.295  1.00  0.00     0.037 A 
BRANCH  20  22
HETATM   22  C   UNL     1      43.329 -10.828  12.254  1.00  0.00    -0.052 A 
HETATM   23  C   UNL     1      43.761  -9.659  12.903  1.00  0.00     0.007 A 
HETATM   24  C   UNL     1      42.982  -9.041  13.885  1.00  0.00     0.001 A 
HETATM   25  C   UNL     1      41.747  -9.578  14.235  1.00  0.00     0.000 A 
HETATM   26  C   UNL     1      41.290 -10.729  13.599  1.00  0.00     0.001 A 
HETATM   27  C   UNL     1      42.073 -11.342  12.618  1.00  0.00     0.007 A 
ENDBRANCH  20  22
ENDBRANCH   3  19
TORSDOF 6
ENDMDL
MODEL 5
REMARK VINA RESULT:      -7.8      6.994      9.270
REMARK  6 active torsions:
REMARK  status: ('A' for Active; 'I' for Inactive)
REMARK    1  A    between atoms: C_2  and  O_3 
REMARK    2  A    between atoms: O_3  and  C_4 
REMARK    3  A    between atoms: C_8  and  C_9 
REMARK    4  A    between atoms: C_9  and  N_10 
REMARK       I    between atoms: N_10  and  C_11 
REMARK       I    between atoms: C_11  and  N_12 
REMARK    5  A    between atoms: N_12  and  C_13 
REMARK    6  A    between atoms: C_14  and  C_15 
ROOT
HETATM    1  N   UNL     1      41.209 -15.354   1.366  1.00  0.00    -0.339 N 
HETATM    2  C   UNL     1      41.469 -16.617   1.836  1.00  0.00     0.316 C 
HETATM    3  N   UNL     1      42.304 -16.590   2.929  1.00  0.00    -0.338 N 
HETATM    4  O   UNL     1      40.996 -17.638   1.351  1.00  0.00    -0.247 OA
HETATM    5  H   UNL     1      41.286 -14.609   2.042  1.00  0.00     0.164 HD
HETATM    6  H   UNL     1      42.923 -15.794   2.993  1.00  0.00     0.164 HD
ENDROOT
BRANCH   1   7
HETATM    7  C   UNL     1      40.274 -15.144   0.282  1.00  0.00     0.163 C 
BRANCH   7   8
HETATM    8  C   UNL     1      40.928 -14.501  -0.912  1.00  0.00    -0.035 A 
HETATM    9  C   UNL     1      40.718 -14.995  -2.202  1.00  0.00     0.028 A 
HETATM   10  C   UNL     1      41.352 -14.376  -3.266  1.00  0.00     0.120 A 
HETATM   11  N   UNL     1      42.183 -13.321  -3.135  1.00  0.00    -0.237 NA
HETATM   12  C   UNL     1      42.395 -12.869  -1.887  1.00  0.00     0.165 A 
HETATM   13  C   UNL     1      41.782 -13.404  -0.761  1.00  0.00     0.066 A 
BRANCH  12  14
HETATM   14  O   UNL     1      43.232 -11.799  -1.663  1.00  0.00    -0.324 OA
BRANCH  14  15
HETATM   15  C   UNL     1      42.748 -10.461  -1.888  1.00  0.00     0.058 C 
HETATM   16  C   UNL     1      41.468 -10.156  -1.098  1.00  0.00     0.045 C 
HETATM   17  C   UNL     1      42.609 -10.118  -3.380  1.00  0.00     0.045 C 
HETATM   18  C   UNL     1      43.867  -9.568  -1.314  1.00  0.00     0.045 C 
ENDBRANCH  14  15
ENDBRANCH  12  14
ENDBRANCH   7   8
ENDBRANCH   1   7
BRANCH   3  19
HETATM   19  C   UNL     1      42.663 -17.779   3.644  1.00  0.00     0.095 A 
HETATM   20  C   UNL     1      44.067 -18.347   3.590  1.00  0.00     0.043 A 
HETATM   21  C   UNL     1      43.559 -17.674   4.842  1.00  0.00     0.037 A 
BRANCH  20  22
HETATM   22  C   UNL     1      44.279 -19.844   3.586  1.00  0.00    -0.052 A 
HETATM   23  C   UNL     1      44.651 -20.534   4.752  1.00  0.00     0.007 A 
HETATM   24  C   UNL     1      44.849 -21.917   4.747  1.00  0.00     0.001 A 
HETATM   25  C   UNL     1      44.669 -22.643   3.573  1.00  0.00     0.000 A 
HETATM   26  C   UNL     1      44.288 -21.986   2.407  1.00  0.00     0.001 A 
HETATM   27  C   UNL     1      44.092 -20.603   2.418  1.00  0.00     0.007 A 
ENDBRANCH  20  22
ENDBRANCH   3  19
TORSDOF 6
ENDMDL
MODEL 6
REMARK VINA RESULT:      -7.7      7.743      9.777
REMARK  6 active torsions:
REMARK  status: ('A' for Active; 'I' for Inactive)
REMARK    1  A    between atoms: C_2  and  O_3 
REMARK    2  A    between atoms: O_3  and  C_4 
REMARK    3  A    between atoms: C_8  and  C_9 
REMARK    4  A    between atoms: C_9  and  N_10 
REMARK       I    between atoms: N_10  and  C_11 
REMARK       I    between atoms: C_11  and  N_12 
REMARK    5  A    between atoms: N_12  and  C_13 
REMARK    6  A    between atoms: C_14  and  C_15 
ROOT
HETATM    1  N   UNL     1      40.180 -15.567   0.435  1.00  0.00    -0.339 N 
HETATM    2  C   UNL     1      40.884 -16.034   1.517  1.00  0.00     0.316 C 
HETATM    3  N   UNL     1      41.670 -17.112   1.182  1.00  0.00    -0.338 N 
HETATM    4  O   UNL     1      40.832 -15.536   2.634  1.00  0.00    -0.247 OA
HETATM    5  H   UNL     1      40.587 -15.753  -0.469  1.00  0.00     0.164 HD
HETATM    6  H   UNL     1      41.355 -17.663   0.397  1.00  0.00     0.164 HD
ENDROOT
BRANCH   1   7
HETATM    7  C   UNL     1      39.366 -14.376   0.540  1.00  0.00     0.163 C 
BRANCH   7   8
HETATM    8  C   UNL     1      39.299 -13.621  -0.761  1.00  0.00    -0.035 A 
HETATM    9  C   UNL     1      38.409 -14.000  -1.770  1.00  0.00     0.028 A 
HETATM   10  C   UNL     1      38.394 -13.282  -2.953  1.00  0.00     0.120 A 
HETATM   11  N   UNL     1      39.207 -12.234  -3.206  1.00  0.00    -0.237 NA
HETATM   12  C   UNL     1      40.073 -11.892  -2.237  1.00  0.00     0.165 A 
HETATM   13  C   UNL     1      40.142 -12.533  -1.006  1.00  0.00     0.066 A 
BRANCH  12  14
HETATM   14  O   UNL     1      40.940 -10.838  -2.414  1.00  0.00    -0.324 OA
BRANCH  14  15
HETATM   15  C   UNL     1      42.248 -11.081  -2.967  1.00  0.00     0.058 C 
HETATM   16  C   UNL     1      42.391 -10.546  -4.399  1.00  0.00     0.045 C 
HETATM   17  C   UNL     1      42.686 -12.549  -2.846  1.00  0.00     0.045 C 
HETATM   18  C   UNL     1      43.184 -10.247  -2.069  1.00  0.00     0.045 C 
ENDBRANCH  14  15
ENDBRANCH  12  14
ENDBRANCH   7   8
ENDBRANCH   1   7
BRANCH   3  19
HETATM   19  C   UNL     1      42.557 -17.731   2.124  1.00  0.00     0.095 A 
HETATM   20  C   UNL     1      43.684 -18.640   1.676  1.00  0.00     0.043 A 
HETATM   21  C   UNL     1      43.978 -17.260   2.213  1.00  0.00     0.037 A 
BRANCH  20  22
HETATM   22  C   UNL     1      44.053 -19.851   2.503  1.00  0.00    -0.052 A 
HETATM   23  C   UNL     1      44.450 -19.729   3.845  1.00  0.00     0.007 A 
HETATM   24  C   UNL     1      44.792 -20.849   4.608  1.00  0.00     0.001 A 
HETATM   25  C   UNL     1      44.737 -22.120   4.043  1.00  0.00     0.000 A 
HETATM   26  C   UNL     1      44.335 -22.270   2.720  1.00  0.00     0.001 A 
HETATM   27  C   UNL     1      43.993 -21.147   1.962  1.00  0.00     0.007 A 
ENDBRANCH  20  22
ENDBRANCH   3  19
TORSDOF 6
ENDMDL
MODEL 7
REMARK VINA RESULT:      -7.6      1.823      3.223
REMARK  6 active torsions:
REMARK  status: ('A' for Active; 'I' for Inactive)
REMARK    1  A    between atoms: C_2  and  O_3 
REMARK    2  A    between atoms: O_3  and  C_4 
REMARK    3  A    between atoms: C_8  and  C_9 
REMARK    4  A    between atoms: C_9  and  N_10 
REMARK       I    between atoms: N_10  and  C_11 
REMARK       I    between atoms: C_11  and  N_12 
REMARK    5  A    between atoms: N_12  and  C_13 
REMARK    6  A    between atoms: C_14  and  C_15 
ROOT
HETATM    1  N   UNL     1      41.550 -12.944   6.391  1.00  0.00    -0.339 N 
HETATM    2  C   UNL     1      42.103 -13.600   5.320  1.00  0.00     0.316 C 
HETATM    3  N   UNL     1      41.816 -14.945   5.346  1.00  0.00    -0.338 N 
HETATM    4  O   UNL     1      42.752 -13.048   4.440  1.00  0.00    -0.247 OA
HETATM    5  H   UNL     1      40.732 -13.374   6.795  1.00  0.00     0.164 HD
HETATM    6  H   UNL     1      41.640 -15.342   6.258  1.00  0.00     0.164 HD
ENDROOT
BRANCH   1   7
HETATM    7  C   UNL     1      41.643 -11.505   6.507  1.00  0.00     0.163 C 
BRANCH   7   8
HETATM    8  C   UNL     1      41.148 -11.013   7.841  1.00  0.00    -0.035 A 
HETATM    9  C   UNL     1      39.792 -11.074   8.174  1.00  0.00     0.028 A 
HETATM   10  C   UNL     1      39.384 -10.598   9.409  1.00  0.00     0.120 A 
HETATM   11  N   UNL     1      40.221 -10.057  10.318  1.00  0.00    -0.237 NA
HETATM   12  C   UNL     1      41.519  -9.983   9.979  1.00  0.00     0.165 A 
HETATM   13  C   UNL     1      42.028 -10.461   8.777  1.00  0.00     0.066 A 
BRANCH  12  14
HETATM   14  O   UNL     1      42.440  -9.442  10.847  1.00  0.00    -0.324 OA
BRANCH  14  15
HETATM   15  C   UNL     1      43.192 -10.311  11.715  1.00  0.00     0.058 C 
HETATM   16  C   UNL     1      44.562 -10.684  11.133  1.00  0.00     0.045 C 
HETATM   17  C   UNL     1      42.393 -11.544  12.166  1.00  0.00     0.045 C 
HETATM   18  C   UNL     1      43.444  -9.445  12.967  1.00  0.00     0.045 C 
ENDBRANCH  14  15
ENDBRANCH  12  14
ENDBRANCH   7   8
ENDBRANCH   1   7
BRANCH   3  19
HETATM   19  C   UNL     1      42.221 -15.832   4.295  1.00  0.00     0.095 A 
HETATM   20  C   UNL     1      41.800 -17.288   4.277  1.00  0.00     0.043 A 
HETATM   21  C   UNL     1      41.202 -16.304   3.300  1.00  0.00     0.037 A 
BRANCH  20  22
HETATM   22  C   UNL     1      42.757 -18.345   3.772  1.00  0.00    -0.052 A 
HETATM   23  C   UNL     1      42.766 -18.741   2.424  1.00  0.00     0.007 A 
HETATM   24  C   UNL     1      43.649 -19.720   1.959  1.00  0.00     0.001 A 
HETATM   25  C   UNL     1      44.549 -20.320   2.835  1.00  0.00     0.000 A 
HETATM   26  C   UNL     1      44.569 -19.937   4.173  1.00  0.00     0.001 A 
HETATM   27  C   UNL     1      43.684 -18.957   4.632  1.00  0.00     0.007 A 
ENDBRANCH  20  22
ENDBRANCH   3  19
TORSDOF 6
ENDMDL
MODEL 8
REMARK VINA RESULT:      -7.6      4.841      6.966
REMARK  6 active torsions:
REMARK  status: ('A' for Active; 'I' for Inactive)
REMARK    1  A    between atoms: C_2  and  O_3 
REMARK    2  A    between atoms: O_3  and  C_4 
REMARK    3  A    between atoms: C_8  and  C_9 
REMARK    4  A    between atoms: C_9  and  N_10 
REMARK       I    between atoms: N_10  and  C_11 
REMARK       I    between atoms: C_11  and  N_12 
REMARK    5  A    between atoms: N_12  and  C_13 
REMARK    6  A    between atoms: C_14  and  C_15 
ROOT
HETATM    1  N   UNL     1      41.718 -14.830   5.676  1.00  0.00    -0.339 N 
HETATM    2  C   UNL     1      41.811 -16.200   5.703  1.00  0.00     0.316 C 
HETATM    3  N   UNL     1      43.120 -16.620   5.639  1.00  0.00    -0.338 N 
HETATM    4  O   UNL     1      40.847 -16.950   5.794  1.00  0.00    -0.247 OA
HETATM    5  H   UNL     1      42.525 -14.328   6.013  1.00  0.00     0.164 HD
HETATM    6  H   UNL     1      43.765 -15.990   5.184  1.00  0.00     0.164 HD
ENDROOT
BRANCH   1   7
HETATM    7  C   UNL     1      40.440 -14.172   5.834  1.00  0.00     0.163 C 
BRANCH   7   8
HETATM    8  C   UNL     1      39.914 -13.640   4.526  1.00  0.00    -0.035 A 
HETATM    9  C   UNL     1      39.332 -12.372   4.445  1.00  0.00     0.028 A 
HETATM   10  C   UNL     1      38.854 -11.933   3.222  1.00  0.00     0.120 A 
HETATM   11  N   UNL     1      38.899 -12.667   2.091  1.00  0.00    -0.237 NA
HETATM   12  C   UNL     1      39.442 -13.893   2.185  1.00  0.00     0.165 A 
HETATM   13  C   UNL     1      39.975 -14.409   3.360  1.00  0.00     0.066 A 
BRANCH  12  14
HETATM   14  O   UNL     1      39.524 -14.709   1.080  1.00  0.00    -0.324 OA
BRANCH  14  15
HETATM   15  C   UNL     1      40.717 -14.691   0.273  1.00  0.00     0.058 C 
HETATM   16  C   UNL     1      41.420 -16.054   0.229  1.00  0.00     0.045 C 
HETATM   17  C   UNL     1      41.678 -13.551   0.649  1.00  0.00     0.045 C 
HETATM   18  C   UNL     1      40.191 -14.397  -1.147  1.00  0.00     0.045 C 
ENDBRANCH  14  15
ENDBRANCH  12  14
ENDBRANCH   7   8
ENDBRANCH   1   7
BRANCH   3  19
HETATM   19  C   UNL     1      43.480 -18.005   5.726  1.00  0.00     0.095 A 
HETATM   20  C   UNL     1      44.683 -18.561   4.989  1.00  0.00     0.043 A 
HETATM   21  C   UNL     1      44.710 -18.397   6.490  1.00  0.00     0.037 A 
BRANCH  20  22
HETATM   22  C   UNL     1      44.630 -19.951   4.396  1.00  0.00    -0.052 A 
HETATM   23  C   UNL     1      44.791 -21.095   5.196  1.00  0.00     0.007 A 
HETATM   24  C   UNL     1      44.744 -22.379   4.647  1.00  0.00     0.001 A 
HETATM   25  C   UNL     1      44.528 -22.546   3.282  1.00  0.00     0.000 A 
HETATM   26  C   UNL     1      44.353 -21.430   2.470  1.00  0.00     0.001 A 
HETATM   27  C   UNL     1      44.400 -20.149   3.024  1.00  0.00     0.007 A 
ENDBRANCH  20  22
ENDBRANCH   3  19
TORSDOF 6
ENDMDL
MODEL 9
REMARK VINA RESULT:      -7.6      6.390      9.860
REMARK  6 active torsions:
REMARK  status: ('A' for Active; 'I' for Inactive)
REMARK    1  A    between atoms: C_2  and  O_3 
REMARK    2  A    between atoms: O_3  and  C_4 
REMARK    3  A    between atoms: C_8  and  C_9 
REMARK    4  A    between atoms: C_9  and  N_10 
REMARK       I    between atoms: N_10  and  C_11 
REMARK       I    between atoms: C_11  and  N_12 
REMARK    5  A    between atoms: N_12  and  C_13 
REMARK    6  A    between atoms: C_14  and  C_15 
ROOT
HETATM    1  N   UNL     1      40.653 -16.633   0.701  1.00  0.00    -0.339 N 
HETATM    2  C   UNL     1      40.786 -15.356   0.215  1.00  0.00     0.316 C 
HETATM    3  N   UNL     1      40.815 -15.337  -1.160  1.00  0.00    -0.338 N 
HETATM    4  O   UNL     1      40.850 -14.358   0.922  1.00  0.00    -0.247 OA
HETATM    5  H   UNL     1      40.206 -17.294   0.084  1.00  0.00     0.164 HD
HETATM    6  H   UNL     1      41.147 -16.179  -1.607  1.00  0.00     0.164 HD
ENDROOT
BRANCH   1   7
HETATM    7  C   UNL     1      40.502 -16.873   2.120  1.00  0.00     0.163 C 
BRANCH   7   8
HETATM    8  C   UNL     1      41.706 -17.562   2.707  1.00  0.00    -0.035 A 
HETATM    9  C   UNL     1      42.689 -18.120   1.885  1.00  0.00     0.028 A 
HETATM   10  C   UNL     1      43.771 -18.753   2.473  1.00  0.00     0.120 A 
HETATM   11  N   UNL     1      43.933 -18.881   3.807  1.00  0.00    -0.237 NA
HETATM   12  C   UNL     1      42.970 -18.359   4.586  1.00  0.00     0.165 A 
HETATM   13  C   UNL     1      41.864 -17.681   4.091  1.00  0.00     0.066 A 
BRANCH  12  14
HETATM   14  O   UNL     1      43.055 -18.449   5.957  1.00  0.00    -0.324 OA
BRANCH  14  15
HETATM   15  C   UNL     1      43.811 -17.463   6.686  1.00  0.00     0.058 C 
HETATM   16  C   UNL     1      43.363 -17.341   8.149  1.00  0.00     0.045 C 
HETATM   17  C   UNL     1      43.862 -16.101   5.976  1.00  0.00     0.045 C 
HETATM   18  C   UNL     1      45.244 -18.033   6.690  1.00  0.00     0.045 C 
ENDBRANCH  14  15
ENDBRANCH  12  14
ENDBRANCH   7   8
ENDBRANCH   1   7
BRANCH   3  19
HETATM   19  C   UNL     1      40.872 -14.113  -1.904  1.00  0.00     0.095 A 
HETATM   20  C   UNL     1      42.164 -13.622  -2.528  1.00  0.00     0.043 A 
HETATM   21  C   UNL     1      41.052 -14.167  -3.392  1.00  0.00     0.037 A 
BRANCH  20  22
HETATM   22  C   UNL     1      42.473 -12.143  -2.562  1.00  0.00    -0.052 A 
HETATM   23  C   UNL     1      42.226 -11.369  -3.709  1.00  0.00     0.007 A 
HETATM   24  C   UNL     1      42.514 -10.002  -3.741  1.00  0.00     0.001 A 
HETATM   25  C   UNL     1      43.049  -9.376  -2.619  1.00  0.00     0.000 A 
HETATM   26  C   UNL     1      43.291 -10.117  -1.466  1.00  0.00     0.001 A 
HETATM   27  C   UNL     1      43.001 -11.483  -1.440  1.00  0.00     0.007 A 
ENDBRANCH  20  22
ENDBRANCH   3  19
TORSDOF 6
ENDMDL
MODEL 10
REMARK VINA RESULT:      -7.6      6.576      8.861
REMARK  6 active torsions:
REMARK  status: ('A' for Active; 'I' for Inactive)
REMARK    1  A    between atoms: C_2  and  O_3 
REMARK    2  A    between atoms: O_3  and  C_4 
REMARK    3  A    between atoms: C_8  and  C_9 
REMARK    4  A    between atoms: C_9  and  N_10 
REMARK       I    between atoms: N_10  and  C_11 
REMARK       I    between atoms: C_11  and  N_12 
REMARK    5  A    between atoms: N_12  and  C_13 
REMARK    6  A    between atoms: C_14  and  C_15 
ROOT
HETATM    1  N   UNL     1      39.738 -15.219   2.772  1.00  0.00    -0.339 N 
HETATM    2  C   UNL     1      40.417 -16.412   2.811  1.00  0.00     0.316 C 
HETATM    3  N   UNL     1      41.184 -16.521   3.947  1.00  0.00    -0.338 N 
HETATM    4  O   UNL     1      40.330 -17.277   1.949  1.00  0.00    -0.247 OA
HETATM    5  H   UNL     1      39.549 -14.792   3.666  1.00  0.00     0.164 HD
HETATM    6  H   UNL     1      41.489 -15.651   4.361  1.00  0.00     0.164 HD
ENDROOT
BRANCH   1   7
HETATM    7  C   UNL     1      38.794 -14.939   1.712  1.00  0.00     0.163 C 
BRANCH   7   8
HETATM    8  C   UNL     1      39.134 -13.670   0.975  1.00  0.00    -0.035 A 
HETATM    9  C   UNL     1      39.088 -12.429   1.617  1.00  0.00     0.028 A 
HETATM   10  C   UNL     1      39.398 -11.291   0.893  1.00  0.00     0.120 A 
HETATM   11  N   UNL     1      39.730 -11.299  -0.415  1.00  0.00    -0.237 NA
HETATM   12  C   UNL     1      39.749 -12.496  -1.027  1.00  0.00     0.165 A 
HETATM   13  C   UNL     1      39.483 -13.695  -0.378  1.00  0.00     0.066 A 
BRANCH  12  14
HETATM   14  O   UNL     1      40.074 -12.594  -2.361  1.00  0.00    -0.324 OA
BRANCH  14  15
HETATM   15  C   UNL     1      41.408 -12.985  -2.738  1.00  0.00     0.058 C 
HETATM   16  C   UNL     1      41.483 -14.443  -3.213  1.00  0.00     0.045 C 
HETATM   17  C   UNL     1      42.454 -12.668  -1.658  1.00  0.00     0.045 C 
HETATM   18  C   UNL     1      41.718 -12.089  -3.955  1.00  0.00     0.045 C 
ENDBRANCH  14  15
ENDBRANCH  12  14
ENDBRANCH   7   8
ENDBRANCH   1   7
BRANCH   3  19
HETATM   19  C   UNL     1      41.929 -17.708   4.253  1.00  0.00     0.095 A 
HETATM   20  C   UNL     1      43.290 -17.972   3.640  1.00  0.00     0.043 A 
HETATM   21  C   UNL     1      43.163 -17.602   5.099  1.00  0.00     0.037 A 
BRANCH  20  22
HETATM   22  C   UNL     1      43.689 -19.381   3.264  1.00  0.00    -0.052 A 
HETATM   23  C   UNL     1      43.306 -19.948   2.037  1.00  0.00     0.007 A 
HETATM   24  C   UNL     1      43.674 -21.252   1.691  1.00  0.00     0.001 A 
HETATM   25  C   UNL     1      44.441 -22.015   2.566  1.00  0.00     0.000 A 
HETATM   26  C   UNL     1      44.844 -21.472   3.783  1.00  0.00     0.001 A 
HETATM   27  C   UNL     1      44.474 -20.169   4.123  1.00  0.00     0.007 A 
ENDBRANCH  20  22
ENDBRANCH   3  19
TORSDOF 6
ENDMDL
