MODEL 1
REMARK VINA RESULT:      -8.8      0.000      0.000
REMARK  9 active torsions:
REMARK  status: ('A' for Active; 'I' for Inactive)
REMARK    1  A    between atoms: C_4  and  C_5 
REMARK    2  A    between atoms: C_13  and  C_14 
REMARK    3  A    between atoms: C_14  and  N_15 
REMARK    4  A    between atoms: C_19  and  C_20 
REMARK       I    between atoms: C_20  and  N_21 
REMARK    5  A    between atoms: N_21  and  C_22 
REMARK    6  A    between atoms: C_22  and  C_23 
REMARK    7  A    between atoms: C_23  and  C_24 
REMARK    8  A    between atoms: C_24  and  N_25 
REMARK    9  A    between atoms: N_29  and  C_30 
ROOT
HETATM    1  N   UNL     1      42.100 -14.563  -0.817  1.00  0.00    -0.066 N 
HETATM    2  H   UNL     1      42.981 -15.071  -0.994  1.00  0.00     0.280 HD
HETATM    3  C   UNL     1      40.981 -15.464  -1.276  1.00  0.00     0.236 C 
HETATM    4  C   UNL     1      40.987 -15.592  -2.797  1.00  0.00     0.042 C 
HETATM    5  C   UNL     1      40.890 -14.230  -3.486  1.00  0.00     0.081 C 
HETATM    6  C   UNL     1      42.029 -13.331  -3.006  1.00  0.00     0.042 C 
HETATM    7  C   UNL     1      42.139 -13.218  -1.492  1.00  0.00     0.236 C 
ENDROOT
BRANCH   5   8
HETATM    8  C   UNL     1      39.510 -13.634  -3.212  1.00  0.00     0.221 C 
HETATM    9  N   UNL     1      38.782 -14.287  -2.244  1.00  0.00    -0.361 N 
HETATM   10  H   UNL     1      39.171 -15.122  -1.815  1.00  0.00     0.162 HD
HETATM   11  O   UNL     1      39.139 -12.582  -3.726  1.00  0.00    -0.273 OA
BRANCH   9  12
HETATM   12  C   UNL     1      37.626 -13.681  -1.608  1.00  0.00     0.124 C 
BRANCH  12  13
HETATM   13  C   UNL     1      37.879 -13.185  -0.180  1.00  0.00     0.047 C 
BRANCH  13  14
HETATM   14  C   UNL     1      38.728 -11.915  -0.215  1.00  0.00     0.236 C 
BRANCH  14  15
HETATM   15  N   UNL     1      39.068 -11.415   1.173  1.00  0.00    -0.068 N 
HETATM   16  H   UNL     1      38.654 -10.483   1.305  1.00  0.00     0.280 HD
HETATM   17  C   UNL     1      38.429 -12.333   2.239  1.00  0.00     0.254 C 
HETATM   18  C   UNL     1      38.788 -11.871   3.668  1.00  0.00     0.150 C 
HETATM   19  N   UNL     1      40.244 -11.731   3.836  1.00  0.00    -0.378 N 
HETATM   20  C   UNL     1      40.868 -10.814   2.863  1.00  0.00     0.150 C 
HETATM   21  C   UNL     1      40.582 -11.286   1.421  1.00  0.00     0.254 C 
BRANCH  19  22
HETATM   22  C   UNL     1      41.022 -12.798   4.296  1.00  0.00     0.031 A 
HETATM   23  C   UNL     1      40.493 -13.900   4.983  1.00  0.00     0.053 A 
HETATM   24  C   UNL     1      41.311 -14.953   5.416  1.00  0.00     0.036 A 
HETATM   25 CL   UNL     1      40.596 -16.301   6.214  1.00  0.00    -0.084 Cl
HETATM   26  C   UNL     1      42.681 -14.926   5.199  1.00  0.00     0.024 A 
HETATM   27  C   UNL     1      43.239 -13.831   4.552  1.00  0.00     0.004 A 
HETATM   28  C   UNL     1      42.418 -12.785   4.113  1.00  0.00     0.029 A 
ENDBRANCH  19  22
ENDBRANCH  14  15
ENDBRANCH  13  14
ENDBRANCH  12  13
ENDBRANCH   9  12
ENDBRANCH   5   8
BRANCH   1  29
HETATM   29  C   UNL     1      42.084 -14.363   0.697  1.00  0.00     0.296 C 
BRANCH  29  30
HETATM   30  C   UNL     1      41.978 -15.608   1.496  1.00  0.00     0.092 A 
HETATM   31  C   UNL     1      40.853 -16.183   2.046  1.00  0.00     0.078 A 
HETATM   32  C   UNL     1      39.416 -15.851   2.079  1.00  0.00     0.079 C 
HETATM   33  O   UNL     1      41.241 -17.320   2.684  1.00  0.00    -0.294 OA
HETATM   34  C   UNL     1      42.598 -17.383   2.506  1.00  0.00     0.180 A 
HETATM   35  N   UNL     1      43.088 -16.376   1.796  1.00  0.00    -0.224 NA
BRANCH  34  36
HETATM   36  C   UNL     1      43.275 -18.538   3.091  1.00  0.00     0.017 A 
HETATM   37  C   UNL     1      43.648 -19.645   2.309  1.00  0.00     0.017 A 
HETATM   38  C   UNL     1      44.303 -20.740   2.881  1.00  0.00     0.025 A 
HETATM   39  C   UNL     1      44.592 -20.738   4.243  1.00  0.00     0.034 A 
HETATM   40 CL   UNL     1      45.400 -22.080   4.948  1.00  0.00    -0.084 Cl
HETATM   41  C   UNL     1      44.229 -19.651   5.036  1.00  0.00     0.025 A 
HETATM   42  C   UNL     1      43.573 -18.557   4.461  1.00  0.00     0.017 A 
ENDBRANCH  34  36
ENDBRANCH  29  30
ENDBRANCH   1  29
TORSDOF 9
ENDMDL
MODEL 2
REMARK VINA RESULT:      -8.6      5.221     10.370
REMARK  9 active torsions:
REMARK  status: ('A' for Active; 'I' for Inactive)
REMARK    1  A    between atoms: C_4  and  C_5 
REMARK    2  A    between atoms: C_13  and  C_14 
REMARK    3  A    between atoms: C_14  and  N_15 
REMARK    4  A    between atoms: C_19  and  C_20 
REMARK       I    between atoms: C_20  and  N_21 
REMARK    5  A    between atoms: N_21  and  C_22 
REMARK    6  A    between atoms: C_22  and  C_23 
REMARK    7  A    between atoms: C_23  and  C_24 
REMARK    8  A    between atoms: C_24  and  N_25 
REMARK    9  A    between atoms: N_29  and  C_30 
ROOT
HETATM    1  N   UNL     1      40.952 -10.049  11.867  1.00  0.00    -0.066 N 
HETATM    2  H   UNL     1      40.746  -9.370  12.617  1.00  0.00     0.280 HD
HETATM    3  C   UNL     1      41.475 -11.292  12.541  1.00  0.00     0.236 C 
HETATM    4  C   UNL     1      42.857 -11.035  13.138  1.00  0.00     0.042 C 
HETATM    5  C   UNL     1      43.852 -10.539  12.088  1.00  0.00     0.081 C 
HETATM    6  C   UNL     1      43.301  -9.282  11.415  1.00  0.00     0.042 C 
HETATM    7  C   UNL     1      41.891  -9.437  10.863  1.00  0.00     0.236 C 
ENDROOT
BRANCH   5   8
HETATM    8  C   UNL     1      44.127 -11.669  11.096  1.00  0.00     0.221 C 
HETATM    9  N   UNL     1      44.458 -11.254   9.827  1.00  0.00    -0.361 N 
HETATM   10  H   UNL     1      44.457 -10.259   9.618  1.00  0.00     0.162 HD
HETATM   11  O   UNL     1      44.173 -12.847  11.444  1.00  0.00    -0.273 OA
BRANCH   9  12
HETATM   12  C   UNL     1      45.083 -12.143   8.863  1.00  0.00     0.124 C 
BRANCH  12  13
HETATM   13  C   UNL     1      44.110 -12.766   7.856  1.00  0.00     0.047 C 
BRANCH  13  14
HETATM   14  C   UNL     1      44.636 -14.126   7.400  1.00  0.00     0.236 C 
BRANCH  14  15
HETATM   15  N   UNL     1      43.519 -15.090   7.066  1.00  0.00    -0.068 N 
HETATM   16  H   UNL     1      42.664 -14.798   7.558  1.00  0.00     0.280 HD
HETATM   17  C   UNL     1      43.196 -15.027   5.556  1.00  0.00     0.254 C 
HETATM   18  C   UNL     1      42.084 -16.028   5.176  1.00  0.00     0.150 C 
HETATM   19  N   UNL     1      42.408 -17.390   5.632  1.00  0.00    -0.378 N 
HETATM   20  C   UNL     1      42.664 -17.483   7.082  1.00  0.00     0.150 C 
HETATM   21  C   UNL     1      43.819 -16.541   7.485  1.00  0.00     0.254 C 
BRANCH  19  22
HETATM   22  C   UNL     1      43.095 -18.282   4.805  1.00  0.00     0.031 A 
HETATM   23  C   UNL     1      43.761 -19.421   5.281  1.00  0.00     0.053 A 
HETATM   24  C   UNL     1      44.429 -20.295   4.412  1.00  0.00     0.036 A 
HETATM   25 CL   UNL     1      45.188 -21.701   5.051  1.00  0.00    -0.084 Cl
HETATM   26  C   UNL     1      44.474 -20.046   3.047  1.00  0.00     0.024 A 
HETATM   27  C   UNL     1      43.853 -18.906   2.550  1.00  0.00     0.004 A 
HETATM   28  C   UNL     1      43.179 -18.041   3.420  1.00  0.00     0.029 A 
ENDBRANCH  19  22
ENDBRANCH  14  15
ENDBRANCH  13  14
ENDBRANCH  12  13
ENDBRANCH   9  12
ENDBRANCH   5   8
BRANCH   1  29
HETATM   29  C   UNL     1      39.598 -10.290  11.204  1.00  0.00     0.296 C 
BRANCH  29  30
HETATM   30  C   UNL     1      39.599 -10.217   9.722  1.00  0.00     0.092 A 
HETATM   31  C   UNL     1      39.218  -9.169   8.914  1.00  0.00     0.078 A 
HETATM   32  C   UNL     1      38.698  -7.807   9.139  1.00  0.00     0.079 C 
HETATM   33  O   UNL     1      39.400  -9.557   7.623  1.00  0.00    -0.294 OA
HETATM   34  C   UNL     1      39.875 -10.840   7.700  1.00  0.00     0.180 A 
HETATM   35  N   UNL     1      40.013 -11.281   8.942  1.00  0.00    -0.224 NA
BRANCH  34  36
HETATM   36  C   UNL     1      40.172 -11.498   6.430  1.00  0.00     0.017 A 
HETATM   37  C   UNL     1      41.272 -11.114   5.642  1.00  0.00     0.017 A 
HETATM   38  C   UNL     1      41.549 -11.758   4.433  1.00  0.00     0.025 A 
HETATM   39  C   UNL     1      40.728 -12.795   3.999  1.00  0.00     0.034 A 
HETATM   40 CL   UNL     1      41.068 -13.592   2.515  1.00  0.00    -0.084 Cl
HETATM   41  C   UNL     1      39.633 -13.190   4.763  1.00  0.00     0.025 A 
HETATM   42  C   UNL     1      39.356 -12.543   5.973  1.00  0.00     0.017 A 
ENDBRANCH  34  36
ENDBRANCH  29  30
ENDBRANCH   1  29
TORSDOF 9
ENDMDL
MODEL 3
REMARK VINA RESULT:      -8.6      1.486      2.197
REMARK  9 active torsions:
REMARK  status: ('A' for Active; 'I' for Inactive)
REMARK    1  A    between atoms: C_4  and  C_5 
REMARK    2  A    between atoms: C_13  and  C_14 
REMARK    3  A    between atoms: C_14  and  N_15 
REMARK    4  A    between atoms: C_19  and  C_20 
REMARK       I    between atoms: C_20  and  N_21 
REMARK    5  A    between atoms: N_21  and  C_22 
REMARK    6  A    between atoms: C_22  and  C_23 
REMARK    7  A    between atoms: C_23  and  C_24 
REMARK    8  A    between atoms: C_24  and  N_25 
REMARK    9  A    between atoms: N_29  and  C_30 
ROOT
HETATM    1  N   UNL     1      39.709 -15.209   0.366  1.00  0.00    -0.066 N 
HETATM    2  H   UNL     1      39.014 -15.936   0.135  1.00  0.00     0.280 HD
HETATM    3  C   UNL     1      39.108 -13.890  -0.051  1.00  0.00     0.236 C 
HETATM    4  C   UNL     1      39.027 -13.796  -1.573  1.00  0.00     0.042 C 
HETATM    5  C   UNL     1      40.394 -13.991  -2.232  1.00  0.00     0.081 C 
HETATM    6  C   UNL     1      40.987 -15.330  -1.794  1.00  0.00     0.042 C 
HETATM    7  C   UNL     1      41.026 -15.531  -0.286  1.00  0.00     0.236 C 
ENDROOT
BRANCH   5   8
HETATM    8  C   UNL     1      41.288 -12.803  -1.876  1.00  0.00     0.221 C 
HETATM    9  N   UNL     1      40.618 -11.699  -1.402  1.00  0.00    -0.361 N 
HETATM   10  H   UNL     1      39.603 -11.719  -1.358  1.00  0.00     0.162 HD
HETATM   11  O   UNL     1      42.514 -12.880  -1.894  1.00  0.00    -0.273 OA
BRANCH   9  12
HETATM   12  C   UNL     1      41.300 -10.627  -0.696  1.00  0.00     0.124 C 
BRANCH  12  13
HETATM   13  C   UNL     1      41.273 -10.761   0.831  1.00  0.00     0.047 C 
BRANCH  13  14
HETATM   14  C   UNL     1      39.834 -10.666   1.335  1.00  0.00     0.236 C 
BRANCH  14  15
HETATM   15  N   UNL     1      39.753 -10.707   2.845  1.00  0.00    -0.068 N 
HETATM   16  H   UNL     1      39.203  -9.902   3.175  1.00  0.00     0.280 HD
HETATM   17  C   UNL     1      38.992 -11.972   3.303  1.00  0.00     0.254 C 
HETATM   18  C   UNL     1      38.925 -12.063   4.842  1.00  0.00     0.150 C 
HETATM   19  N   UNL     1      40.263 -11.955   5.446  1.00  0.00    -0.378 N 
HETATM   20  C   UNL     1      40.986 -10.726   5.068  1.00  0.00     0.150 C 
HETATM   21  C   UNL     1      41.129 -10.637   3.533  1.00  0.00     0.254 C 
BRANCH  19  22
HETATM   22  C   UNL     1      41.032 -13.094   5.700  1.00  0.00     0.031 A 
HETATM   23  C   UNL     1      40.493 -14.385   5.797  1.00  0.00     0.053 A 
HETATM   24  C   UNL     1      41.305 -15.501   6.043  1.00  0.00     0.036 A 
HETATM   25 CL   UNL     1      40.591 -17.066   6.104  1.00  0.00    -0.084 Cl
HETATM   26  C   UNL     1      42.673 -15.359   6.224  1.00  0.00     0.024 A 
HETATM   27  C   UNL     1      43.232 -14.088   6.169  1.00  0.00     0.004 A 
HETATM   28  C   UNL     1      42.419 -12.977   5.914  1.00  0.00     0.029 A 
ENDBRANCH  19  22
ENDBRANCH  14  15
ENDBRANCH  13  14
ENDBRANCH  12  13
ENDBRANCH   9  12
ENDBRANCH   5   8
BRANCH   1  29
HETATM   29  C   UNL     1      39.862 -15.309   1.882  1.00  0.00     0.296 C 
BRANCH  29  30
HETATM   30  C   UNL     1      41.142 -15.894   2.349  1.00  0.00     0.092 A 
HETATM   31  C   UNL     1      42.344 -15.262   2.574  1.00  0.00     0.078 A 
HETATM   32  C   UNL     1      42.837 -13.875   2.461  1.00  0.00     0.079 C 
HETATM   33  O   UNL     1      43.231 -16.200   3.004  1.00  0.00    -0.294 OA
HETATM   34  C   UNL     1      42.528 -17.376   3.010  1.00  0.00     0.180 A 
HETATM   35  N   UNL     1      41.266 -17.243   2.626  1.00  0.00    -0.224 NA
BRANCH  34  36
HETATM   36  C   UNL     1      43.256 -18.563   3.454  1.00  0.00     0.017 A 
HETATM   37  C   UNL     1      43.626 -19.577   2.554  1.00  0.00     0.017 A 
HETATM   38  C   UNL     1      44.329 -20.704   2.991  1.00  0.00     0.025 A 
HETATM   39  C   UNL     1      44.670 -20.826   4.336  1.00  0.00     0.034 A 
HETATM   40 CL   UNL     1      45.538 -22.207   4.876  1.00  0.00    -0.084 Cl
HETATM   41  C   UNL     1      44.312 -19.833   5.244  1.00  0.00     0.025 A 
HETATM   42  C   UNL     1      43.607 -18.707   4.804  1.00  0.00     0.017 A 
ENDBRANCH  34  36
ENDBRANCH  29  30
ENDBRANCH   1  29
TORSDOF 9
ENDMDL
MODEL 4
REMARK VINA RESULT:      -8.5      3.731      8.452
REMARK  9 active torsions:
REMARK  status: ('A' for Active; 'I' for Inactive)
REMARK    1  A    between atoms: C_4  and  C_5 
REMARK    2  A    between atoms: C_13  and  C_14 
REMARK    3  A    between atoms: C_14  and  N_15 
REMARK    4  A    between atoms: C_19  and  C_20 
REMARK       I    between atoms: C_20  and  N_21 
REMARK    5  A    between atoms: N_21  and  C_22 
REMARK    6  A    between atoms: C_22  and  C_23 
REMARK    7  A    between atoms: C_23  and  C_24 
REMARK    8  A    between atoms: C_24  and  N_25 
REMARK    9  A    between atoms: N_29  and  C_30 
ROOT
HETATM    1  N   UNL     1      39.731 -11.233   6.705  1.00  0.00    -0.066 N 
HETATM    2  H   UNL     1      39.093 -10.524   6.312  1.00  0.00     0.280 HD
HETATM    3  C   UNL     1      39.458 -11.285   8.187  1.00  0.00     0.236 C 
HETATM    4  C   UNL     1      39.935 -10.001   8.864  1.00  0.00     0.042 C 
HETATM    5  C   UNL     1      41.419  -9.735   8.604  1.00  0.00     0.081 C 
HETATM    6  C   UNL     1      41.675  -9.690   7.098  1.00  0.00     0.042 C 
HETATM    7  C   UNL     1      41.153 -10.903   6.340  1.00  0.00     0.236 C 
ENDROOT
BRANCH   5   8
HETATM    8  C   UNL     1      42.245 -10.807   9.313  1.00  0.00     0.221 C 
HETATM    9  N   UNL     1      43.238 -11.371   8.545  1.00  0.00    -0.361 N 
HETATM   10  H   UNL     1      43.333 -11.085   7.575  1.00  0.00     0.162 HD
HETATM   11  O   UNL     1      42.112 -11.049  10.510  1.00  0.00    -0.273 OA
BRANCH   9  12
HETATM   12  C   UNL     1      44.327 -12.132   9.131  1.00  0.00     0.124 C 
BRANCH  12  13
HETATM   13  C   UNL     1      44.903 -13.218   8.214  1.00  0.00     0.047 C 
BRANCH  13  14
HETATM   14  C   UNL     1      44.029 -13.363   6.970  1.00  0.00     0.236 C 
BRANCH  14  15
HETATM   15  N   UNL     1      43.388 -14.731   6.877  1.00  0.00    -0.068 N 
HETATM   16  H   UNL     1      42.891 -14.930   7.755  1.00  0.00     0.280 HD
HETATM   17  C   UNL     1      42.321 -14.743   5.759  1.00  0.00     0.254 C 
HETATM   18  C   UNL     1      41.675 -16.136   5.612  1.00  0.00     0.150 C 
HETATM   19  N   UNL     1      42.693 -17.186   5.439  1.00  0.00    -0.378 N 
HETATM   20  C   UNL     1      43.690 -17.230   6.526  1.00  0.00     0.150 C 
HETATM   21  C   UNL     1      44.404 -15.866   6.655  1.00  0.00     0.254 C 
BRANCH  19  22
HETATM   22  C   UNL     1      43.122 -17.569   4.165  1.00  0.00     0.031 A 
HETATM   23  C   UNL     1      43.356 -18.902   3.797  1.00  0.00     0.053 A 
HETATM   24  C   UNL     1      43.776 -19.241   2.503  1.00  0.00     0.036 A 
HETATM   25 CL   UNL     1      44.002 -20.899   2.098  1.00  0.00    -0.084 Cl
HETATM   26  C   UNL     1      43.998 -18.260   1.547  1.00  0.00     0.024 A 
HETATM   27  C   UNL     1      43.808 -16.928   1.892  1.00  0.00     0.004 A 
HETATM   28  C   UNL     1      43.380 -16.594   3.183  1.00  0.00     0.029 A 
ENDBRANCH  19  22
ENDBRANCH  14  15
ENDBRANCH  13  14
ENDBRANCH  12  13
ENDBRANCH   9  12
ENDBRANCH   5   8
BRANCH   1  29
HETATM   29  C   UNL     1      39.323 -12.529   6.008  1.00  0.00     0.296 C 
BRANCH  29  30
HETATM   30  C   UNL     1      39.272 -12.459   4.527  1.00  0.00     0.092 A 
HETATM   31  C   UNL     1      38.728 -11.474   3.732  1.00  0.00     0.078 A 
HETATM   32  C   UNL     1      38.034 -10.195   3.974  1.00  0.00     0.079 C 
HETATM   33  O   UNL     1      38.924 -11.836   2.435  1.00  0.00    -0.294 OA
HETATM   34  C   UNL     1      39.571 -13.042   2.496  1.00  0.00     0.180 A 
HETATM   35  N   UNL     1      39.805 -13.457   3.733  1.00  0.00    -0.224 NA
BRANCH  34  36
HETATM   36  C   UNL     1      39.919 -13.656   1.217  1.00  0.00     0.017 A 
HETATM   37  C   UNL     1      39.130 -13.460   0.069  1.00  0.00     0.017 A 
HETATM   38  C   UNL     1      39.480 -14.047  -1.150  1.00  0.00     0.025 A 
HETATM   39  C   UNL     1      40.623 -14.837  -1.235  1.00  0.00     0.034 A 
HETATM   40 CL   UNL     1      41.057 -15.557  -2.733  1.00  0.00    -0.084 Cl
HETATM   41  C   UNL     1      41.417 -15.045  -0.110  1.00  0.00     0.025 A 
HETATM   42  C   UNL     1      41.065 -14.457   1.111  1.00  0.00     0.017 A 
ENDBRANCH  34  36
ENDBRANCH  29  30
ENDBRANCH   1  29
TORSDOF 9
ENDMDL
MODEL 5
REMARK VINA RESULT:      -8.5      2.632      5.843
REMARK  9 active torsions:
REMARK  status: ('A' for Active; 'I' for Inactive)
REMARK    1  A    between atoms: C_4  and  C_5 
REMARK    2  A    between atoms: C_13  and  C_14 
REMARK    3  A    between atoms: C_14  and  N_15 
REMARK    4  A    between atoms: C_19  and  C_20 
REMARK       I    between atoms: C_20  and  N_21 
REMARK    5  A    between atoms: N_21  and  C_22 
REMARK    6  A    between atoms: C_22  and  C_23 
REMARK    7  A    between atoms: C_23  and  C_24 
REMARK    8  A    between atoms: C_24  and  N_25 
REMARK    9  A    between atoms: N_29  and  C_30 
ROOT
HETATM    1  N   UNL     1      41.438 -13.054   5.019  1.00  0.00    -0.066 N 
HETATM    2  H   UNL     1      42.464 -12.947   5.059  1.00  0.00     0.280 HD
HETATM    3  C   UNL     1      41.069 -13.138   3.560  1.00  0.00     0.236 C 
HETATM    4  C   UNL     1      41.284 -11.790   2.875  1.00  0.00     0.042 C 
HETATM    5  C   UNL     1      40.501 -10.668   3.560  1.00  0.00     0.081 C 
HETATM    6  C   UNL     1      40.886 -10.603   5.038  1.00  0.00     0.042 C 
HETATM    7  C   UNL     1      40.774 -11.932   5.771  1.00  0.00     0.236 C 
ENDROOT
BRANCH   5   8
HETATM    8  C   UNL     1      39.007 -10.909   3.349  1.00  0.00     0.221 C 
HETATM    9  N   UNL     1      38.634 -11.105   2.039  1.00  0.00    -0.361 N 
HETATM   10  H   UNL     1      39.339 -11.038   1.310  1.00  0.00     0.162 HD
HETATM   11  O   UNL     1      38.227 -11.042   4.289  1.00  0.00    -0.273 OA
BRANCH   9  12
HETATM   12  C   UNL     1      37.350 -11.684   1.681  1.00  0.00     0.124 C 
BRANCH  12  13
HETATM   13  C   UNL     1      37.341 -12.411   0.331  1.00  0.00     0.047 C 
BRANCH  13  14
HETATM   14  C   UNL     1      37.633 -13.896   0.539  1.00  0.00     0.236 C 
BRANCH  14  15
HETATM   15  N   UNL     1      38.747 -14.392  -0.357  1.00  0.00    -0.068 N 
HETATM   16  H   UNL     1      38.733 -15.420  -0.374  1.00  0.00     0.280 HD
HETATM   17  C   UNL     1      38.505 -13.928  -1.811  1.00  0.00     0.254 C 
HETATM   18  C   UNL     1      39.645 -14.386  -2.745  1.00  0.00     0.150 C 
HETATM   19  N   UNL     1      40.961 -13.975  -2.229  1.00  0.00    -0.378 N 
HETATM   20  C   UNL     1      41.237 -14.456  -0.862  1.00  0.00     0.150 C 
HETATM   21  C   UNL     1      40.148 -13.958   0.113  1.00  0.00     0.254 C 
BRANCH  19  22
HETATM   22  C   UNL     1      41.533 -12.756  -2.604  1.00  0.00     0.031 A 
HETATM   23  C   UNL     1      42.338 -11.986  -1.752  1.00  0.00     0.053 A 
HETATM   24  C   UNL     1      42.899 -10.773  -2.175  1.00  0.00     0.036 A 
HETATM   25 CL   UNL     1      43.917  -9.896  -1.098  1.00  0.00    -0.084 Cl
HETATM   26  C   UNL     1      42.655 -10.281  -3.449  1.00  0.00     0.024 A 
HETATM   27  C   UNL     1      41.833 -11.005  -4.304  1.00  0.00     0.004 A 
HETATM   28  C   UNL     1      41.281 -12.220  -3.881  1.00  0.00     0.029 A 
ENDBRANCH  19  22
ENDBRANCH  14  15
ENDBRANCH  13  14
ENDBRANCH  12  13
ENDBRANCH   9  12
ENDBRANCH   5   8
BRANCH   1  29
HETATM   29  C   UNL     1      41.174 -14.370   5.748  1.00  0.00     0.296 C 
BRANCH  29  30
HETATM   30  C   UNL     1      42.178 -15.435   5.510  1.00  0.00     0.092 A 
HETATM   31  C   UNL     1      43.401 -15.614   6.118  1.00  0.00     0.078 A 
HETATM   32  C   UNL     1      44.168 -14.904   7.160  1.00  0.00     0.079 C 
HETATM   33  O   UNL     1      43.968 -16.729   5.585  1.00  0.00    -0.294 OA
HETATM   34  C   UNL     1      43.066 -17.178   4.657  1.00  0.00     0.180 A 
HETATM   35  N   UNL     1      41.972 -16.434   4.577  1.00  0.00    -0.224 NA
BRANCH  34  36
HETATM   36  C   UNL     1      43.430 -18.395   3.935  1.00  0.00     0.017 A 
HETATM   37  C   UNL     1      42.881 -18.695   2.676  1.00  0.00     0.017 A 
HETATM   38  C   UNL     1      43.245 -19.859   1.993  1.00  0.00     0.025 A 
HETATM   39  C   UNL     1      44.163 -20.737   2.563  1.00  0.00     0.034 A 
HETATM   40 CL   UNL     1      44.615 -22.166   1.725  1.00  0.00    -0.084 Cl
HETATM   41  C   UNL     1      44.718 -20.459   3.810  1.00  0.00     0.025 A 
HETATM   42  C   UNL     1      44.352 -19.293   4.493  1.00  0.00     0.017 A 
ENDBRANCH  34  36
ENDBRANCH  29  30
ENDBRANCH   1  29
TORSDOF 9
ENDMDL
MODEL 6
REMARK VINA RESULT:      -8.4      5.340      7.329
REMARK  9 active torsions:
REMARK  status: ('A' for Active; 'I' for Inactive)
REMARK    1  A    between atoms: C_4  and  C_5 
REMARK    2  A    between atoms: C_13  and  C_14 
REMARK    3  A    between atoms: C_14  and  N_15 
REMARK    4  A    between atoms: C_19  and  C_20 
REMARK       I    between atoms: C_20  and  N_21 
REMARK    5  A    between atoms: N_21  and  C_22 
REMARK    6  A    between atoms: C_22  and  C_23 
REMARK    7  A    between atoms: C_23  and  C_24 
REMARK    8  A    between atoms: C_24  and  N_25 
REMARK    9  A    between atoms: N_29  and  C_30 
ROOT
HETATM    1  N   UNL     1      40.918 -13.055   4.827  1.00  0.00    -0.066 N 
HETATM    2  H   UNL     1      41.534 -13.321   4.043  1.00  0.00     0.280 HD
HETATM    3  C   UNL     1      39.568 -12.746   4.229  1.00  0.00     0.236 C 
HETATM    4  C   UNL     1      39.629 -11.460   3.408  1.00  0.00     0.042 C 
HETATM    5  C   UNL     1      40.129 -10.275   4.236  1.00  0.00     0.081 C 
HETATM    6  C   UNL     1      41.495 -10.610   4.836  1.00  0.00     0.042 C 
HETATM    7  C   UNL     1      41.534 -11.923   5.604  1.00  0.00     0.236 C 
ENDROOT
BRANCH   5   8
HETATM    8  C   UNL     1      39.083  -9.938   5.299  1.00  0.00     0.221 C 
HETATM    9  N   UNL     1      39.600  -9.539   6.510  1.00  0.00    -0.361 N 
HETATM   10  H   UNL     1      40.608  -9.534   6.638  1.00  0.00     0.162 HD
HETATM   11  O   UNL     1      37.882  -9.905   5.045  1.00  0.00    -0.273 OA
BRANCH   9  12
HETATM   12  C   UNL     1      38.793  -8.856   7.506  1.00  0.00     0.124 C 
BRANCH  12  13
HETATM   13  C   UNL     1      38.988  -9.370   8.937  1.00  0.00     0.047 C 
BRANCH  13  14
HETATM   14  C   UNL     1      38.725  -8.242   9.933  1.00  0.00     0.236 C 
BRANCH  14  15
HETATM   15  N   UNL     1      39.735  -8.226  11.060  1.00  0.00    -0.068 N 
HETATM   16  H   UNL     1      39.478  -7.490  11.732  1.00  0.00     0.280 HD
HETATM   17  C   UNL     1      39.686  -9.562  11.836  1.00  0.00     0.254 C 
HETATM   18  C   UNL     1      40.733  -9.592  12.970  1.00  0.00     0.150 C 
HETATM   19  N   UNL     1      42.080  -9.274  12.467  1.00  0.00    -0.378 N 
HETATM   20  C   UNL     1      42.161  -7.975  11.772  1.00  0.00     0.150 C 
HETATM   21  C   UNL     1      41.171  -7.937  10.588  1.00  0.00     0.254 C 
BRANCH  19  22
HETATM   22  C   UNL     1      42.944 -10.284  12.034  1.00  0.00     0.031 A 
HETATM   23  C   UNL     1      43.910 -10.099  11.035  1.00  0.00     0.053 A 
HETATM   24  C   UNL     1      44.763 -11.139  10.640  1.00  0.00     0.036 A 
HETATM   25 CL   UNL     1      45.960 -10.837   9.441  1.00  0.00    -0.084 Cl
HETATM   26  C   UNL     1      44.661 -12.399  11.211  1.00  0.00     0.024 A 
HETATM   27  C   UNL     1      43.689 -12.623  12.179  1.00  0.00     0.004 A 
HETATM   28  C   UNL     1      42.845 -11.579  12.577  1.00  0.00     0.029 A 
ENDBRANCH  19  22
ENDBRANCH  14  15
ENDBRANCH  13  14
ENDBRANCH  12  13
ENDBRANCH   9  12
ENDBRANCH   5   8
BRANCH   1  29
HETATM   29  C   UNL     1      40.877 -14.302   5.706  1.00  0.00     0.296 C 
BRANCH  29  30
HETATM   30  C   UNL     1      41.940 -15.301   5.436  1.00  0.00     0.092 A 
HETATM   31  C   UNL     1      43.217 -15.355   5.949  1.00  0.00     0.078 A 
HETATM   32  C   UNL     1      44.006 -14.535   6.889  1.00  0.00     0.079 C 
HETATM   33  O   UNL     1      43.827 -16.451   5.423  1.00  0.00    -0.294 OA
HETATM   34  C   UNL     1      42.892 -17.015   4.595  1.00  0.00     0.180 A 
HETATM   35  N   UNL     1      41.740 -16.360   4.571  1.00  0.00    -0.224 NA
BRANCH  34  36
HETATM   36  C   UNL     1      43.293 -18.238   3.903  1.00  0.00     0.017 A 
HETATM   37  C   UNL     1      42.761 -18.580   2.647  1.00  0.00     0.017 A 
HETATM   38  C   UNL     1      43.160 -19.749   1.993  1.00  0.00     0.025 A 
HETATM   39  C   UNL     1      44.097 -20.589   2.589  1.00  0.00     0.034 A 
HETATM   40 CL   UNL     1      44.592 -22.024   1.785  1.00  0.00    -0.084 Cl
HETATM   41  C   UNL     1      44.635 -20.269   3.832  1.00  0.00     0.025 A 
HETATM   42  C   UNL     1      44.234 -19.098   4.486  1.00  0.00     0.017 A 
ENDBRANCH  34  36
ENDBRANCH  29  30
ENDBRANCH   1  29
TORSDOF 9
ENDMDL
MODEL 7
REMARK VINA RESULT:      -8.4      5.243      9.043
REMARK  9 active torsions:
REMARK  status: ('A' for Active; 'I' for Inactive)
REMARK    1  A    between atoms: C_4  and  C_5 
REMARK    2  A    between atoms: C_13  and  C_14 
REMARK    3  A    between atoms: C_14  and  N_15 
REMARK    4  A    between atoms: C_19  and  C_20 
REMARK       I    between atoms: C_20  and  N_21 
REMARK    5  A    between atoms: N_21  and  C_22 
REMARK    6  A    between atoms: C_22  and  C_23 
REMARK    7  A    between atoms: C_23  and  C_24 
REMARK    8  A    between atoms: C_24  and  N_25 
REMARK    9  A    between atoms: N_29  and  C_30 
ROOT
HETATM    1  N   UNL     1      41.396 -12.359   6.867  1.00  0.00    -0.066 N 
HETATM    2  H   UNL     1      41.207 -12.804   7.778  1.00  0.00     0.280 HD
HETATM    3  C   UNL     1      40.087 -11.787   6.385  1.00  0.00     0.236 C 
HETATM    4  C   UNL     1      39.120 -12.907   6.008  1.00  0.00     0.042 C 
HETATM    5  C   UNL     1      39.712 -13.843   4.954  1.00  0.00     0.081 C 
HETATM    6  C   UNL     1      41.040 -14.409   5.459  1.00  0.00     0.042 C 
HETATM    7  C   UNL     1      42.029 -13.352   5.930  1.00  0.00     0.236 C 
ENDROOT
BRANCH   5   8
HETATM    8  C   UNL     1      39.858 -13.078   3.639  1.00  0.00     0.221 C 
HETATM    9  N   UNL     1      40.668 -13.684   2.706  1.00  0.00    -0.361 N 
HETATM   10  H   UNL     1      41.139 -14.550   2.951  1.00  0.00     0.162 HD
HETATM   11  O   UNL     1      39.201 -12.069   3.394  1.00  0.00    -0.273 OA
BRANCH   9  12
HETATM   12  C   UNL     1      40.649 -13.301   1.305  1.00  0.00     0.124 C 
BRANCH  12  13
HETATM   13  C   UNL     1      40.979 -14.442   0.335  1.00  0.00     0.047 C 
BRANCH  13  14
HETATM   14  C   UNL     1      40.662 -15.786   0.989  1.00  0.00     0.236 C 
BRANCH  14  15
HETATM   15  N   UNL     1      41.860 -16.710   1.008  1.00  0.00    -0.068 N 
HETATM   16  H   UNL     1      42.241 -16.787   0.055  1.00  0.00     0.280 HD
HETATM   17  C   UNL     1      42.984 -16.104   1.878  1.00  0.00     0.254 C 
HETATM   18  C   UNL     1      44.208 -17.042   1.949  1.00  0.00     0.150 C 
HETATM   19  N   UNL     1      43.824 -18.397   2.378  1.00  0.00    -0.378 N 
HETATM   20  C   UNL     1      42.792 -19.017   1.525  1.00  0.00     0.150 C 
HETATM   21  C   UNL     1      41.525 -18.134   1.487  1.00  0.00     0.254 C 
BRANCH  19  22
HETATM   22  C   UNL     1      43.834 -18.755   3.729  1.00  0.00     0.031 A 
HETATM   23  C   UNL     1      43.245 -17.979   4.738  1.00  0.00     0.053 A 
HETATM   24  C   UNL     1      43.271 -18.383   6.080  1.00  0.00     0.036 A 
HETATM   25 CL   UNL     1      42.491 -17.411   7.268  1.00  0.00    -0.084 Cl
HETATM   26  C   UNL     1      43.904 -19.559   6.458  1.00  0.00     0.024 A 
HETATM   27  C   UNL     1      44.526 -20.331   5.485  1.00  0.00     0.004 A 
HETATM   28  C   UNL     1      44.491 -19.928   4.145  1.00  0.00     0.029 A 
ENDBRANCH  19  22
ENDBRANCH  14  15
ENDBRANCH  13  14
ENDBRANCH  12  13
ENDBRANCH   9  12
ENDBRANCH   5   8
BRANCH   1  29
HETATM   29  C   UNL     1      42.409 -11.263   7.193  1.00  0.00     0.296 C 
BRANCH  29  30
HETATM   30  C   UNL     1      42.894 -11.249   8.594  1.00  0.00     0.092 A 
HETATM   31  C   UNL     1      44.060 -11.775   9.104  1.00  0.00     0.078 A 
HETATM   32  C   UNL     1      45.214 -12.505   8.545  1.00  0.00     0.079 C 
HETATM   33  O   UNL     1      44.082 -11.514  10.439  1.00  0.00    -0.294 OA
HETATM   34  C   UNL     1      42.912 -10.846  10.690  1.00  0.00     0.180 A 
HETATM   35  N   UNL     1      42.165 -10.661   9.611  1.00  0.00    -0.224 NA
BRANCH  34  36
HETATM   36  C   UNL     1      42.687 -10.429  12.072  1.00  0.00     0.017 A 
HETATM   37  C   UNL     1      41.567 -10.868  12.799  1.00  0.00     0.017 A 
HETATM   38  C   UNL     1      41.369 -10.467  14.124  1.00  0.00     0.025 A 
HETATM   39  C   UNL     1      42.291  -9.622  14.735  1.00  0.00     0.034 A 
HETATM   40 CL   UNL     1      42.053  -9.131  16.364  1.00  0.00    -0.084 Cl
HETATM   41  C   UNL     1      43.407  -9.174  14.032  1.00  0.00     0.025 A 
HETATM   42  C   UNL     1      43.603  -9.576  12.705  1.00  0.00     0.017 A 
ENDBRANCH  34  36
ENDBRANCH  29  30
ENDBRANCH   1  29
TORSDOF 9
ENDMDL
MODEL 8
REMARK VINA RESULT:      -8.4      2.077      4.414
REMARK  9 active torsions:
REMARK  status: ('A' for Active; 'I' for Inactive)
REMARK    1  A    between atoms: C_4  and  C_5 
REMARK    2  A    between atoms: C_13  and  C_14 
REMARK    3  A    between atoms: C_14  and  N_15 
REMARK    4  A    between atoms: C_19  and  C_20 
REMARK       I    between atoms: C_20  and  N_21 
REMARK    5  A    between atoms: N_21  and  C_22 
REMARK    6  A    between atoms: C_22  and  C_23 
REMARK    7  A    between atoms: C_23  and  C_24 
REMARK    8  A    between atoms: C_24  and  N_25 
REMARK    9  A    between atoms: N_29  and  C_30 
ROOT
HETATM    1  N   UNL     1      38.919 -13.844  -0.976  1.00  0.00    -0.066 N 
HETATM    2  H   UNL     1      38.239 -14.411  -1.506  1.00  0.00     0.280 HD
HETATM    3  C   UNL     1      38.697 -14.153   0.483  1.00  0.00     0.236 C 
HETATM    4  C   UNL     1      37.360 -13.584   0.953  1.00  0.00     0.042 C 
HETATM    5  C   UNL     1      37.261 -12.078   0.706  1.00  0.00     0.081 C 
HETATM    6  C   UNL     1      37.493 -11.785  -0.776  1.00  0.00     0.042 C 
HETATM    7  C   UNL     1      38.771 -12.391  -1.339  1.00  0.00     0.236 C 
ENDROOT
BRANCH   5   8
HETATM    8  C   UNL     1      38.260 -11.362   1.614  1.00  0.00     0.221 C 
HETATM    9  N   UNL     1      38.105 -11.618   2.957  1.00  0.00    -0.361 N 
HETATM   10  H   UNL     1      37.338 -12.211   3.261  1.00  0.00     0.162 HD
HETATM   11  O   UNL     1      39.202 -10.713   1.165  1.00  0.00    -0.273 OA
BRANCH   9  12
HETATM   12  C   UNL     1      39.148 -11.320   3.924  1.00  0.00     0.124 C 
BRANCH  12  13
HETATM   13  C   UNL     1      39.034 -12.105   5.236  1.00  0.00     0.047 C 
BRANCH  13  14
HETATM   14  C   UNL     1      40.428 -12.449   5.758  1.00  0.00     0.236 C 
BRANCH  14  15
HETATM   15  N   UNL     1      41.069 -13.577   4.979  1.00  0.00    -0.068 N 
HETATM   16  H   UNL     1      40.983 -13.382   3.972  1.00  0.00     0.280 HD
HETATM   17  C   UNL     1      42.583 -13.640   5.283  1.00  0.00     0.254 C 
HETATM   18  C   UNL     1      43.260 -14.806   4.532  1.00  0.00     0.150 C 
HETATM   19  N   UNL     1      42.574 -16.082   4.791  1.00  0.00    -0.378 N 
HETATM   20  C   UNL     1      41.138 -16.062   4.453  1.00  0.00     0.150 C 
HETATM   21  C   UNL     1      40.417 -14.946   5.241  1.00  0.00     0.254 C 
BRANCH  19  22
HETATM   22  C   UNL     1      42.970 -16.912   5.845  1.00  0.00     0.031 A 
HETATM   23  C   UNL     1      43.171 -18.293   5.707  1.00  0.00     0.053 A 
HETATM   24  C   UNL     1      43.578 -19.084   6.790  1.00  0.00     0.036 A 
HETATM   25 CL   UNL     1      43.854 -20.766   6.548  1.00  0.00    -0.084 Cl
HETATM   26  C   UNL     1      43.773 -18.527   8.046  1.00  0.00     0.024 A 
HETATM   27  C   UNL     1      43.547 -17.166   8.221  1.00  0.00     0.004 A 
HETATM   28  C   UNL     1      43.149 -16.378   7.135  1.00  0.00     0.029 A 
ENDBRANCH  19  22
ENDBRANCH  14  15
ENDBRANCH  13  14
ENDBRANCH  12  13
ENDBRANCH   9  12
ENDBRANCH   5   8
BRANCH   1  29
HETATM   29  C   UNL     1      40.278 -14.345  -1.462  1.00  0.00     0.296 C 
BRANCH  29  30
HETATM   30  C   UNL     1      41.158 -14.904  -0.407  1.00  0.00     0.092 A 
HETATM   31  C   UNL     1      41.825 -14.237   0.596  1.00  0.00     0.078 A 
HETATM   32  C   UNL     1      41.946 -12.829   1.020  1.00  0.00     0.079 C 
HETATM   33  O   UNL     1      42.501 -15.164   1.329  1.00  0.00    -0.294 OA
HETATM   34  C   UNL     1      42.226 -16.363   0.726  1.00  0.00     0.180 A 
HETATM   35  N   UNL     1      41.420 -16.259  -0.322  1.00  0.00    -0.224 NA
BRANCH  34  36
HETATM   36  C   UNL     1      42.829 -17.547   1.334  1.00  0.00     0.017 A 
HETATM   37  C   UNL     1      42.147 -18.776   1.383  1.00  0.00     0.017 A 
HETATM   38  C   UNL     1      42.740 -19.902   1.961  1.00  0.00     0.025 A 
HETATM   39  C   UNL     1      44.022 -19.811   2.497  1.00  0.00     0.034 A 
HETATM   40 CL   UNL     1      44.754 -21.195   3.204  1.00  0.00    -0.084 Cl
HETATM   41  C   UNL     1      44.713 -18.603   2.460  1.00  0.00     0.025 A 
HETATM   42  C   UNL     1      44.118 -17.475   1.882  1.00  0.00     0.017 A 
ENDBRANCH  34  36
ENDBRANCH  29  30
ENDBRANCH   1  29
TORSDOF 9
ENDMDL
MODEL 9
REMARK VINA RESULT:      -8.2      4.974      6.781
REMARK  9 active torsions:
REMARK  status: ('A' for Active; 'I' for Inactive)
REMARK    1  A    between atoms: C_4  and  C_5 
REMARK    2  A    between atoms: C_13  and  C_14 
REMARK    3  A    between atoms: C_14  and  N_15 
REMARK    4  A    between atoms: C_19  and  C_20 
REMARK       I    between atoms: C_20  and  N_21 
REMARK    5  A    between atoms: N_21  and  C_22 
REMARK    6  A    between atoms: C_22  and  C_23 
REMARK    7  A    between atoms: C_23  and  C_24 
REMARK    8  A    between atoms: C_24  and  N_25 
REMARK    9  A    between atoms: N_29  and  C_30 
ROOT
HETATM    1  N   UNL     1      41.199 -13.477   4.770  1.00  0.00    -0.066 N 
HETATM    2  H   UNL     1      40.789 -14.414   4.907  1.00  0.00     0.280 HD
HETATM    3  C   UNL     1      40.580 -12.578   5.811  1.00  0.00     0.236 C 
HETATM    4  C   UNL     1      39.104 -12.339   5.500  1.00  0.00     0.042 C 
HETATM    5  C   UNL     1      38.900 -11.755   4.101  1.00  0.00     0.081 C 
HETATM    6  C   UNL     1      39.539 -12.677   3.063  1.00  0.00     0.042 C 
HETATM    7  C   UNL     1      40.992 -13.027   3.349  1.00  0.00     0.236 C 
ENDROOT
BRANCH   5   8
HETATM    8  C   UNL     1      39.477 -10.339   4.069  1.00  0.00     0.221 C 
HETATM    9  N   UNL     1      38.848  -9.442   4.902  1.00  0.00    -0.361 N 
HETATM   10  H   UNL     1      38.041  -9.748   5.437  1.00  0.00     0.162 HD
HETATM   11  O   UNL     1      40.498 -10.064   3.444  1.00  0.00    -0.273 OA
BRANCH   9  12
HETATM   12  C   UNL     1      39.455  -8.174   5.267  1.00  0.00     0.124 C 
BRANCH  12  13
HETATM   13  C   UNL     1      40.000  -8.124   6.699  1.00  0.00     0.047 C 
BRANCH  13  14
HETATM   14  C   UNL     1      38.864  -7.822   7.675  1.00  0.00     0.236 C 
BRANCH  14  15
HETATM   15  N   UNL     1      38.760  -8.861   8.771  1.00  0.00    -0.068 N 
HETATM   16  H   UNL     1      37.833  -9.306   8.727  1.00  0.00     0.280 HD
HETATM   17  C   UNL     1      39.795  -9.984   8.538  1.00  0.00     0.254 C 
HETATM   18  C   UNL     1      39.741 -11.042   9.662  1.00  0.00     0.150 C 
HETATM   19  N   UNL     1      39.864 -10.421  10.991  1.00  0.00    -0.378 N 
HETATM   20  C   UNL     1      38.849  -9.384  11.257  1.00  0.00     0.150 C 
HETATM   21  C   UNL     1      38.922  -8.274  10.185  1.00  0.00     0.254 C 
BRANCH  19  22
HETATM   22  C   UNL     1      41.113 -10.260  11.598  1.00  0.00     0.031 A 
HETATM   23  C   UNL     1      42.322 -10.621  10.984  1.00  0.00     0.053 A 
HETATM   24  C   UNL     1      43.553 -10.432  11.627  1.00  0.00     0.036 A 
HETATM   25 CL   UNL     1      45.006 -10.851  10.805  1.00  0.00    -0.084 Cl
HETATM   26  C   UNL     1      43.614  -9.901  12.908  1.00  0.00     0.024 A 
HETATM   27  C   UNL     1      42.430  -9.567  13.555  1.00  0.00     0.004 A 
HETATM   28  C   UNL     1      41.203  -9.749  12.906  1.00  0.00     0.029 A 
ENDBRANCH  19  22
ENDBRANCH  14  15
ENDBRANCH  13  14
ENDBRANCH  12  13
ENDBRANCH   9  12
ENDBRANCH   5   8
BRANCH   1  29
HETATM   29  C   UNL     1      42.692 -13.685   5.017  1.00  0.00     0.296 C 
BRANCH  29  30
HETATM   30  C   UNL     1      43.135 -15.100   5.047  1.00  0.00     0.092 A 
HETATM   31  C   UNL     1      43.659 -15.814   6.102  1.00  0.00     0.078 A 
HETATM   32  C   UNL     1      43.976 -15.520   7.513  1.00  0.00     0.079 C 
HETATM   33  O   UNL     1      43.910 -17.077   5.662  1.00  0.00    -0.294 OA
HETATM   34  C   UNL     1      43.538 -17.074   4.343  1.00  0.00     0.180 A 
HETATM   35  N   UNL     1      43.064 -15.908   3.927  1.00  0.00    -0.224 NA
BRANCH  34  36
HETATM   36  C   UNL     1      43.695 -18.336   3.624  1.00  0.00     0.017 A 
HETATM   37  C   UNL     1      43.076 -18.555   2.380  1.00  0.00     0.017 A 
HETATM   38  C   UNL     1      43.241 -19.765   1.699  1.00  0.00     0.025 A 
HETATM   39  C   UNL     1      44.028 -20.769   2.256  1.00  0.00     0.034 A 
HETATM   40 CL   UNL     1      44.237 -22.255   1.419  1.00  0.00    -0.084 Cl
HETATM   41  C   UNL     1      44.649 -20.573   3.487  1.00  0.00     0.025 A 
HETATM   42  C   UNL     1      44.482 -19.361   4.168  1.00  0.00     0.017 A 
ENDBRANCH  34  36
ENDBRANCH  29  30
ENDBRANCH   1  29
TORSDOF 9
ENDMDL
MODEL 10
REMARK VINA RESULT:      -8.1      3.618      4.699
REMARK  9 active torsions:
REMARK  status: ('A' for Active; 'I' for Inactive)
REMARK    1  A    between atoms: C_4  and  C_5 
REMARK    2  A    between atoms: C_13  and  C_14 
REMARK    3  A    between atoms: C_14  and  N_15 
REMARK    4  A    between atoms: C_19  and  C_20 
REMARK       I    between atoms: C_20  and  N_21 
REMARK    5  A    between atoms: N_21  and  C_22 
REMARK    6  A    between atoms: C_22  and  C_23 
REMARK    7  A    between atoms: C_23  and  C_24 
REMARK    8  A    between atoms: C_24  and  N_25 
REMARK    9  A    between atoms: N_29  and  C_30 
ROOT
HETATM    1  N   UNL     1      41.081 -14.115   1.333  1.00  0.00    -0.066 N 
HETATM    2  H   UNL     1      41.061 -15.079   0.963  1.00  0.00     0.280 HD
HETATM    3  C   UNL     1      39.989 -14.029   2.370  1.00  0.00     0.236 C 
HETATM    4  C   UNL     1      38.615 -14.099   1.708  1.00  0.00     0.042 C 
HETATM    5  C   UNL     1      38.433 -13.009   0.651  1.00  0.00     0.081 C 
HETATM    6  C   UNL     1      39.550 -13.111  -0.388  1.00  0.00     0.042 C 
HETATM    7  C   UNL     1      40.952 -13.128   0.204  1.00  0.00     0.236 C 
ENDROOT
BRANCH   5   8
HETATM    8  C   UNL     1      38.394 -11.648   1.346  1.00  0.00     0.221 C 
HETATM    9  N   UNL     1      38.024 -11.688   2.671  1.00  0.00    -0.361 N 
HETATM   10  H   UNL     1      37.766 -12.579   3.084  1.00  0.00     0.162 HD
HETATM   11  O   UNL     1      38.785 -10.622   0.795  1.00  0.00    -0.273 OA
BRANCH   9  12
HETATM   12  C   UNL     1      38.263 -10.574   3.572  1.00  0.00     0.124 C 
BRANCH  12  13
HETATM   13  C   UNL     1      39.618 -10.621   4.288  1.00  0.00     0.047 C 
BRANCH  13  14
HETATM   14  C   UNL     1      39.477 -11.363   5.616  1.00  0.00     0.236 C 
BRANCH  14  15
HETATM   15  N   UNL     1      39.749 -10.467   6.804  1.00  0.00    -0.068 N 
HETATM   16  H   UNL     1      39.006  -9.758   6.869  1.00  0.00     0.280 HD
HETATM   17  C   UNL     1      39.686 -11.286   8.113  1.00  0.00     0.254 C 
HETATM   18  C   UNL     1      39.998 -10.407   9.343  1.00  0.00     0.150 C 
HETATM   19  N   UNL     1      41.273  -9.689   9.181  1.00  0.00    -0.378 N 
HETATM   20  C   UNL     1      41.334  -8.855   7.966  1.00  0.00     0.150 C 
HETATM   21  C   UNL     1      41.092  -9.719   6.709  1.00  0.00     0.254 C 
BRANCH  19  22
HETATM   22  C   UNL     1      42.474 -10.243   9.634  1.00  0.00     0.031 A 
HETATM   23  C   UNL     1      43.242 -11.144   8.881  1.00  0.00     0.053 A 
HETATM   24  C   UNL     1      44.446 -11.667   9.373  1.00  0.00     0.036 A 
HETATM   25 CL   UNL     1      45.367 -12.732   8.383  1.00  0.00    -0.084 Cl
HETATM   26  C   UNL     1      44.907 -11.327  10.636  1.00  0.00     0.024 A 
HETATM   27  C   UNL     1      44.150 -10.464  11.420  1.00  0.00     0.004 A 
HETATM   28  C   UNL     1      42.953  -9.937  10.922  1.00  0.00     0.029 A 
ENDBRANCH  19  22
ENDBRANCH  14  15
ENDBRANCH  13  14
ENDBRANCH  12  13
ENDBRANCH   9  12
ENDBRANCH   5   8
BRANCH   1  29
HETATM   29  C   UNL     1      42.468 -13.984   1.957  1.00  0.00     0.296 C 
BRANCH  29  30
HETATM   30  C   UNL     1      42.897 -15.136   2.787  1.00  0.00     0.092 A 
HETATM   31  C   UNL     1      43.124 -15.178   4.145  1.00  0.00     0.078 A 
HETATM   32  C   UNL     1      43.048 -14.204   5.252  1.00  0.00     0.079 C 
HETATM   33  O   UNL     1      43.493 -16.448   4.463  1.00  0.00    -0.294 OA
HETATM   34  C   UNL     1      43.488 -17.128   3.273  1.00  0.00     0.180 A 
HETATM   35  N   UNL     1      43.135 -16.381   2.237  1.00  0.00    -0.224 NA
BRANCH  34  36
HETATM   36  C   UNL     1      43.841 -18.544   3.335  1.00  0.00     0.017 A 
HETATM   37  C   UNL     1      44.390 -19.115   4.497  1.00  0.00     0.017 A 
HETATM   38  C   UNL     1      44.715 -20.474   4.545  1.00  0.00     0.025 A 
HETATM   39  C   UNL     1      44.495 -21.276   3.429  1.00  0.00     0.034 A 
HETATM   40 CL   UNL     1      44.890 -22.947   3.486  1.00  0.00    -0.084 Cl
HETATM   41  C   UNL     1      43.954 -20.731   2.268  1.00  0.00     0.025 A 
HETATM   42  C   UNL     1      43.630 -19.370   2.222  1.00  0.00     0.017 A 
ENDBRANCH  34  36
ENDBRANCH  29  30
ENDBRANCH   1  29
TORSDOF 9
ENDMDL
