MODEL 1
REMARK VINA RESULT:      -9.2      0.000      0.000
REMARK  3 active torsions:
REMARK  status: ('A' for Active; 'I' for Inactive)
REMARK    1  A    between atoms: N_4  and  C_5 
REMARK    2  A    between atoms: C_16  and  C_17 
REMARK       I    between atoms: C_17  and  N_18 
REMARK    3  A    between atoms: N_18  and  C_19 
ROOT
HETATM    1  C   UNL     1      40.613 -14.350   3.611  1.00  0.00     0.073 C 
HETATM    2  C   UNL     1      41.710 -15.246   4.052  1.00  0.00     0.069 A 
HETATM    3  N   UNL     1      41.799 -16.496   3.575  1.00  0.00    -0.170 NA
HETATM    4  N   UNL     1      42.929 -17.022   4.140  1.00  0.00    -0.216 N 
HETATM    5  C   UNL     1      43.450 -16.141   5.074  1.00  0.00     0.145 A 
HETATM    6  C   UNL     1      42.714 -14.981   4.999  1.00  0.00     0.087 A 
HETATM    7  N   UNL     1      44.446 -16.312   5.977  1.00  0.00    -0.349 N 
HETATM    8  C   UNL     1      44.712 -15.276   6.858  1.00  0.00     0.111 A 
HETATM    9  C   UNL     1      44.089 -14.075   6.855  1.00  0.00     0.098 A 
HETATM   10  C   UNL     1      43.007 -13.837   5.837  1.00  0.00     0.205 A 
HETATM   11  O   UNL     1      42.419 -12.763   5.746  1.00  0.00    -0.286 OA
HETATM   12  H   UNL     1      44.832 -17.222   6.226  1.00  0.00     0.167 HD
ENDROOT
BRANCH   9  13
HETATM   13  C   UNL     1      44.490 -13.072   7.891  1.00  0.00     0.261 C 
HETATM   14  N   UNL     1      43.435 -12.441   8.517  1.00  0.00    -0.323 N 
HETATM   15  H   UNL     1      42.496 -12.688   8.201  1.00  0.00     0.169 HD
HETATM   16  O   UNL     1      45.680 -12.871   8.115  1.00  0.00    -0.267 OA
BRANCH  14  17
HETATM   17  C   UNL     1      43.486 -11.492   9.560  1.00  0.00     0.035 A 
HETATM   18  C   UNL     1      44.396 -11.537  10.617  1.00  0.00     0.029 A 
HETATM   19  C   UNL     1      44.364 -10.562  11.620  1.00  0.00     0.002 A 
HETATM   20  C   UNL     1      43.426  -9.533  11.571  1.00  0.00     0.000 A 
HETATM   21  C   UNL     1      42.517  -9.478  10.520  1.00  0.00     0.002 A 
HETATM   22  C   UNL     1      42.545 -10.454   9.521  1.00  0.00     0.029 A 
ENDBRANCH  14  17
ENDBRANCH   9  13
BRANCH   4  23
HETATM   23  C   UNL     1      43.398 -18.302   3.723  1.00  0.00     0.060 A 
HETATM   24  C   UNL     1      44.199 -19.100   4.552  1.00  0.00     0.034 A 
HETATM   25  C   UNL     1      44.641 -20.349   4.105  1.00  0.00     0.044 A 
HETATM   26  C   UNL     1      44.292 -20.793   2.835  1.00  0.00     0.116 A 
HETATM   27  F   UNL     1      44.720 -21.990   2.414  1.00  0.00    -0.206 F 
HETATM   28  C   UNL     1      43.520 -20.006   1.992  1.00  0.00     0.044 A 
HETATM   29  C   UNL     1      43.080 -18.755   2.429  1.00  0.00     0.034 A 
ENDBRANCH   4  23
TORSDOF 3
ENDMDL
MODEL 2
REMARK VINA RESULT:      -9.2      1.655      2.222
REMARK  3 active torsions:
REMARK  status: ('A' for Active; 'I' for Inactive)
REMARK    1  A    between atoms: N_4  and  C_5 
REMARK    2  A    between atoms: C_16  and  C_17 
REMARK       I    between atoms: C_17  and  N_18 
REMARK    3  A    between atoms: N_18  and  C_19 
ROOT
HETATM    1  C   UNL     1      42.031 -15.323   1.203  1.00  0.00     0.073 C 
HETATM    2  C   UNL     1      42.633 -16.210   2.229  1.00  0.00     0.069 A 
HETATM    3  N   UNL     1      42.737 -17.529   2.010  1.00  0.00    -0.170 NA
HETATM    4  N   UNL     1      43.368 -18.032   3.115  1.00  0.00    -0.216 N 
HETATM    5  C   UNL     1      43.522 -17.041   4.070  1.00  0.00     0.145 A 
HETATM    6  C   UNL     1      43.102 -15.858   3.506  1.00  0.00     0.087 A 
HETATM    7  N   UNL     1      43.935 -17.125   5.359  1.00  0.00    -0.349 N 
HETATM    8  C   UNL     1      43.916 -15.971   6.126  1.00  0.00     0.111 A 
HETATM    9  C   UNL     1      43.567 -14.745   5.674  1.00  0.00     0.098 A 
HETATM   10  C   UNL     1      43.144 -14.609   4.237  1.00  0.00     0.205 A 
HETATM   11  O   UNL     1      42.846 -13.525   3.742  1.00  0.00    -0.286 OA
HETATM   12  H   UNL     1      44.008 -18.003   5.872  1.00  0.00     0.167 HD
ENDROOT
BRANCH   9  13
HETATM   13  C   UNL     1      43.587 -13.606   6.645  1.00  0.00     0.261 C 
HETATM   14  N   UNL     1      44.569 -13.691   7.609  1.00  0.00    -0.323 N 
HETATM   15  H   UNL     1      45.162 -14.522   7.592  1.00  0.00     0.169 HD
HETATM   16  O   UNL     1      42.763 -12.701   6.539  1.00  0.00    -0.267 OA
BRANCH  14  17
HETATM   17  C   UNL     1      44.873 -12.760   8.625  1.00  0.00     0.035 A 
HETATM   18  C   UNL     1      45.923 -11.842   8.559  1.00  0.00     0.029 A 
HETATM   19  C   UNL     1      46.163 -10.965   9.622  1.00  0.00     0.002 A 
HETATM   20  C   UNL     1      45.354 -10.995  10.756  1.00  0.00     0.000 A 
HETATM   21  C   UNL     1      44.303 -11.904  10.829  1.00  0.00     0.002 A 
HETATM   22  C   UNL     1      44.066 -12.784   9.770  1.00  0.00     0.029 A 
ENDBRANCH  14  17
ENDBRANCH   9  13
BRANCH   4  23
HETATM   23  C   UNL     1      43.769 -19.400   3.137  1.00  0.00     0.060 A 
HETATM   24  C   UNL     1      43.537 -20.255   2.051  1.00  0.00     0.034 A 
HETATM   25  C   UNL     1      43.944 -21.591   2.113  1.00  0.00     0.044 A 
HETATM   26  C   UNL     1      44.570 -22.072   3.257  1.00  0.00     0.116 A 
HETATM   27  F   UNL     1      44.956 -23.353   3.309  1.00  0.00    -0.206 F 
HETATM   28  C   UNL     1      44.787 -21.246   4.352  1.00  0.00     0.044 A 
HETATM   29  C   UNL     1      44.378 -19.912   4.298  1.00  0.00     0.034 A 
ENDBRANCH   4  23
TORSDOF 3
ENDMDL
MODEL 3
REMARK VINA RESULT:      -8.9      4.691      8.401
REMARK  3 active torsions:
REMARK  status: ('A' for Active; 'I' for Inactive)
REMARK    1  A    between atoms: N_4  and  C_5 
REMARK    2  A    between atoms: C_16  and  C_17 
REMARK       I    between atoms: C_17  and  N_18 
REMARK    3  A    between atoms: N_18  and  C_19 
ROOT
HETATM    1  C   UNL     1      40.237 -14.859   5.287  1.00  0.00     0.073 C 
HETATM    2  C   UNL     1      41.006 -15.782   4.417  1.00  0.00     0.069 A 
HETATM    3  N   UNL     1      41.855 -16.670   4.952  1.00  0.00    -0.170 NA
HETATM    4  N   UNL     1      42.353 -17.382   3.895  1.00  0.00    -0.216 N 
HETATM    5  C   UNL     1      41.914 -16.832   2.701  1.00  0.00     0.145 A 
HETATM    6  C   UNL     1      41.014 -15.839   3.013  1.00  0.00     0.087 A 
HETATM    7  N   UNL     1      42.283 -17.103   1.425  1.00  0.00    -0.349 N 
HETATM    8  C   UNL     1      41.735 -16.335   0.411  1.00  0.00     0.111 A 
HETATM    9  C   UNL     1      40.811 -15.362   0.586  1.00  0.00     0.098 A 
HETATM   10  C   UNL     1      40.348 -15.064   1.986  1.00  0.00     0.205 A 
HETATM   11  O   UNL     1      39.487 -14.222   2.226  1.00  0.00    -0.286 OA
HETATM   12  H   UNL     1      43.113 -17.642   1.180  1.00  0.00     0.167 HD
ENDROOT
BRANCH   9  13
HETATM   13  C   UNL     1      40.337 -14.616  -0.622  1.00  0.00     0.261 C 
HETATM   14  N   UNL     1      38.966 -14.523  -0.736  1.00  0.00    -0.323 N 
HETATM   15  H   UNL     1      38.410 -14.988  -0.017  1.00  0.00     0.169 HD
HETATM   16  O   UNL     1      41.155 -14.153  -1.411  1.00  0.00    -0.267 OA
BRANCH  14  17
HETATM   17  C   UNL     1      38.221 -13.849  -1.726  1.00  0.00     0.035 A 
HETATM   18  C   UNL     1      37.771 -12.532  -1.609  1.00  0.00     0.029 A 
HETATM   19  C   UNL     1      37.022 -11.947  -2.635  1.00  0.00     0.002 A 
HETATM   20  C   UNL     1      36.720 -12.670  -3.787  1.00  0.00     0.000 A 
HETATM   21  C   UNL     1      37.165 -13.982  -3.914  1.00  0.00     0.002 A 
HETATM   22  C   UNL     1      37.909 -14.569  -2.887  1.00  0.00     0.029 A 
ENDBRANCH  14  17
ENDBRANCH   9  13
BRANCH   4  23
HETATM   23  C   UNL     1      43.183 -18.516   4.133  1.00  0.00     0.060 A 
HETATM   24  C   UNL     1      43.734 -19.261   3.081  1.00  0.00     0.034 A 
HETATM   25  C   UNL     1      44.542 -20.368   3.357  1.00  0.00     0.044 A 
HETATM   26  C   UNL     1      44.789 -20.734   4.675  1.00  0.00     0.116 A 
HETATM   27  F   UNL     1      45.564 -21.796   4.930  1.00  0.00    -0.206 F 
HETATM   28  C   UNL     1      44.233 -20.022   5.729  1.00  0.00     0.044 A 
HETATM   29  C   UNL     1      43.420 -18.918   5.460  1.00  0.00     0.034 A 
ENDBRANCH   4  23
TORSDOF 3
ENDMDL
MODEL 4
REMARK VINA RESULT:      -8.9      4.222      7.742
REMARK  3 active torsions:
REMARK  status: ('A' for Active; 'I' for Inactive)
REMARK    1  A    between atoms: N_4  and  C_5 
REMARK    2  A    between atoms: C_16  and  C_17 
REMARK       I    between atoms: C_17  and  N_18 
REMARK    3  A    between atoms: N_18  and  C_19 
ROOT
HETATM    1  C   UNL     1      43.049 -15.093   5.443  1.00  0.00     0.073 C 
HETATM    2  C   UNL     1      43.108 -16.099   4.353  1.00  0.00     0.069 A 
HETATM    3  N   UNL     1      43.659 -17.302   4.568  1.00  0.00    -0.170 NA
HETATM    4  N   UNL     1      43.508 -17.987   3.394  1.00  0.00    -0.216 N 
HETATM    5  C   UNL     1      42.991 -17.152   2.417  1.00  0.00     0.145 A 
HETATM    6  C   UNL     1      42.684 -15.955   3.022  1.00  0.00     0.087 A 
HETATM    7  N   UNL     1      42.837 -17.354   1.086  1.00  0.00    -0.349 N 
HETATM    8  C   UNL     1      42.363 -16.303   0.317  1.00  0.00     0.111 A 
HETATM    9  C   UNL     1      41.986 -15.096   0.800  1.00  0.00     0.098 A 
HETATM   10  C   UNL     1      42.105 -14.853   2.280  1.00  0.00     0.205 A 
HETATM   11  O   UNL     1      41.751 -13.799   2.801  1.00  0.00    -0.286 OA
HETATM   12  H   UNL     1      43.281 -18.117   0.575  1.00  0.00     0.167 HD
ENDROOT
BRANCH   9  13
HETATM   13  C   UNL     1      41.511 -14.065  -0.175  1.00  0.00     0.261 C 
HETATM   14  N   UNL     1      42.505 -13.510  -0.953  1.00  0.00    -0.323 N 
HETATM   15  H   UNL     1      43.459 -13.824  -0.776  1.00  0.00     0.169 HD
HETATM   16  O   UNL     1      40.317 -13.779  -0.224  1.00  0.00    -0.267 OA
BRANCH  14  17
HETATM   17  C   UNL     1      42.369 -12.558  -1.986  1.00  0.00     0.035 A 
HETATM   18  C   UNL     1      41.814 -12.832  -3.237  1.00  0.00     0.029 A 
HETATM   19  C   UNL     1      41.735 -11.830  -4.210  1.00  0.00     0.002 A 
HETATM   20  C   UNL     1      42.206 -10.547  -3.939  1.00  0.00     0.000 A 
HETATM   21  C   UNL     1      42.759 -10.264  -2.694  1.00  0.00     0.002 A 
HETATM   22  C   UNL     1      42.843 -11.265  -1.724  1.00  0.00     0.029 A 
ENDBRANCH  14  17
ENDBRANCH   9  13
BRANCH   4  23
HETATM   23  C   UNL     1      43.860 -19.367   3.330  1.00  0.00     0.060 A 
HETATM   24  C   UNL     1      43.588 -20.146   2.196  1.00  0.00     0.034 A 
HETATM   25  C   UNL     1      43.948 -21.497   2.174  1.00  0.00     0.044 A 
HETATM   26  C   UNL     1      44.567 -22.068   3.280  1.00  0.00     0.116 A 
HETATM   27  F   UNL     1      44.908 -23.362   3.250  1.00  0.00    -0.206 F 
HETATM   28  C   UNL     1      44.823 -21.317   4.420  1.00  0.00     0.044 A 
HETATM   29  C   UNL     1      44.461 -19.969   4.451  1.00  0.00     0.034 A 
ENDBRANCH   4  23
TORSDOF 3
ENDMDL
MODEL 5
REMARK VINA RESULT:      -8.8      4.102      8.022
REMARK  3 active torsions:
REMARK  status: ('A' for Active; 'I' for Inactive)
REMARK    1  A    between atoms: N_4  and  C_5 
REMARK    2  A    between atoms: C_16  and  C_17 
REMARK       I    between atoms: C_17  and  N_18 
REMARK    3  A    between atoms: N_18  and  C_19 
ROOT
HETATM    1  C   UNL     1      43.023 -15.040   5.254  1.00  0.00     0.073 C 
HETATM    2  C   UNL     1      43.003 -16.082   4.198  1.00  0.00     0.069 A 
HETATM    3  N   UNL     1      43.624 -17.255   4.389  1.00  0.00    -0.170 NA
HETATM    4  N   UNL     1      43.374 -17.988   3.261  1.00  0.00    -0.216 N 
HETATM    5  C   UNL     1      42.720 -17.208   2.321  1.00  0.00     0.145 A 
HETATM    6  C   UNL     1      42.431 -16.002   2.917  1.00  0.00     0.087 A 
HETATM    7  N   UNL     1      42.430 -17.465   1.022  1.00  0.00    -0.349 N 
HETATM    8  C   UNL     1      41.832 -16.461   0.277  1.00  0.00     0.111 A 
HETATM    9  C   UNL     1      41.461 -15.252   0.760  1.00  0.00     0.098 A 
HETATM   10  C   UNL     1      41.731 -14.951   2.209  1.00  0.00     0.205 A 
HETATM   11  O   UNL     1      41.393 -13.893   2.731  1.00  0.00    -0.286 OA
HETATM   12  H   UNL     1      42.846 -18.229   0.491  1.00  0.00     0.167 HD
ENDROOT
BRANCH   9  13
HETATM   13  C   UNL     1      40.840 -14.276  -0.190  1.00  0.00     0.261 C 
HETATM   14  N   UNL     1      39.528 -14.547  -0.515  1.00  0.00    -0.323 N 
HETATM   15  H   UNL     1      39.117 -15.389  -0.111  1.00  0.00     0.169 HD
HETATM   16  O   UNL     1      41.504 -13.332  -0.612  1.00  0.00    -0.267 OA
BRANCH  14  17
HETATM   17  C   UNL     1      38.664 -13.794  -1.337  1.00  0.00     0.035 A 
HETATM   18  C   UNL     1      38.074 -12.588  -0.958  1.00  0.00     0.029 A 
HETATM   19  C   UNL     1      37.213 -11.915  -1.832  1.00  0.00     0.002 A 
HETATM   20  C   UNL     1      36.940 -12.441  -3.094  1.00  0.00     0.000 A 
HETATM   21  C   UNL     1      37.525 -13.642  -3.481  1.00  0.00     0.002 A 
HETATM   22  C   UNL     1      38.380 -14.316  -2.607  1.00  0.00     0.029 A 
ENDBRANCH  14  17
ENDBRANCH   9  13
BRANCH   4  23
HETATM   23  C   UNL     1      43.773 -19.355   3.203  1.00  0.00     0.060 A 
HETATM   24  C   UNL     1      43.511 -20.153   2.081  1.00  0.00     0.034 A 
HETATM   25  C   UNL     1      43.917 -21.491   2.064  1.00  0.00     0.044 A 
HETATM   26  C   UNL     1      44.573 -22.030   3.165  1.00  0.00     0.116 A 
HETATM   27  F   UNL     1      44.959 -23.312   3.140  1.00  0.00    -0.206 F 
HETATM   28  C   UNL     1      44.821 -21.261   4.294  1.00  0.00     0.044 A 
HETATM   29  C   UNL     1      44.412 -19.926   4.320  1.00  0.00     0.034 A 
ENDBRANCH   4  23
TORSDOF 3
ENDMDL
MODEL 6
REMARK VINA RESULT:      -8.5      2.754      3.141
REMARK  3 active torsions:
REMARK  status: ('A' for Active; 'I' for Inactive)
REMARK    1  A    between atoms: N_4  and  C_5 
REMARK    2  A    between atoms: C_16  and  C_17 
REMARK       I    between atoms: C_17  and  N_18 
REMARK    3  A    between atoms: N_18  and  C_19 
ROOT
HETATM    1  C   UNL     1      41.843 -15.658   0.336  1.00  0.00     0.073 C 
HETATM    2  C   UNL     1      42.372 -16.406   1.502  1.00  0.00     0.069 A 
HETATM    3  N   UNL     1      42.596 -17.725   1.418  1.00  0.00    -0.170 NA
HETATM    4  N   UNL     1      43.118 -18.084   2.631  1.00  0.00    -0.216 N 
HETATM    5  C   UNL     1      43.079 -17.009   3.504  1.00  0.00     0.145 A 
HETATM    6  C   UNL     1      42.651 -15.915   2.789  1.00  0.00     0.087 A 
HETATM    7  N   UNL     1      43.332 -16.954   4.834  1.00  0.00    -0.349 N 
HETATM    8  C   UNL     1      43.135 -15.747   5.486  1.00  0.00     0.111 A 
HETATM    9  C   UNL     1      42.759 -14.594   4.886  1.00  0.00     0.098 A 
HETATM   10  C   UNL     1      42.511 -14.610   3.403  1.00  0.00     0.205 A 
HETATM   11  O   UNL     1      42.203 -13.599   2.779  1.00  0.00    -0.286 OA
HETATM   12  H   UNL     1      43.402 -17.778   5.430  1.00  0.00     0.167 HD
ENDROOT
BRANCH   9  13
HETATM   13  C   UNL     1      42.576 -13.382   5.745  1.00  0.00     0.261 C 
HETATM   14  N   UNL     1      41.488 -12.602   5.412  1.00  0.00    -0.323 N 
HETATM   15  H   UNL     1      40.936 -12.899   4.607  1.00  0.00     0.169 HD
HETATM   16  O   UNL     1      43.369 -13.155   6.655  1.00  0.00    -0.267 OA
BRANCH  14  17
HETATM   17  C   UNL     1      41.027 -11.434   6.056  1.00  0.00     0.035 A 
HETATM   18  C   UNL     1      41.482 -10.147   5.766  1.00  0.00     0.029 A 
HETATM   19  C   UNL     1      40.982  -9.045   6.467  1.00  0.00     0.002 A 
HETATM   20  C   UNL     1      40.021  -9.220   7.461  1.00  0.00     0.000 A 
HETATM   21  C   UNL     1      39.560 -10.499   7.756  1.00  0.00     0.002 A 
HETATM   22  C   UNL     1      40.063 -11.601   7.059  1.00  0.00     0.029 A 
ENDBRANCH  14  17
ENDBRANCH   9  13
BRANCH   4  23
HETATM   23  C   UNL     1      43.608 -19.408   2.825  1.00  0.00     0.060 A 
HETATM   24  C   UNL     1      44.352 -19.760   3.961  1.00  0.00     0.034 A 
HETATM   25  C   UNL     1      44.817 -21.070   4.114  1.00  0.00     0.044 A 
HETATM   26  C   UNL     1      44.549 -22.019   3.134  1.00  0.00     0.116 A 
HETATM   27  F   UNL     1      44.998 -23.271   3.288  1.00  0.00    -0.206 F 
HETATM   28  C   UNL     1      43.834 -21.682   1.992  1.00  0.00     0.044 A 
HETATM   29  C   UNL     1      43.372 -20.375   1.830  1.00  0.00     0.034 A 
ENDBRANCH   4  23
TORSDOF 3
ENDMDL
MODEL 7
REMARK VINA RESULT:      -8.5      3.867      8.904
REMARK  3 active torsions:
REMARK  status: ('A' for Active; 'I' for Inactive)
REMARK    1  A    between atoms: N_4  and  C_5 
REMARK    2  A    between atoms: C_16  and  C_17 
REMARK       I    between atoms: C_17  and  N_18 
REMARK    3  A    between atoms: N_18  and  C_19 
ROOT
HETATM    1  C   UNL     1      42.361 -13.027   2.032  1.00  0.00     0.073 C 
HETATM    2  C   UNL     1      42.264 -13.182   3.504  1.00  0.00     0.069 A 
HETATM    3  N   UNL     1      41.894 -12.148   4.274  1.00  0.00    -0.170 NA
HETATM    4  N   UNL     1      41.862 -12.637   5.551  1.00  0.00    -0.216 N 
HETATM    5  C   UNL     1      42.351 -13.934   5.578  1.00  0.00     0.145 A 
HETATM    6  C   UNL     1      42.568 -14.317   4.275  1.00  0.00     0.087 A 
HETATM    7  N   UNL     1      42.652 -14.733   6.631  1.00  0.00    -0.349 N 
HETATM    8  C   UNL     1      43.211 -15.974   6.368  1.00  0.00     0.111 A 
HETATM    9  C   UNL     1      43.432 -16.479   5.133  1.00  0.00     0.098 A 
HETATM   10  C   UNL     1      43.069 -15.635   3.942  1.00  0.00     0.205 A 
HETATM   11  O   UNL     1      43.205 -16.035   2.789  1.00  0.00    -0.286 OA
HETATM   12  H   UNL     1      42.742 -14.395   7.588  1.00  0.00     0.167 HD
ENDROOT
BRANCH   9  13
HETATM   13  C   UNL     1      44.061 -17.834   5.030  1.00  0.00     0.261 C 
HETATM   14  N   UNL     1      43.547 -18.630   4.027  1.00  0.00    -0.323 N 
HETATM   15  H   UNL     1      42.779 -18.242   3.478  1.00  0.00     0.169 HD
HETATM   16  O   UNL     1      44.955 -18.151   5.810  1.00  0.00    -0.267 OA
BRANCH  14  17
HETATM   17  C   UNL     1      43.958 -19.925   3.650  1.00  0.00     0.035 A 
HETATM   18  C   UNL     1      43.929 -20.408   2.341  1.00  0.00     0.029 A 
HETATM   19  C   UNL     1      44.340 -21.715   2.059  1.00  0.00     0.002 A 
HETATM   20  C   UNL     1      44.788 -22.548   3.082  1.00  0.00     0.000 A 
HETATM   21  C   UNL     1      44.823 -22.075   4.390  1.00  0.00     0.002 A 
HETATM   22  C   UNL     1      44.407 -20.772   4.673  1.00  0.00     0.029 A 
ENDBRANCH  14  17
ENDBRANCH   9  13
BRANCH   4  23
HETATM   23  C   UNL     1      41.359 -11.824   6.607  1.00  0.00     0.060 A 
HETATM   24  C   UNL     1      42.209 -11.063   7.422  1.00  0.00     0.034 A 
HETATM   25  C   UNL     1      41.676 -10.278   8.450  1.00  0.00     0.044 A 
HETATM   26  C   UNL     1      40.303 -10.262   8.667  1.00  0.00     0.116 A 
HETATM   27  F   UNL     1      39.801  -9.508   9.653  1.00  0.00    -0.206 F 
HETATM   28  C   UNL     1      39.448 -11.027   7.885  1.00  0.00     0.044 A 
HETATM   29  C   UNL     1      39.975 -11.817   6.861  1.00  0.00     0.034 A 
ENDBRANCH   4  23
TORSDOF 3
ENDMDL
MODEL 8
REMARK VINA RESULT:      -8.4      3.614      6.366
REMARK  3 active torsions:
REMARK  status: ('A' for Active; 'I' for Inactive)
REMARK    1  A    between atoms: N_4  and  C_5 
REMARK    2  A    between atoms: C_16  and  C_17 
REMARK       I    between atoms: C_17  and  N_18 
REMARK    3  A    between atoms: N_18  and  C_19 
ROOT
HETATM    1  C   UNL     1      43.761 -15.334   6.552  1.00  0.00     0.073 C 
HETATM    2  C   UNL     1      43.517 -16.298   5.451  1.00  0.00     0.069 A 
HETATM    3  N   UNL     1      44.152 -17.480   5.430  1.00  0.00    -0.170 NA
HETATM    4  N   UNL     1      43.671 -18.132   4.328  1.00  0.00    -0.216 N 
HETATM    5  C   UNL     1      42.848 -17.290   3.597  1.00  0.00     0.145 A 
HETATM    6  C   UNL     1      42.698 -16.131   4.322  1.00  0.00     0.087 A 
HETATM    7  N   UNL     1      42.298 -17.456   2.369  1.00  0.00    -0.349 N 
HETATM    8  C   UNL     1      41.572 -16.404   1.833  1.00  0.00     0.111 A 
HETATM    9  C   UNL     1      41.319 -15.234   2.464  1.00  0.00     0.098 A 
HETATM   10  C   UNL     1      41.879 -15.035   3.846  1.00  0.00     0.205 A 
HETATM   11  O   UNL     1      41.665 -14.018   4.499  1.00  0.00    -0.286 OA
HETATM   12  H   UNL     1      42.590 -18.179   1.712  1.00  0.00     0.167 HD
ENDROOT
BRANCH   9  13
HETATM   13  C   UNL     1      40.529 -14.196   1.731  1.00  0.00     0.261 C 
HETATM   14  N   UNL     1      39.359 -13.818   2.356  1.00  0.00    -0.323 N 
HETATM   15  H   UNL     1      39.128 -14.293   3.229  1.00  0.00     0.169 HD
HETATM   16  O   UNL     1      40.943 -13.760   0.660  1.00  0.00    -0.267 OA
BRANCH  14  17
HETATM   17  C   UNL     1      38.432 -12.837   1.944  1.00  0.00     0.035 A 
HETATM   18  C   UNL     1      37.533 -13.001   0.889  1.00  0.00     0.029 A 
HETATM   19  C   UNL     1      36.659 -11.967   0.537  1.00  0.00     0.002 A 
HETATM   20  C   UNL     1      36.674 -10.764   1.239  1.00  0.00     0.000 A 
HETATM   21  C   UNL     1      37.565 -10.592   2.293  1.00  0.00     0.002 A 
HETATM   22  C   UNL     1      38.442 -11.622   2.642  1.00  0.00     0.029 A 
ENDBRANCH  14  17
ENDBRANCH   9  13
BRANCH   4  23
HETATM   23  C   UNL     1      44.036 -19.490   4.095  1.00  0.00     0.060 A 
HETATM   24  C   UNL     1      43.991 -20.056   2.813  1.00  0.00     0.034 A 
HETATM   25  C   UNL     1      44.356 -21.393   2.626  1.00  0.00     0.044 A 
HETATM   26  C   UNL     1      44.754 -22.161   3.714  1.00  0.00     0.116 A 
HETATM   27  F   UNL     1      45.101 -23.440   3.526  1.00  0.00    -0.206 F 
HETATM   28  C   UNL     1      44.782 -21.623   4.994  1.00  0.00     0.044 A 
HETATM   29  C   UNL     1      44.414 -20.290   5.188  1.00  0.00     0.034 A 
ENDBRANCH   4  23
TORSDOF 3
ENDMDL
MODEL 9
REMARK VINA RESULT:      -8.4      4.161      9.130
REMARK  3 active torsions:
REMARK  status: ('A' for Active; 'I' for Inactive)
REMARK    1  A    between atoms: N_4  and  C_5 
REMARK    2  A    between atoms: C_16  and  C_17 
REMARK       I    between atoms: C_17  and  N_18 
REMARK    3  A    between atoms: N_18  and  C_19 
ROOT
HETATM    1  C   UNL     1      41.596 -12.102   1.749  1.00  0.00     0.073 C 
HETATM    2  C   UNL     1      41.418 -12.300   3.208  1.00  0.00     0.069 A 
HETATM    3  N   UNL     1      41.310 -11.245   4.029  1.00  0.00    -0.170 NA
HETATM    4  N   UNL     1      41.112 -11.772   5.276  1.00  0.00    -0.216 N 
HETATM    5  C   UNL     1      41.242 -13.151   5.237  1.00  0.00     0.145 A 
HETATM    6  C   UNL     1      41.390 -13.513   3.918  1.00  0.00     0.087 A 
HETATM    7  N   UNL     1      41.292 -14.053   6.248  1.00  0.00    -0.349 N 
HETATM    8  C   UNL     1      41.513 -15.383   5.924  1.00  0.00     0.111 A 
HETATM    9  C   UNL     1      41.630 -15.866   4.666  1.00  0.00     0.098 A 
HETATM   10  C   UNL     1      41.537 -14.897   3.519  1.00  0.00     0.205 A 
HETATM   11  O   UNL     1      41.598 -15.261   2.348  1.00  0.00    -0.286 OA
HETATM   12  H   UNL     1      41.438 -13.800   7.224  1.00  0.00     0.167 HD
ENDROOT
BRANCH   9  13
HETATM   13  C   UNL     1      41.884 -17.332   4.497  1.00  0.00     0.261 C 
HETATM   14  N   UNL     1      42.971 -17.638   3.705  1.00  0.00    -0.323 N 
HETATM   15  H   UNL     1      43.475 -16.854   3.290  1.00  0.00     0.169 HD
HETATM   16  O   UNL     1      41.143 -18.144   5.043  1.00  0.00    -0.267 OA
BRANCH  14  17
HETATM   17  C   UNL     1      43.490 -18.913   3.399  1.00  0.00     0.035 A 
HETATM   18  C   UNL     1      44.384 -19.612   4.212  1.00  0.00     0.029 A 
HETATM   19  C   UNL     1      44.863 -20.867   3.821  1.00  0.00     0.002 A 
HETATM   20  C   UNL     1      44.449 -21.435   2.619  1.00  0.00     0.000 A 
HETATM   21  C   UNL     1      43.557 -20.747   1.803  1.00  0.00     0.002 A 
HETATM   22  C   UNL     1      43.082 -19.492   2.189  1.00  0.00     0.029 A 
ENDBRANCH  14  17
ENDBRANCH   9  13
BRANCH   4  23
HETATM   23  C   UNL     1      40.809 -10.909   6.368  1.00  0.00     0.060 A 
HETATM   24  C   UNL     1      39.584 -10.232   6.456  1.00  0.00     0.034 A 
HETATM   25  C   UNL     1      39.325  -9.392   7.544  1.00  0.00     0.044 A 
HETATM   26  C   UNL     1      40.288  -9.222   8.532  1.00  0.00     0.116 A 
HETATM   27  F   UNL     1      40.032  -8.416   9.569  1.00  0.00    -0.206 F 
HETATM   28  C   UNL     1      41.515  -9.865   8.449  1.00  0.00     0.044 A 
HETATM   29  C   UNL     1      41.783 -10.701   7.363  1.00  0.00     0.034 A 
ENDBRANCH   4  23
TORSDOF 3
ENDMDL
MODEL 10
REMARK VINA RESULT:      -8.3      4.540      6.721
REMARK  3 active torsions:
REMARK  status: ('A' for Active; 'I' for Inactive)
REMARK    1  A    between atoms: N_4  and  C_5 
REMARK    2  A    between atoms: C_16  and  C_17 
REMARK       I    between atoms: C_17  and  N_18 
REMARK    3  A    between atoms: N_18  and  C_19 
ROOT
HETATM    1  C   UNL     1      40.704 -15.811   5.881  1.00  0.00     0.073 C 
HETATM    2  C   UNL     1      41.396 -16.386   4.701  1.00  0.00     0.069 A 
HETATM    3  N   UNL     1      42.088 -17.529   4.810  1.00  0.00    -0.170 NA
HETATM    4  N   UNL     1      42.550 -17.797   3.551  1.00  0.00    -0.216 N 
HETATM    5  C   UNL     1      42.258 -16.742   2.701  1.00  0.00     0.145 A 
HETATM    6  C   UNL     1      41.480 -15.852   3.405  1.00  0.00     0.087 A 
HETATM    7  N   UNL     1      42.664 -16.506   1.430  1.00  0.00    -0.349 N 
HETATM    8  C   UNL     1      42.283 -15.313   0.835  1.00  0.00     0.111 A 
HETATM    9  C   UNL     1      41.486 -14.381   1.406  1.00  0.00     0.098 A 
HETATM   10  C   UNL     1      40.983 -14.632   2.802  1.00  0.00     0.205 A 
HETATM   11  O   UNL     1      40.228 -13.853   3.376  1.00  0.00    -0.286 OA
HETATM   12  H   UNL     1      43.429 -17.006   0.979  1.00  0.00     0.167 HD
ENDROOT
BRANCH   9  13
HETATM   13  C   UNL     1      41.186 -13.139   0.627  1.00  0.00     0.261 C 
HETATM   14  N   UNL     1      42.252 -12.275   0.491  1.00  0.00    -0.323 N 
HETATM   15  H   UNL     1      43.124 -12.542   0.951  1.00  0.00     0.169 HD
HETATM   16  O   UNL     1      40.058 -12.962   0.175  1.00  0.00    -0.267 OA
BRANCH  14  17
HETATM   17  C   UNL     1      42.299 -11.059  -0.222  1.00  0.00     0.035 A 
HETATM   18  C   UNL     1      41.667  -9.884   0.190  1.00  0.00     0.029 A 
HETATM   19  C   UNL     1      41.751  -8.725  -0.589  1.00  0.00     0.002 A 
HETATM   20  C   UNL     1      42.471  -8.729  -1.782  1.00  0.00     0.000 A 
HETATM   21  C   UNL     1      43.107  -9.894  -2.199  1.00  0.00     0.002 A 
HETATM   22  C   UNL     1      43.019 -11.053  -1.424  1.00  0.00     0.029 A 
ENDBRANCH  14  17
ENDBRANCH   9  13
BRANCH   4  23
HETATM   23  C   UNL     1      43.208 -19.034   3.287  1.00  0.00     0.060 A 
HETATM   24  C   UNL     1      44.138 -19.580   4.183  1.00  0.00     0.034 A 
HETATM   25  C   UNL     1      44.763 -20.795   3.886  1.00  0.00     0.044 A 
HETATM   26  C   UNL     1      44.468 -21.455   2.698  1.00  0.00     0.116 A 
HETATM   27  F   UNL     1      45.072 -22.617   2.422  1.00  0.00    -0.206 F 
HETATM   28  C   UNL     1      43.568 -20.916   1.789  1.00  0.00     0.044 A 
HETATM   29  C   UNL     1      42.944 -19.701   2.076  1.00  0.00     0.034 A 
ENDBRANCH   4  23
TORSDOF 3
ENDMDL
