MODEL 1
REMARK VINA RESULT:      -8.5      0.000      0.000
REMARK  3 active torsions:
REMARK  status: ('A' for Active; 'I' for Inactive)
REMARK    1  A    between atoms: C_4  and  C_5 
REMARK    2  A    between atoms: C_12  and  N_13 
REMARK       I    between atoms: N_13  and  C_14 
REMARK    3  A    between atoms: C_14  and  C_15 
ROOT
HETATM    1  C   UNL     1      45.466 -13.448   7.671  1.00  0.00     0.048 C 
HETATM    2  C   UNL     1      44.338 -14.071   6.903  1.00  0.00    -0.060 A 
HETATM    3  C   UNL     1      43.879 -13.497   5.717  1.00  0.00     0.023 A 
HETATM    4  C   UNL     1      42.849 -14.099   4.976  1.00  0.00     0.020 A 
HETATM    5  C   UNL     1      42.259 -15.305   5.431  1.00  0.00     0.053 A 
HETATM    6  C   UNL     1      42.769 -15.931   6.586  1.00  0.00    -0.034 A 
HETATM    7  C   UNL     1      42.423 -17.328   7.031  1.00  0.00     0.050 C 
HETATM    8  C   UNL     1      43.783 -15.283   7.322  1.00  0.00     0.015 A 
ENDROOT
BRANCH   5   9
HETATM    9  N   UNL     1      41.318 -15.924   4.586  1.00  0.00    -0.322 N 
HETATM   10  C   UNL     1      41.453 -16.769   3.523  1.00  0.00     0.278 C 
HETATM   11  O   UNL     1      40.425 -16.994   2.866  1.00  0.00    -0.268 OA
HETATM   12  H   UNL     1      40.344 -15.813   4.853  1.00  0.00     0.169 HD
BRANCH  10  13
HETATM   13  C   UNL     1      42.755 -17.563   3.223  1.00  0.00     0.366 C 
HETATM   14  O   UNL     1      43.498 -18.189   4.267  1.00  0.00    -0.308 OA
HETATM   15  C   UNL     1      43.858 -19.358   3.677  1.00  0.00     0.106 A 
HETATM   16  C   UNL     1      43.222 -19.544   2.473  1.00  0.00     0.106 A 
HETATM   17  C   UNL     1      44.751 -20.280   4.177  1.00  0.00     0.040 A 
HETATM   18  O   UNL     1      42.404 -18.504   2.167  1.00  0.00    -0.308 OA
HETATM   19  C   UNL     1      43.430 -20.670   1.706  1.00  0.00     0.040 A 
HETATM   20  C   UNL     1      44.338 -21.619   2.183  1.00  0.00     0.003 A 
HETATM   21  C   UNL     1      44.998 -21.423   3.411  1.00  0.00     0.003 A 
ENDBRANCH  10  13
ENDBRANCH   5   9
BRANCH   4  22
HETATM   22  C   UNL     1      42.413 -13.427   3.750  1.00  0.00     0.064 A 
HETATM   23  N   UNL     1      42.949 -13.683   2.513  1.00  0.00    -0.277 N 
HETATM   24  H   UNL     1      43.689 -14.337   2.281  1.00  0.00     0.189 HD
HETATM   25  N   UNL     1      42.404 -12.955   1.525  1.00  0.00    -0.179 NA
HETATM   26  C   UNL     1      41.469 -12.221   2.137  1.00  0.00     0.053 A 
HETATM   27  C   UNL     1      40.625 -11.276   1.368  1.00  0.00     0.072 C 
HETATM   28  C   UNL     1      41.426 -12.489   3.524  1.00  0.00     0.060 A 
ENDBRANCH   4  22
TORSDOF 3
ENDMDL
MODEL 2
REMARK VINA RESULT:      -8.3      3.391      5.807
REMARK  3 active torsions:
REMARK  status: ('A' for Active; 'I' for Inactive)
REMARK    1  A    between atoms: C_4  and  C_5 
REMARK    2  A    between atoms: C_12  and  N_13 
REMARK       I    between atoms: N_13  and  C_14 
REMARK    3  A    between atoms: C_14  and  C_15 
ROOT
HETATM    1  C   UNL     1      43.915  -9.992  -1.392  1.00  0.00     0.048 C 
HETATM    2  C   UNL     1      42.773 -10.822  -0.885  1.00  0.00    -0.060 A 
HETATM    3  C   UNL     1      42.313 -11.923  -1.608  1.00  0.00     0.023 A 
HETATM    4  C   UNL     1      41.270 -12.724  -1.116  1.00  0.00     0.020 A 
HETATM    5  C   UNL     1      40.667 -12.419   0.130  1.00  0.00     0.053 A 
HETATM    6  C   UNL     1      41.178 -11.355   0.902  1.00  0.00    -0.034 A 
HETATM    7  C   UNL     1      40.816 -11.084   2.339  1.00  0.00     0.050 C 
HETATM    8  C   UNL     1      42.205 -10.553   0.364  1.00  0.00     0.015 A 
ENDROOT
BRANCH   5   9
HETATM    9  N   UNL     1      39.712 -13.326   0.627  1.00  0.00    -0.322 N 
HETATM   10  C   UNL     1      39.829 -14.535   1.248  1.00  0.00     0.278 C 
HETATM   11  O   UNL     1      38.780 -15.179   1.399  1.00  0.00    -0.268 OA
HETATM   12  H   UNL     1      38.749 -13.002   0.619  1.00  0.00     0.169 HD
BRANCH  10  13
HETATM   13  C   UNL     1      41.147 -15.034   1.903  1.00  0.00     0.366 C 
HETATM   14  O   UNL     1      41.133 -15.798   3.109  1.00  0.00    -0.308 OA
HETATM   15  C   UNL     1      42.106 -16.713   2.857  1.00  0.00     0.106 A 
HETATM   16  C   UNL     1      42.529 -16.669   1.551  1.00  0.00     0.106 A 
HETATM   17  C   UNL     1      42.643 -17.598   3.766  1.00  0.00     0.040 A 
HETATM   18  O   UNL     1      41.880 -15.710   0.841  1.00  0.00    -0.308 OA
HETATM   19  C   UNL     1      43.504 -17.517   1.072  1.00  0.00     0.040 A 
HETATM   20  C   UNL     1      44.074 -18.420   1.974  1.00  0.00     0.003 A 
HETATM   21  C   UNL     1      43.648 -18.457   3.315  1.00  0.00     0.003 A 
ENDBRANCH  10  13
ENDBRANCH   5   9
BRANCH   4  22
HETATM   22  C   UNL     1      40.835 -13.853  -1.941  1.00  0.00     0.064 A 
HETATM   23  N   UNL     1      41.504 -15.049  -2.004  1.00  0.00    -0.277 N 
HETATM   24  H   UNL     1      42.355 -15.311  -1.518  1.00  0.00     0.189 HD
HETATM   25  N   UNL     1      40.932 -15.947  -2.823  1.00  0.00    -0.179 NA
HETATM   26  C   UNL     1      39.845 -15.321  -3.287  1.00  0.00     0.053 A 
HETATM   27  C   UNL     1      38.927 -16.000  -4.233  1.00  0.00     0.072 C 
HETATM   28  C   UNL     1      39.733 -14.017  -2.756  1.00  0.00     0.060 A 
ENDBRANCH   4  22
TORSDOF 3
ENDMDL
MODEL 3
REMARK VINA RESULT:      -8.2      2.395      4.661
REMARK  3 active torsions:
REMARK  status: ('A' for Active; 'I' for Inactive)
REMARK    1  A    between atoms: C_4  and  C_5 
REMARK    2  A    between atoms: C_12  and  N_13 
REMARK       I    between atoms: N_13  and  C_14 
REMARK    3  A    between atoms: C_14  and  C_15 
ROOT
HETATM    1  C   UNL     1      43.118 -10.981  -1.254  1.00  0.00     0.048 C 
HETATM    2  C   UNL     1      42.450 -12.179  -0.648  1.00  0.00    -0.060 A 
HETATM    3  C   UNL     1      42.097 -12.194   0.702  1.00  0.00     0.023 A 
HETATM    4  C   UNL     1      41.437 -13.299   1.262  1.00  0.00     0.020 A 
HETATM    5  C   UNL     1      41.122 -14.422   0.455  1.00  0.00     0.053 A 
HETATM    6  C   UNL     1      41.406 -14.383  -0.925  1.00  0.00    -0.034 A 
HETATM    7  C   UNL     1      40.898 -15.376  -1.936  1.00  0.00     0.050 C 
HETATM    8  C   UNL     1      42.097 -13.270  -1.448  1.00  0.00     0.015 A 
ENDROOT
BRANCH   5   9
HETATM    9  N   UNL     1      40.354 -15.445   1.043  1.00  0.00    -0.322 N 
HETATM   10  C   UNL     1      40.698 -16.602   1.680  1.00  0.00     0.278 C 
HETATM   11  O   UNL     1      39.773 -17.391   1.924  1.00  0.00    -0.268 OA
HETATM   12  H   UNL     1      39.355 -15.270   1.102  1.00  0.00     0.169 HD
BRANCH  10  13
HETATM   13  C   UNL     1      42.120 -16.877   2.243  1.00  0.00     0.366 C 
HETATM   14  O   UNL     1      42.421 -16.685   3.624  1.00  0.00    -0.308 OA
HETATM   15  C   UNL     1      43.222 -17.753   3.875  1.00  0.00     0.106 A 
HETATM   16  C   UNL     1      43.241 -18.640   2.825  1.00  0.00     0.106 A 
HETATM   17  C   UNL     1      43.954 -17.969   5.022  1.00  0.00     0.040 A 
HETATM   18  O   UNL     1      42.467 -18.219   1.793  1.00  0.00    -0.308 OA
HETATM   19  C   UNL     1      43.981 -19.802   2.867  1.00  0.00     0.040 A 
HETATM   20  C   UNL     1      44.741 -20.043   4.015  1.00  0.00     0.003 A 
HETATM   21  C   UNL     1      44.730 -19.129   5.086  1.00  0.00     0.003 A 
ENDBRANCH  10  13
ENDBRANCH   5   9
BRANCH   4  22
HETATM   22  C   UNL     1      41.113 -13.245   2.689  1.00  0.00     0.064 A 
HETATM   23  N   UNL     1      41.999 -13.582   3.681  1.00  0.00    -0.277 N 
HETATM   24  H   UNL     1      42.955 -13.905   3.576  1.00  0.00     0.189 HD
HETATM   25  N   UNL     1      41.496 -13.461   4.921  1.00  0.00    -0.179 NA
HETATM   26  C   UNL     1      40.253 -13.008   4.726  1.00  0.00     0.053 A 
HETATM   27  C   UNL     1      39.359 -12.733   5.877  1.00  0.00     0.072 C 
HETATM   28  C   UNL     1      39.971 -12.844   3.352  1.00  0.00     0.060 A 
ENDBRANCH   4  22
TORSDOF 3
ENDMDL
MODEL 4
REMARK VINA RESULT:      -8.1      4.912      8.425
REMARK  3 active torsions:
REMARK  status: ('A' for Active; 'I' for Inactive)
REMARK    1  A    between atoms: C_4  and  C_5 
REMARK    2  A    between atoms: C_12  and  N_13 
REMARK       I    between atoms: N_13  and  C_14 
REMARK    3  A    between atoms: C_14  and  C_15 
ROOT
HETATM    1  C   UNL     1      38.400 -11.514   2.568  1.00  0.00     0.048 C 
HETATM    2  C   UNL     1      38.776 -12.374   1.398  1.00  0.00    -0.060 A 
HETATM    3  C   UNL     1      39.559 -13.516   1.572  1.00  0.00     0.023 A 
HETATM    4  C   UNL     1      39.880 -14.343   0.485  1.00  0.00     0.020 A 
HETATM    5  C   UNL     1      39.408 -14.024  -0.814  1.00  0.00     0.053 A 
HETATM    6  C   UNL     1      38.552 -12.916  -0.985  1.00  0.00    -0.034 A 
HETATM    7  C   UNL     1      37.775 -12.615  -2.239  1.00  0.00     0.050 C 
HETATM    8  C   UNL     1      38.277 -12.089   0.124  1.00  0.00     0.015 A 
ENDROOT
BRANCH   5   9
HETATM    9  N   UNL     1      39.659 -14.953  -1.840  1.00  0.00    -0.322 N 
HETATM   10  C   UNL     1      40.338 -14.859  -3.020  1.00  0.00     0.278 C 
HETATM   11  O   UNL     1      40.221 -15.817  -3.800  1.00  0.00    -0.268 OA
HETATM   12  H   UNL     1      39.373 -15.910  -1.650  1.00  0.00     0.169 HD
BRANCH  10  13
HETATM   13  C   UNL     1      41.351 -13.723  -3.334  1.00  0.00     0.366 C 
HETATM   14  O   UNL     1      40.923 -12.481  -3.889  1.00  0.00    -0.308 OA
HETATM   15  C   UNL     1      41.700 -11.600  -3.206  1.00  0.00     0.106 A 
HETATM   16  C   UNL     1      42.381 -12.204  -2.176  1.00  0.00     0.106 A 
HETATM   17  C   UNL     1      41.832 -10.255  -3.474  1.00  0.00     0.040 A 
HETATM   18  O   UNL     1      42.119 -13.535  -2.109  1.00  0.00    -0.308 OA
HETATM   19  C   UNL     1      43.221 -11.496  -1.345  1.00  0.00     0.040 A 
HETATM   20  C   UNL     1      43.382 -10.131  -1.598  1.00  0.00     0.003 A 
HETATM   21  C   UNL     1      42.693  -9.515  -2.660  1.00  0.00     0.003 A 
ENDBRANCH  10  13
ENDBRANCH   5   9
BRANCH   4  22
HETATM   22  C   UNL     1      40.719 -15.514   0.747  1.00  0.00     0.064 A 
HETATM   23  N   UNL     1      40.226 -16.717   1.187  1.00  0.00    -0.277 N 
HETATM   24  H   UNL     1      39.261 -16.956   1.388  1.00  0.00     0.189 HD
HETATM   25  N   UNL     1      41.169 -17.657   1.365  1.00  0.00    -0.179 NA
HETATM   26  C   UNL     1      42.306 -17.051   1.005  1.00  0.00     0.053 A 
HETATM   27  C   UNL     1      43.598 -17.776   1.053  1.00  0.00     0.072 C 
HETATM   28  C   UNL     1      42.076 -15.717   0.599  1.00  0.00     0.060 A 
ENDBRANCH   4  22
TORSDOF 3
ENDMDL
MODEL 5
REMARK VINA RESULT:      -7.9      2.480      5.898
REMARK  3 active torsions:
REMARK  status: ('A' for Active; 'I' for Inactive)
REMARK    1  A    between atoms: C_4  and  C_5 
REMARK    2  A    between atoms: C_12  and  N_13 
REMARK       I    between atoms: N_13  and  C_14 
REMARK    3  A    between atoms: C_14  and  C_15 
ROOT
HETATM    1  C   UNL     1      44.718 -14.158   7.282  1.00  0.00     0.048 C 
HETATM    2  C   UNL     1      43.689 -14.518   6.251  1.00  0.00    -0.060 A 
HETATM    3  C   UNL     1      43.895 -15.586   5.378  1.00  0.00     0.023 A 
HETATM    4  C   UNL     1      42.916 -15.948   4.438  1.00  0.00     0.020 A 
HETATM    5  C   UNL     1      41.699 -15.224   4.366  1.00  0.00     0.053 A 
HETATM    6  C   UNL     1      41.452 -14.194   5.297  1.00  0.00    -0.034 A 
HETATM    7  C   UNL     1      40.118 -13.526   5.506  1.00  0.00     0.050 C 
HETATM    8  C   UNL     1      42.469 -13.837   6.206  1.00  0.00     0.015 A 
ENDROOT
BRANCH   5   9
HETATM    9  N   UNL     1      40.710 -15.708   3.490  1.00  0.00    -0.322 N 
HETATM   10  C   UNL     1      40.446 -15.461   2.174  1.00  0.00     0.278 C 
HETATM   11  O   UNL     1      39.377 -15.910   1.733  1.00  0.00    -0.268 OA
HETATM   12  H   UNL     1      40.125 -16.455   3.854  1.00  0.00     0.169 HD
BRANCH  10  13
HETATM   13  C   UNL     1      41.475 -14.816   1.204  1.00  0.00     0.366 C 
HETATM   14  O   UNL     1      41.370 -14.986  -0.208  1.00  0.00    -0.308 OA
HETATM   15  C   UNL     1      41.704 -13.746  -0.653  1.00  0.00     0.106 A 
HETATM   16  C   UNL     1      41.791 -12.837   0.374  1.00  0.00     0.106 A 
HETATM   17  C   UNL     1      41.943 -13.389  -1.962  1.00  0.00     0.040 A 
HETATM   18  O   UNL     1      41.538 -13.409   1.579  1.00  0.00    -0.308 OA
HETATM   19  C   UNL     1      42.108 -11.515   0.151  1.00  0.00     0.040 A 
HETATM   20  C   UNL     1      42.364 -11.124  -1.166  1.00  0.00     0.003 A 
HETATM   21  C   UNL     1      42.286 -12.058  -2.216  1.00  0.00     0.003 A 
ENDBRANCH  10  13
ENDBRANCH   5   9
BRANCH   4  22
HETATM   22  C   UNL     1      43.214 -17.070   3.547  1.00  0.00     0.064 A 
HETATM   23  N   UNL     1      43.915 -16.942   2.375  1.00  0.00    -0.277 N 
HETATM   24  H   UNL     1      44.306 -16.096   1.974  1.00  0.00     0.189 HD
HETATM   25  N   UNL     1      44.074 -18.099   1.709  1.00  0.00    -0.179 NA
HETATM   26  C   UNL     1      43.477 -19.008   2.487  1.00  0.00     0.053 A 
HETATM   27  C   UNL     1      43.446 -20.437   2.094  1.00  0.00     0.072 C 
HETATM   28  C   UNL     1      42.936 -18.418   3.651  1.00  0.00     0.060 A 
ENDBRANCH   4  22
TORSDOF 3
ENDMDL
MODEL 6
REMARK VINA RESULT:      -7.7      3.101      6.017
REMARK  3 active torsions:
REMARK  status: ('A' for Active; 'I' for Inactive)
REMARK    1  A    between atoms: C_4  and  C_5 
REMARK    2  A    between atoms: C_12  and  N_13 
REMARK       I    between atoms: N_13  and  C_14 
REMARK    3  A    between atoms: C_14  and  C_15 
ROOT
HETATM    1  C   UNL     1      44.240 -17.925   5.419  1.00  0.00     0.048 C 
HETATM    2  C   UNL     1      43.046 -17.254   4.806  1.00  0.00    -0.060 A 
HETATM    3  C   UNL     1      42.538 -16.071   5.342  1.00  0.00     0.023 A 
HETATM    4  C   UNL     1      41.445 -15.421   4.748  1.00  0.00     0.020 A 
HETATM    5  C   UNL     1      40.839 -15.967   3.587  1.00  0.00     0.053 A 
HETATM    6  C   UNL     1      41.395 -17.119   2.995  1.00  0.00    -0.034 A 
HETATM    7  C   UNL     1      41.026 -17.651   1.636  1.00  0.00     0.050 C 
HETATM    8  C   UNL     1      42.474 -17.763   3.637  1.00  0.00     0.015 A 
ENDROOT
BRANCH   5   9
HETATM    9  N   UNL     1      39.828 -15.208   2.968  1.00  0.00    -0.322 N 
HETATM   10  C   UNL     1      39.864 -14.231   2.016  1.00  0.00     0.278 C 
HETATM   11  O   UNL     1      38.802 -13.624   1.811  1.00  0.00    -0.268 OA
HETATM   12  H   UNL     1      38.874 -15.485   3.182  1.00  0.00     0.169 HD
BRANCH  10  13
HETATM   13  C   UNL     1      41.091 -13.983   1.094  1.00  0.00     0.366 C 
HETATM   14  O   UNL     1      41.078 -14.371  -0.279  1.00  0.00    -0.308 OA
HETATM   15  C   UNL     1      41.710 -13.319  -0.861  1.00  0.00     0.106 A 
HETATM   16  C   UNL     1      41.899 -12.281   0.019  1.00  0.00     0.106 A 
HETATM   17  C   UNL     1      42.136 -13.250  -2.170  1.00  0.00     0.040 A 
HETATM   18  O   UNL     1      41.422 -12.572   1.256  1.00  0.00    -0.308 OA
HETATM   19  C   UNL     1      42.512 -11.107  -0.362  1.00  0.00     0.040 A 
HETATM   20  C   UNL     1      42.964 -11.011  -1.681  1.00  0.00     0.003 A 
HETATM   21  C   UNL     1      42.779 -12.079  -2.579  1.00  0.00     0.003 A 
ENDBRANCH  10  13
ENDBRANCH   5   9
BRANCH   4  22
HETATM   22  C   UNL     1      40.961 -14.191   5.379  1.00  0.00     0.064 A 
HETATM   23  N   UNL     1      39.958 -14.163   6.315  1.00  0.00    -0.277 N 
HETATM   24  H   UNL     1      39.431 -14.948   6.684  1.00  0.00     0.189 HD
HETATM   25  N   UNL     1      39.669 -12.930   6.763  1.00  0.00    -0.179 NA
HETATM   26  C   UNL     1      40.529 -12.137   6.115  1.00  0.00     0.053 A 
HETATM   27  C   UNL     1      40.532 -10.673   6.349  1.00  0.00     0.072 C 
HETATM   28  C   UNL     1      41.364 -12.878   5.249  1.00  0.00     0.060 A 
ENDBRANCH   4  22
TORSDOF 3
ENDMDL
MODEL 7
REMARK VINA RESULT:      -7.5      3.016      5.133
REMARK  3 active torsions:
REMARK  status: ('A' for Active; 'I' for Inactive)
REMARK    1  A    between atoms: C_4  and  C_5 
REMARK    2  A    between atoms: C_12  and  N_13 
REMARK       I    between atoms: N_13  and  C_14 
REMARK    3  A    between atoms: C_14  and  C_15 
ROOT
HETATM    1  C   UNL     1      43.660 -10.250  -1.756  1.00  0.00     0.048 C 
HETATM    2  C   UNL     1      42.752 -11.203  -1.037  1.00  0.00    -0.060 A 
HETATM    3  C   UNL     1      42.255 -10.899   0.231  1.00  0.00     0.023 A 
HETATM    4  C   UNL     1      41.375 -11.772   0.889  1.00  0.00     0.020 A 
HETATM    5  C   UNL     1      40.979 -12.983   0.267  1.00  0.00     0.053 A 
HETATM    6  C   UNL     1      41.415 -13.261  -1.045  1.00  0.00    -0.034 A 
HETATM    7  C   UNL     1      40.873 -14.363  -1.916  1.00  0.00     0.050 C 
HETATM    8  C   UNL     1      42.324 -12.377  -1.664  1.00  0.00     0.015 A 
ENDROOT
BRANCH   5   9
HETATM    9  N   UNL     1      40.002 -13.757   0.921  1.00  0.00    -0.322 N 
HETATM   10  C   UNL     1      40.076 -14.917   1.636  1.00  0.00     0.278 C 
HETATM   11  O   UNL     1      38.996 -15.450   1.933  1.00  0.00    -0.268 OA
HETATM   12  H   UNL     1      39.073 -13.350   0.965  1.00  0.00     0.169 HD
BRANCH  10  13
HETATM   13  C   UNL     1      41.403 -15.477   2.220  1.00  0.00     0.366 C 
HETATM   14  O   UNL     1      41.421 -16.226   3.434  1.00  0.00    -0.308 OA
HETATM   15  C   UNL     1      42.329 -17.193   3.139  1.00  0.00     0.106 A 
HETATM   16  C   UNL     1      42.676 -17.185   1.810  1.00  0.00     0.106 A 
HETATM   17  C   UNL     1      42.873 -18.095   4.027  1.00  0.00     0.040 A 
HETATM   18  O   UNL     1      42.037 -16.202   1.126  1.00  0.00    -0.308 OA
HETATM   19  C   UNL     1      43.576 -18.088   1.286  1.00  0.00     0.040 A 
HETATM   20  C   UNL     1      44.152 -19.010   2.165  1.00  0.00     0.003 A 
HETATM   21  C   UNL     1      43.804 -19.010   3.529  1.00  0.00     0.003 A 
ENDBRANCH  10  13
ENDBRANCH   5   9
BRANCH   4  22
HETATM   22  C   UNL     1      40.909 -11.388   2.223  1.00  0.00     0.064 A 
HETATM   23  N   UNL     1      41.585 -11.691   3.378  1.00  0.00    -0.277 N 
HETATM   24  H   UNL     1      42.458 -12.200   3.471  1.00  0.00     0.189 HD
HETATM   25  N   UNL     1      40.982 -11.245   4.492  1.00  0.00    -0.179 NA
HETATM   26  C   UNL     1      39.892 -10.614   4.043  1.00  0.00     0.053 A 
HETATM   27  C   UNL     1      38.951  -9.964   4.986  1.00  0.00     0.072 C 
HETATM   28  C   UNL     1      39.809 -10.663   2.633  1.00  0.00     0.060 A 
ENDBRANCH   4  22
TORSDOF 3
ENDMDL
MODEL 8
REMARK VINA RESULT:      -7.3      3.561      6.757
REMARK  3 active torsions:
REMARK  status: ('A' for Active; 'I' for Inactive)
REMARK    1  A    between atoms: C_4  and  C_5 
REMARK    2  A    between atoms: C_12  and  N_13 
REMARK       I    between atoms: N_13  and  C_14 
REMARK    3  A    between atoms: C_14  and  C_15 
ROOT
HETATM    1  C   UNL     1      38.514  -9.448   2.257  1.00  0.00     0.048 C 
HETATM    2  C   UNL     1      38.948 -10.880   2.138  1.00  0.00    -0.060 A 
HETATM    3  C   UNL     1      40.094 -11.335   2.789  1.00  0.00     0.023 A 
HETATM    4  C   UNL     1      40.481 -12.682   2.710  1.00  0.00     0.020 A 
HETATM    5  C   UNL     1      39.704 -13.601   1.961  1.00  0.00     0.053 A 
HETATM    6  C   UNL     1      38.503 -13.166   1.365  1.00  0.00    -0.034 A 
HETATM    7  C   UNL     1      37.458 -14.073   0.771  1.00  0.00     0.050 C 
HETATM    8  C   UNL     1      38.161 -11.799   1.438  1.00  0.00     0.015 A 
ENDROOT
BRANCH   5   9
HETATM    9  N   UNL     1      40.073 -14.958   2.018  1.00  0.00    -0.322 N 
HETATM   10  C   UNL     1      40.542 -15.825   1.074  1.00  0.00     0.278 C 
HETATM   11  O   UNL     1      40.600 -17.019   1.404  1.00  0.00    -0.268 OA
HETATM   12  H   UNL     1      40.093 -15.372   2.946  1.00  0.00     0.169 HD
BRANCH  10  13
HETATM   13  C   UNL     1      41.147 -15.364  -0.281  1.00  0.00     0.366 C 
HETATM   14  O   UNL     1      40.317 -15.086  -1.408  1.00  0.00    -0.308 OA
HETATM   15  C   UNL     1      40.925 -13.986  -1.924  1.00  0.00     0.106 A 
HETATM   16  C   UNL     1      41.896 -13.494  -1.086  1.00  0.00     0.106 A 
HETATM   17  C   UNL     1      40.643 -13.396  -3.137  1.00  0.00     0.040 A 
HETATM   18  O   UNL     1      42.018 -14.241   0.041  1.00  0.00    -0.308 OA
HETATM   19  C   UNL     1      42.634 -12.375  -1.406  1.00  0.00     0.040 A 
HETATM   20  C   UNL     1      42.377 -11.760  -2.634  1.00  0.00     0.003 A 
HETATM   21  C   UNL     1      41.389 -12.271  -3.497  1.00  0.00     0.003 A 
ENDBRANCH  10  13
ENDBRANCH   5   9
BRANCH   4  22
HETATM   22  C   UNL     1      41.705 -13.079   3.409  1.00  0.00     0.064 A 
HETATM   23  N   UNL     1      42.934 -13.155   2.802  1.00  0.00    -0.277 N 
HETATM   24  H   UNL     1      43.160 -12.962   1.832  1.00  0.00     0.189 HD
HETATM   25  N   UNL     1      43.922 -13.541   3.626  1.00  0.00    -0.179 NA
HETATM   26  C   UNL     1      43.319 -13.697   4.809  1.00  0.00     0.053 A 
HETATM   27  C   UNL     1      44.092 -14.116   6.003  1.00  0.00     0.072 C 
HETATM   28  C   UNL     1      41.938 -13.408   4.729  1.00  0.00     0.060 A 
ENDBRANCH   4  22
TORSDOF 3
ENDMDL
MODEL 9
REMARK VINA RESULT:      -7.3      3.507      5.807
REMARK  3 active torsions:
REMARK  status: ('A' for Active; 'I' for Inactive)
REMARK    1  A    between atoms: C_4  and  C_5 
REMARK    2  A    between atoms: C_12  and  N_13 
REMARK       I    between atoms: N_13  and  C_14 
REMARK    3  A    between atoms: C_14  and  C_15 
ROOT
HETATM    1  C   UNL     1      42.435 -18.514   5.895  1.00  0.00     0.048 C 
HETATM    2  C   UNL     1      42.417 -17.307   5.003  1.00  0.00    -0.060 A 
HETATM    3  C   UNL     1      41.853 -16.107   5.436  1.00  0.00     0.023 A 
HETATM    4  C   UNL     1      41.870 -14.966   4.618  1.00  0.00     0.020 A 
HETATM    5  C   UNL     1      42.464 -15.023   3.332  1.00  0.00     0.053 A 
HETATM    6  C   UNL     1      43.104 -16.209   2.919  1.00  0.00    -0.034 A 
HETATM    7  C   UNL     1      43.991 -16.331   1.708  1.00  0.00     0.050 C 
HETATM    8  C   UNL     1      43.041 -17.345   3.753  1.00  0.00     0.015 A 
ENDROOT
BRANCH   5   9
HETATM    9  N   UNL     1      42.558 -13.819   2.609  1.00  0.00    -0.322 N 
HETATM   10  C   UNL     1      42.113 -13.452   1.372  1.00  0.00     0.278 C 
HETATM   11  O   UNL     1      42.521 -12.363   0.942  1.00  0.00    -0.268 OA
HETATM   12  H   UNL     1      42.943 -13.028   3.116  1.00  0.00     0.169 HD
BRANCH  10  13
HETATM   13  C   UNL     1      41.020 -14.234   0.592  1.00  0.00     0.366 C 
HETATM   14  O   UNL     1      39.831 -13.591   0.134  1.00  0.00    -0.308 OA
HETATM   15  C   UNL     1      39.672 -14.160  -1.089  1.00  0.00     0.106 A 
HETATM   16  C   UNL     1      40.763 -14.912  -1.453  1.00  0.00     0.106 A 
HETATM   17  C   UNL     1      38.570 -14.036  -1.906  1.00  0.00     0.040 A 
HETATM   18  O   UNL     1      41.722 -14.911  -0.491  1.00  0.00    -0.308 OA
HETATM   19  C   UNL     1      40.823 -15.572  -2.661  1.00  0.00     0.040 A 
HETATM   20  C   UNL     1      39.715 -15.472  -3.508  1.00  0.00     0.003 A 
HETATM   21  C   UNL     1      38.592 -14.711  -3.129  1.00  0.00     0.003 A 
ENDBRANCH  10  13
ENDBRANCH   5   9
BRANCH   4  22
HETATM   22  C   UNL     1      41.244 -13.749   5.138  1.00  0.00     0.064 A 
HETATM   23  N   UNL     1      39.899 -13.493   5.056  1.00  0.00    -0.277 N 
HETATM   24  H   UNL     1      39.180 -14.077   4.641  1.00  0.00     0.189 HD
HETATM   25  N   UNL     1      39.536 -12.317   5.595  1.00  0.00    -0.179 NA
HETATM   26  C   UNL     1      40.680 -11.806   6.063  1.00  0.00     0.053 A 
HETATM   27  C   UNL     1      40.697 -10.493   6.751  1.00  0.00     0.072 C 
HETATM   28  C   UNL     1      41.772 -12.667   5.814  1.00  0.00     0.060 A 
ENDBRANCH   4  22
TORSDOF 3
ENDMDL
MODEL 10
REMARK VINA RESULT:      -7.1      3.844      6.997
REMARK  3 active torsions:
REMARK  status: ('A' for Active; 'I' for Inactive)
REMARK    1  A    between atoms: C_4  and  C_5 
REMARK    2  A    between atoms: C_12  and  N_13 
REMARK       I    between atoms: N_13  and  C_14 
REMARK    3  A    between atoms: C_14  and  C_15 
ROOT
HETATM    1  C   UNL     1      37.070 -14.951  -3.813  1.00  0.00     0.048 C 
HETATM    2  C   UNL     1      38.166 -14.271  -3.045  1.00  0.00    -0.060 A 
HETATM    3  C   UNL     1      37.884 -13.552  -1.884  1.00  0.00     0.023 A 
HETATM    4  C   UNL     1      38.912 -12.947  -1.143  1.00  0.00     0.020 A 
HETATM    5  C   UNL     1      40.259 -13.061  -1.573  1.00  0.00     0.053 A 
HETATM    6  C   UNL     1      40.559 -13.851  -2.702  1.00  0.00    -0.034 A 
HETATM    7  C   UNL     1      41.945 -14.272  -3.113  1.00  0.00     0.050 C 
HETATM    8  C   UNL     1      39.498 -14.418  -3.440  1.00  0.00     0.015 A 
ENDROOT
BRANCH   5   9
HETATM    9  N   UNL     1      41.254 -12.539  -0.726  1.00  0.00    -0.322 N 
HETATM   10  C   UNL     1      41.797 -12.990   0.442  1.00  0.00     0.278 C 
HETATM   11  O   UNL     1      42.536 -12.198   1.047  1.00  0.00    -0.268 OA
HETATM   12  H   UNL     1      41.746 -11.721  -1.074  1.00  0.00     0.169 HD
BRANCH  10  13
HETATM   13  C   UNL     1      41.668 -14.459   0.932  1.00  0.00     0.366 C 
HETATM   14  O   UNL     1      42.163 -15.547   0.153  1.00  0.00    -0.308 OA
HETATM   15  C   UNL     1      42.697 -16.344   1.114  1.00  0.00     0.106 A 
HETATM   16  C   UNL     1      42.734 -15.721   2.338  1.00  0.00     0.106 A 
HETATM   17  C   UNL     1      43.158 -17.631   0.940  1.00  0.00     0.040 A 
HETATM   18  O   UNL     1      42.211 -14.469   2.285  1.00  0.00    -0.308 OA
HETATM   19  C   UNL     1      43.246 -16.342   3.457  1.00  0.00     0.040 A 
HETATM   20  C   UNL     1      43.712 -17.652   3.312  1.00  0.00     0.003 A 
HETATM   21  C   UNL     1      43.665 -18.294   2.060  1.00  0.00     0.003 A 
ENDBRANCH  10  13
ENDBRANCH   5   9
BRANCH   4  22
HETATM   22  C   UNL     1      38.534 -12.197   0.056  1.00  0.00     0.064 A 
HETATM   23  N   UNL     1      38.385 -12.770   1.294  1.00  0.00    -0.277 N 
HETATM   24  H   UNL     1      38.506 -13.746   1.545  1.00  0.00     0.189 HD
HETATM   25  N   UNL     1      38.033 -11.901   2.255  1.00  0.00    -0.179 NA
HETATM   26  C   UNL     1      37.975 -10.723   1.625  1.00  0.00     0.053 A 
HETATM   27  C   UNL     1      37.619  -9.487   2.362  1.00  0.00     0.072 C 
HETATM   28  C   UNL     1      38.292 -10.853   0.254  1.00  0.00     0.060 A 
ENDBRANCH   4  22
TORSDOF 3
ENDMDL
