MODEL 1
REMARK VINA RESULT:     -10.0      0.000      0.000
REMARK  8 active torsions:
REMARK  status: ('A' for Active; 'I' for Inactive)
REMARK    1  A    between atoms: C_6  and  S_7 
REMARK    2  A    between atoms: S_7  and  C_8 
REMARK    3  A    between atoms: C_8  and  C_9 
REMARK       I    between atoms: C_9  and  N_10 
REMARK    4  A    between atoms: N_10  and  C_11 
REMARK    5  A    between atoms: C_24  and  C_25 
REMARK    6  A    between atoms: C_25  and  C_26 
REMARK       I    between atoms: C_26  and  N_27 
REMARK    7  A    between atoms: N_27  and  C_28 
REMARK    8  A    between atoms: C_28  and  C_29 
ROOT
HETATM    1  C   UNL     1      38.935 -10.633   3.742  1.00  0.00     0.001 A 
HETATM    2  C   UNL     1      39.721 -11.580   4.399  1.00  0.00     0.018 A 
HETATM    3  C   UNL     1      39.855 -12.855   3.849  1.00  0.00     0.039 A 
HETATM    4  C   UNL     1      39.223 -13.195   2.648  1.00  0.00     0.073 A 
HETATM    5  N   UNL     1      39.408 -14.439   2.033  1.00  0.00    -0.223 NA
HETATM    6  C   UNL     1      40.148 -15.313   2.630  1.00  0.00     0.178 C 
HETATM    7  N   UNL     1      40.694 -15.122   3.890  1.00  0.00    -0.241 N 
HETATM    8  C   UNL     1      40.642 -13.909   4.499  1.00  0.00     0.147 A 
HETATM    9  N   UNL     1      41.300 -13.766   5.613  1.00  0.00    -0.256 NA
HETATM   10  C   UNL     1      41.415 -15.967   4.699  1.00  0.00     0.257 A 
HETATM   11  O   UNL     1      41.684 -17.151   4.570  1.00  0.00    -0.270 OA
HETATM   12  C   UNL     1      41.863 -15.124   5.877  1.00  0.00     0.211 A 
HETATM   13  C   UNL     1      38.435 -12.242   2.005  1.00  0.00     0.032 A 
HETATM   14  C   UNL     1      38.288 -10.966   2.550  1.00  0.00     0.002 A 
ENDROOT
BRANCH  12  15
HETATM   15  C   UNL     1      43.383 -15.106   6.034  1.00  0.00     0.140 C 
BRANCH  15  16
HETATM   16  C   UNL     1      43.824 -15.289   7.477  1.00  0.00     0.220 C 
HETATM   17  N   UNL     1      44.431 -14.271   8.139  1.00  0.00    -0.357 N 
HETATM   18  H   UNL     1      44.648 -14.480   9.106  1.00  0.00     0.162 HD
HETATM   19  O   UNL     1      43.656 -16.353   8.078  1.00  0.00    -0.274 OA
BRANCH  17  20
HETATM   20  C   UNL     1      44.595 -12.897   7.709  1.00  0.00     0.161 C 
BRANCH  20  21
HETATM   21  C   UNL     1      44.299 -11.937   8.834  1.00  0.00    -0.038 A 
HETATM   22  C   UNL     1      43.097 -11.212   8.844  1.00  0.00     0.048 A 
HETATM   23  C   UNL     1      42.862 -10.354   9.900  1.00  0.00     0.105 A 
HETATM   24  C   UNL     1      43.762 -10.202  10.926  1.00  0.00     0.105 A 
HETATM   25  O   UNL     1      41.757  -9.579  10.061  1.00  0.00    -0.323 OA
HETATM   26  O   UNL     1      43.336  -9.315  11.865  1.00  0.00    -0.323 OA
HETATM   27  C   UNL     1      44.951 -10.897  10.955  1.00  0.00     0.040 A 
HETATM   28  C   UNL     1      42.068  -8.916  11.304  1.00  0.00     0.352 A 
HETATM   29  C   UNL     1      45.223 -11.768   9.894  1.00  0.00     0.012 A 
ENDBRANCH  20  21
ENDBRANCH  17  20
ENDBRANCH  15  16
ENDBRANCH  12  15
BRANCH   6  30
HETATM   30  S   UNL     1      40.557 -16.749   1.732  1.00  0.00    -0.082 SA
BRANCH  30  31
HETATM   31  C   UNL     1      42.217 -16.242   1.168  1.00  0.00     0.185 C 
BRANCH  31  32
HETATM   32  C   UNL     1      43.281 -17.305   1.451  1.00  0.00     0.232 C 
HETATM   33  N   UNL     1      42.781 -18.404   2.139  1.00  0.00    -0.324 N 
HETATM   34  H   UNL     1      41.783 -18.391   2.365  1.00  0.00     0.169 HD
HETATM   35  O   UNL     1      44.439 -17.126   1.092  1.00  0.00    -0.272 OA
BRANCH  33  36
HETATM   36  C   UNL     1      43.471 -19.546   2.620  1.00  0.00     0.073 A 
HETATM   37  C   UNL     1      44.191 -19.651   3.815  1.00  0.00     0.143 A 
HETATM   38  F   UNL     1      44.350 -18.622   4.654  1.00  0.00    -0.204 F 
HETATM   39  C   UNL     1      44.827 -20.844   4.174  1.00  0.00     0.044 A 
HETATM   40  C   UNL     1      44.758 -21.961   3.345  1.00  0.00     0.003 A 
HETATM   41  C   UNL     1      44.052 -21.879   2.151  1.00  0.00     0.002 A 
HETATM   42  C   UNL     1      43.418 -20.684   1.793  1.00  0.00     0.033 A 
ENDBRANCH  33  36
ENDBRANCH  31  32
ENDBRANCH  30  31
ENDBRANCH   6  30
TORSDOF 8
ENDMDL
MODEL 2
REMARK VINA RESULT:      -9.9      3.421      9.780
REMARK  8 active torsions:
REMARK  status: ('A' for Active; 'I' for Inactive)
REMARK    1  A    between atoms: C_6  and  S_7 
REMARK    2  A    between atoms: S_7  and  C_8 
REMARK    3  A    between atoms: C_8  and  C_9 
REMARK       I    between atoms: C_9  and  N_10 
REMARK    4  A    between atoms: N_10  and  C_11 
REMARK    5  A    between atoms: C_24  and  C_25 
REMARK    6  A    between atoms: C_25  and  C_26 
REMARK       I    between atoms: C_26  and  N_27 
REMARK    7  A    between atoms: N_27  and  C_28 
REMARK    8  A    between atoms: C_28  and  C_29 
ROOT
HETATM    1  C   UNL     1      43.408 -19.248   1.705  1.00  0.00     0.001 A 
HETATM    2  C   UNL     1      42.689 -18.101   2.043  1.00  0.00     0.018 A 
HETATM    3  C   UNL     1      42.815 -17.572   3.328  1.00  0.00     0.039 A 
HETATM    4  C   UNL     1      43.655 -18.166   4.276  1.00  0.00     0.073 A 
HETATM    5  N   UNL     1      43.863 -17.608   5.544  1.00  0.00    -0.223 NA
HETATM    6  C   UNL     1      43.212 -16.537   5.856  1.00  0.00     0.178 C 
HETATM    7  N   UNL     1      42.249 -15.962   5.040  1.00  0.00    -0.241 N 
HETATM    8  C   UNL     1      42.068 -16.386   3.763  1.00  0.00     0.147 A 
HETATM    9  N   UNL     1      41.251 -15.705   3.013  1.00  0.00    -0.256 NA
HETATM   10  C   UNL     1      41.408 -14.895   5.251  1.00  0.00     0.257 A 
HETATM   11  O   UNL     1      41.210 -14.227   6.254  1.00  0.00    -0.270 OA
HETATM   12  C   UNL     1      40.707 -14.658   3.928  1.00  0.00     0.211 A 
HETATM   13  C   UNL     1      44.363 -19.316   3.928  1.00  0.00     0.032 A 
HETATM   14  C   UNL     1      44.238 -19.858   2.648  1.00  0.00     0.002 A 
ENDROOT
BRANCH  12  15
HETATM   15  C   UNL     1      40.931 -13.244   3.397  1.00  0.00     0.140 C 
BRANCH  15  16
HETATM   16  C   UNL     1      42.171 -13.135   2.525  1.00  0.00     0.220 C 
HETATM   17  N   UNL     1      42.049 -12.959   1.184  1.00  0.00    -0.357 N 
HETATM   18  H   UNL     1      42.933 -12.856   0.700  1.00  0.00     0.162 HD
HETATM   19  O   UNL     1      43.308 -13.210   2.998  1.00  0.00    -0.274 OA
BRANCH  17  20
HETATM   20  C   UNL     1      40.847 -12.685   0.424  1.00  0.00     0.161 C 
BRANCH  20  21
HETATM   21  C   UNL     1      40.624 -13.733  -0.637  1.00  0.00    -0.038 A 
HETATM   22  C   UNL     1      39.656 -13.532  -1.635  1.00  0.00     0.048 A 
HETATM   23  C   UNL     1      39.495 -14.512  -2.593  1.00  0.00     0.105 A 
HETATM   24  C   UNL     1      40.252 -15.659  -2.594  1.00  0.00     0.105 A 
HETATM   25  O   UNL     1      38.606 -14.478  -3.622  1.00  0.00    -0.323 OA
HETATM   26  O   UNL     1      39.938 -16.489  -3.624  1.00  0.00    -0.323 OA
HETATM   27  C   UNL     1      41.213 -15.893  -1.634  1.00  0.00     0.040 A 
HETATM   28  C   UNL     1      38.886 -15.738  -4.266  1.00  0.00     0.352 A 
HETATM   29  C   UNL     1      41.394 -14.922  -0.644  1.00  0.00     0.012 A 
ENDBRANCH  20  21
ENDBRANCH  17  20
ENDBRANCH  15  16
ENDBRANCH  12  15
BRANCH   6  30
HETATM   30  S   UNL     1      43.670 -15.734   7.332  1.00  0.00    -0.082 SA
BRANCH  30  31
HETATM   31  C   UNL     1      44.768 -14.467   6.611  1.00  0.00     0.185 C 
BRANCH  31  32
HETATM   32  C   UNL     1      45.102 -13.350   7.603  1.00  0.00     0.232 C 
HETATM   33  N   UNL     1      44.014 -12.972   8.381  1.00  0.00    -0.324 N 
HETATM   34  H   UNL     1      43.137 -13.474   8.222  1.00  0.00     0.169 HD
HETATM   35  O   UNL     1      46.231 -12.875   7.636  1.00  0.00    -0.272 OA
BRANCH  33  36
HETATM   36  C   UNL     1      43.927 -11.945   9.357  1.00  0.00     0.073 A 
HETATM   37  C   UNL     1      44.739 -11.789  10.485  1.00  0.00     0.143 A 
HETATM   38  F   UNL     1      45.704 -12.657  10.805  1.00  0.00    -0.204 F 
HETATM   39  C   UNL     1      44.547 -10.724  11.372  1.00  0.00     0.044 A 
HETATM   40  C   UNL     1      43.538  -9.790  11.150  1.00  0.00     0.003 A 
HETATM   41  C   UNL     1      42.717  -9.927  10.038  1.00  0.00     0.002 A 
HETATM   42  C   UNL     1      42.909 -10.994   9.153  1.00  0.00     0.033 A 
ENDBRANCH  33  36
ENDBRANCH  31  32
ENDBRANCH  30  31
ENDBRANCH   6  30
TORSDOF 8
ENDMDL
MODEL 3
REMARK VINA RESULT:      -9.9      3.142      4.830
REMARK  8 active torsions:
REMARK  status: ('A' for Active; 'I' for Inactive)
REMARK    1  A    between atoms: C_6  and  S_7 
REMARK    2  A    between atoms: S_7  and  C_8 
REMARK    3  A    between atoms: C_8  and  C_9 
REMARK       I    between atoms: C_9  and  N_10 
REMARK    4  A    between atoms: N_10  and  C_11 
REMARK    5  A    between atoms: C_24  and  C_25 
REMARK    6  A    between atoms: C_25  and  C_26 
REMARK       I    between atoms: C_26  and  N_27 
REMARK    7  A    between atoms: N_27  and  C_28 
REMARK    8  A    between atoms: C_28  and  C_29 
ROOT
HETATM    1  C   UNL     1      42.323  -9.966  -1.521  1.00  0.00     0.001 A 
HETATM    2  C   UNL     1      41.601 -10.485  -0.446  1.00  0.00     0.018 A 
HETATM    3  C   UNL     1      41.412 -11.864  -0.354  1.00  0.00     0.039 A 
HETATM    4  C   UNL     1      41.941 -12.732  -1.316  1.00  0.00     0.073 A 
HETATM    5  N   UNL     1      41.838 -14.124  -1.203  1.00  0.00    -0.223 NA
HETATM    6  C   UNL     1      41.185 -14.610  -0.201  1.00  0.00     0.178 C 
HETATM    7  N   UNL     1      40.502 -13.830   0.719  1.00  0.00    -0.241 N 
HETATM    8  C   UNL     1      40.641 -12.478   0.732  1.00  0.00     0.147 A 
HETATM    9  N   UNL     1      40.086 -11.826   1.712  1.00  0.00    -0.256 NA
HETATM   10  C   UNL     1      39.692 -14.178   1.774  1.00  0.00     0.257 A 
HETATM   11  O   UNL     1      39.273 -15.269   2.125  1.00  0.00    -0.270 OA
HETATM   12  C   UNL     1      39.376 -12.881   2.494  1.00  0.00     0.211 A 
HETATM   13  C   UNL     1      42.655 -12.200  -2.389  1.00  0.00     0.032 A 
HETATM   14  C   UNL     1      42.843 -10.821  -2.494  1.00  0.00     0.002 A 
ENDROOT
BRANCH  12  15
HETATM   15  C   UNL     1      39.806 -12.911   3.960  1.00  0.00     0.140 C 
BRANCH  15  16
HETATM   16  C   UNL     1      40.812 -11.824   4.297  1.00  0.00     0.220 C 
HETATM   17  N   UNL     1      42.142 -12.097   4.283  1.00  0.00    -0.357 N 
HETATM   18  H   UNL     1      42.730 -11.295   4.481  1.00  0.00     0.162 HD
HETATM   19  O   UNL     1      40.458 -10.681   4.598  1.00  0.00    -0.274 OA
BRANCH  17  20
HETATM   20  C   UNL     1      42.803 -13.297   3.814  1.00  0.00     0.161 C 
BRANCH  20  21
HETATM   21  C   UNL     1      43.147 -14.212   4.963  1.00  0.00    -0.038 A 
HETATM   22  C   UNL     1      42.435 -15.409   5.149  1.00  0.00     0.048 A 
HETATM   23  C   UNL     1      42.792 -16.222   6.206  1.00  0.00     0.105 A 
HETATM   24  C   UNL     1      43.815 -15.893   7.062  1.00  0.00     0.105 A 
HETATM   25  O   UNL     1      42.207 -17.406   6.529  1.00  0.00    -0.323 OA
HETATM   26  O   UNL     1      44.006 -16.830   8.029  1.00  0.00    -0.323 OA
HETATM   27  C   UNL     1      44.539 -14.730   6.912  1.00  0.00     0.040 A 
HETATM   28  C   UNL     1      42.975 -17.782   7.690  1.00  0.00     0.352 A 
HETATM   29  C   UNL     1      44.195 -13.881   5.855  1.00  0.00     0.012 A 
ENDBRANCH  20  21
ENDBRANCH  17  20
ENDBRANCH  15  16
ENDBRANCH  12  15
BRANCH   6  30
HETATM   30  S   UNL     1      41.281 -16.332   0.047  1.00  0.00    -0.082 SA
BRANCH  30  31
HETATM   31  C   UNL     1      42.674 -16.351   1.225  1.00  0.00     0.185 C 
BRANCH  31  32
HETATM   32  C   UNL     1      42.638 -17.567   2.153  1.00  0.00     0.232 C 
HETATM   33  N   UNL     1      43.826 -18.288   2.150  1.00  0.00    -0.324 N 
HETATM   34  H   UNL     1      44.579 -17.933   1.556  1.00  0.00     0.169 HD
HETATM   35  O   UNL     1      41.622 -17.825   2.788  1.00  0.00    -0.272 OA
BRANCH  33  36
HETATM   36  C   UNL     1      44.142 -19.492   2.833  1.00  0.00     0.073 A 
HETATM   37  C   UNL     1      44.588 -19.615   4.153  1.00  0.00     0.143 A 
HETATM   38  F   UNL     1      44.815 -18.557   4.940  1.00  0.00    -0.204 F 
HETATM   39  C   UNL     1      44.864 -20.868   4.709  1.00  0.00     0.044 A 
HETATM   40  C   UNL     1      44.701 -22.028   3.957  1.00  0.00     0.003 A 
HETATM   41  C   UNL     1      44.264 -21.930   2.642  1.00  0.00     0.002 A 
HETATM   42  C   UNL     1      43.990 -20.675   2.087  1.00  0.00     0.033 A 
ENDBRANCH  33  36
ENDBRANCH  31  32
ENDBRANCH  30  31
ENDBRANCH   6  30
TORSDOF 8
ENDMDL
MODEL 4
REMARK VINA RESULT:      -9.8      3.680      9.144
REMARK  8 active torsions:
REMARK  status: ('A' for Active; 'I' for Inactive)
REMARK    1  A    between atoms: C_6  and  S_7 
REMARK    2  A    between atoms: S_7  and  C_8 
REMARK    3  A    between atoms: C_8  and  C_9 
REMARK       I    between atoms: C_9  and  N_10 
REMARK    4  A    between atoms: N_10  and  C_11 
REMARK    5  A    between atoms: C_24  and  C_25 
REMARK    6  A    between atoms: C_25  and  C_26 
REMARK       I    between atoms: C_26  and  N_27 
REMARK    7  A    between atoms: N_27  and  C_28 
REMARK    8  A    between atoms: C_28  and  C_29 
ROOT
HETATM    1  C   UNL     1      44.562 -20.970   2.337  1.00  0.00     0.001 A 
HETATM    2  C   UNL     1      43.639 -19.932   2.200  1.00  0.00     0.018 A 
HETATM    3  C   UNL     1      43.316 -19.156   3.314  1.00  0.00     0.039 A 
HETATM    4  C   UNL     1      43.907 -19.397   4.559  1.00  0.00     0.073 A 
HETATM    5  N   UNL     1      43.664 -18.581   5.671  1.00  0.00    -0.223 NA
HETATM    6  C   UNL     1      42.823 -17.609   5.545  1.00  0.00     0.178 C 
HETATM    7  N   UNL     1      42.079 -17.385   4.397  1.00  0.00    -0.241 N 
HETATM    8  C   UNL     1      42.335 -18.068   3.251  1.00  0.00     0.147 A 
HETATM    9  N   UNL     1      41.697 -17.702   2.177  1.00  0.00    -0.256 NA
HETATM   10  C   UNL     1      41.088 -16.470   4.127  1.00  0.00     0.257 A 
HETATM   11  O   UNL     1      40.523 -15.674   4.860  1.00  0.00    -0.270 OA
HETATM   12  C   UNL     1      40.783 -16.620   2.650  1.00  0.00     0.211 A 
HETATM   13  C   UNL     1      44.822 -20.441   4.684  1.00  0.00     0.032 A 
HETATM   14  C   UNL     1      45.147 -21.228   3.578  1.00  0.00     0.002 A 
ENDROOT
BRANCH  12  15
HETATM   15  C   UNL     1      40.977 -15.314   1.881  1.00  0.00     0.140 C 
BRANCH  15  16
HETATM   16  C   UNL     1      39.714 -14.860   1.168  1.00  0.00     0.220 C 
HETATM   17  N   UNL     1      39.737 -14.607  -0.165  1.00  0.00    -0.357 N 
HETATM   18  H   UNL     1      38.835 -14.351  -0.551  1.00  0.00     0.162 HD
HETATM   19  O   UNL     1      38.649 -14.702   1.770  1.00  0.00    -0.274 OA
BRANCH  17  20
HETATM   20  C   UNL     1      40.807 -14.868  -1.106  1.00  0.00     0.161 C 
BRANCH  20  21
HETATM   21  C   UNL     1      41.480 -13.587  -1.532  1.00  0.00    -0.038 A 
HETATM   22  C   UNL     1      42.025 -12.722  -0.569  1.00  0.00     0.048 A 
HETATM   23  C   UNL     1      42.643 -11.568  -1.004  1.00  0.00     0.105 A 
HETATM   24  C   UNL     1      42.740 -11.255  -2.338  1.00  0.00     0.105 A 
HETATM   25  O   UNL     1      43.216 -10.625  -0.208  1.00  0.00    -0.323 OA
HETATM   26  O   UNL     1      43.389 -10.079  -2.551  1.00  0.00    -0.323 OA
HETATM   27  C   UNL     1      42.222 -12.078  -3.315  1.00  0.00     0.040 A 
HETATM   28  C   UNL     1      43.679  -9.681  -1.195  1.00  0.00     0.352 A 
HETATM   29  C   UNL     1      41.581 -13.251  -2.904  1.00  0.00     0.012 A 
ENDBRANCH  20  21
ENDBRANCH  17  20
ENDBRANCH  15  16
ENDBRANCH  12  15
BRANCH   6  30
HETATM   30  S   UNL     1      42.724 -16.472   6.861  1.00  0.00    -0.082 SA
BRANCH  30  31
HETATM   31  C   UNL     1      44.104 -15.383   6.370  1.00  0.00     0.185 C 
BRANCH  31  32
HETATM   32  C   UNL     1      43.622 -14.099   5.692  1.00  0.00     0.232 C 
HETATM   33  N   UNL     1      42.460 -13.589   6.257  1.00  0.00    -0.324 N 
HETATM   34  H   UNL     1      42.069 -14.103   7.050  1.00  0.00     0.169 HD
HETATM   35  O   UNL     1      44.241 -13.638   4.739  1.00  0.00    -0.272 OA
BRANCH  33  36
HETATM   36  C   UNL     1      41.696 -12.459   5.864  1.00  0.00     0.073 A 
HETATM   37  C   UNL     1      41.567 -11.252   6.558  1.00  0.00     0.143 A 
HETATM   38  F   UNL     1      42.143 -11.036   7.745  1.00  0.00    -0.204 F 
HETATM   39  C   UNL     1      40.779 -10.210   6.056  1.00  0.00     0.044 A 
HETATM   40  C   UNL     1      40.102 -10.353   4.848  1.00  0.00     0.003 A 
HETATM   41  C   UNL     1      40.213 -11.545   4.143  1.00  0.00     0.002 A 
HETATM   42  C   UNL     1      40.999 -12.586   4.648  1.00  0.00     0.033 A 
ENDBRANCH  33  36
ENDBRANCH  31  32
ENDBRANCH  30  31
ENDBRANCH   6  30
TORSDOF 8
ENDMDL
MODEL 5
REMARK VINA RESULT:      -9.7      2.951      9.861
REMARK  8 active torsions:
REMARK  status: ('A' for Active; 'I' for Inactive)
REMARK    1  A    between atoms: C_6  and  S_7 
REMARK    2  A    between atoms: S_7  and  C_8 
REMARK    3  A    between atoms: C_8  and  C_9 
REMARK       I    between atoms: C_9  and  N_10 
REMARK    4  A    between atoms: N_10  and  C_11 
REMARK    5  A    between atoms: C_24  and  C_25 
REMARK    6  A    between atoms: C_25  and  C_26 
REMARK       I    between atoms: C_26  and  N_27 
REMARK    7  A    between atoms: N_27  and  C_28 
REMARK    8  A    between atoms: C_28  and  C_29 
ROOT
HETATM    1  C   UNL     1      43.640 -19.339   5.689  1.00  0.00     0.001 A 
HETATM    2  C   UNL     1      42.685 -18.383   5.344  1.00  0.00     0.018 A 
HETATM    3  C   UNL     1      42.861 -17.063   5.760  1.00  0.00     0.039 A 
HETATM    4  C   UNL     1      43.981 -16.683   6.507  1.00  0.00     0.073 A 
HETATM    5  N   UNL     1      44.224 -15.351   6.864  1.00  0.00    -0.223 NA
HETATM    6  C   UNL     1      43.351 -14.460   6.533  1.00  0.00     0.178 C 
HETATM    7  N   UNL     1      42.142 -14.761   5.924  1.00  0.00    -0.241 N 
HETATM    8  C   UNL     1      41.885 -16.011   5.458  1.00  0.00     0.147 A 
HETATM    9  N   UNL     1      40.793 -16.183   4.770  1.00  0.00    -0.256 NA
HETATM   10  C   UNL     1      41.074 -13.961   5.592  1.00  0.00     0.257 A 
HETATM   11  O   UNL     1      40.859 -12.784   5.836  1.00  0.00    -0.270 OA
HETATM   12  C   UNL     1      40.127 -14.847   4.807  1.00  0.00     0.211 A 
HETATM   13  C   UNL     1      44.925 -17.650   6.851  1.00  0.00     0.032 A 
HETATM   14  C   UNL     1      44.755 -18.975   6.447  1.00  0.00     0.002 A 
ENDROOT
BRANCH  12  15
HETATM   15  C   UNL     1      39.840 -14.298   3.411  1.00  0.00     0.140 C 
BRANCH  15  16
HETATM   16  C   UNL     1      41.107 -13.958   2.644  1.00  0.00     0.220 C 
HETATM   17  N   UNL     1      41.700 -14.893   1.858  1.00  0.00    -0.357 N 
HETATM   18  H   UNL     1      42.514 -14.555   1.357  1.00  0.00     0.162 HD
HETATM   19  O   UNL     1      41.632 -12.844   2.716  1.00  0.00    -0.274 OA
BRANCH  17  20
HETATM   20  C   UNL     1      41.198 -16.200   1.489  1.00  0.00     0.161 C 
BRANCH  20  21
HETATM   21  C   UNL     1      42.238 -17.268   1.721  1.00  0.00    -0.038 A 
HETATM   22  C   UNL     1      41.876 -18.625   1.686  1.00  0.00     0.048 A 
HETATM   23  C   UNL     1      42.863 -19.568   1.891  1.00  0.00     0.105 A 
HETATM   24  C   UNL     1      44.171 -19.212   2.118  1.00  0.00     0.105 A 
HETATM   25  O   UNL     1      42.685 -20.915   1.894  1.00  0.00    -0.323 OA
HETATM   26  O   UNL     1      44.981 -20.292   2.289  1.00  0.00    -0.323 OA
HETATM   27  C   UNL     1      44.567 -17.893   2.156  1.00  0.00     0.040 A 
HETATM   28  C   UNL     1      44.029 -21.368   2.156  1.00  0.00     0.352 A 
HETATM   29  C   UNL     1      43.588 -16.914   1.962  1.00  0.00     0.012 A 
ENDBRANCH  20  21
ENDBRANCH  17  20
ENDBRANCH  15  16
ENDBRANCH  12  15
BRANCH   6  30
HETATM   30  S   UNL     1      43.792 -12.792   6.772  1.00  0.00    -0.082 SA
BRANCH  30  31
HETATM   31  C   UNL     1      44.756 -12.993   8.310  1.00  0.00     0.185 C 
BRANCH  31  32
HETATM   32  C   UNL     1      44.519 -11.852   9.301  1.00  0.00     0.232 C 
HETATM   33  N   UNL     1      43.451 -12.089  10.158  1.00  0.00    -0.324 N 
HETATM   34  H   UNL     1      42.960 -12.980  10.047  1.00  0.00     0.169 HD
HETATM   35  O   UNL     1      45.229 -10.853   9.270  1.00  0.00    -0.272 OA
BRANCH  33  36
HETATM   36  C   UNL     1      42.904 -11.246  11.159  1.00  0.00     0.073 A 
HETATM   37  C   UNL     1      41.549 -10.984  11.387  1.00  0.00     0.143 A 
HETATM   38  F   UNL     1      40.577 -11.492  10.622  1.00  0.00    -0.204 F 
HETATM   39  C   UNL     1      41.141 -10.129  12.417  1.00  0.00     0.044 A 
HETATM   40  C   UNL     1      42.079  -9.516  13.242  1.00  0.00     0.003 A 
HETATM   41  C   UNL     1      43.431  -9.758  13.032  1.00  0.00     0.002 A 
HETATM   42  C   UNL     1      43.837 -10.612  12.000  1.00  0.00     0.033 A 
ENDBRANCH  33  36
ENDBRANCH  31  32
ENDBRANCH  30  31
ENDBRANCH   6  30
TORSDOF 8
ENDMDL
MODEL 6
REMARK VINA RESULT:      -9.7      3.966      8.435
REMARK  8 active torsions:
REMARK  status: ('A' for Active; 'I' for Inactive)
REMARK    1  A    between atoms: C_6  and  S_7 
REMARK    2  A    between atoms: S_7  and  C_8 
REMARK    3  A    between atoms: C_8  and  C_9 
REMARK       I    between atoms: C_9  and  N_10 
REMARK    4  A    between atoms: N_10  and  C_11 
REMARK    5  A    between atoms: C_24  and  C_25 
REMARK    6  A    between atoms: C_25  and  C_26 
REMARK       I    between atoms: C_26  and  N_27 
REMARK    7  A    between atoms: N_27  and  C_28 
REMARK    8  A    between atoms: C_28  and  C_29 
ROOT
HETATM    1  C   UNL     1      44.459 -15.402   6.908  1.00  0.00     0.001 A 
HETATM    2  C   UNL     1      43.613 -15.856   5.896  1.00  0.00     0.018 A 
HETATM    3  C   UNL     1      42.695 -14.971   5.327  1.00  0.00     0.039 A 
HETATM    4  C   UNL     1      42.617 -13.640   5.749  1.00  0.00     0.073 A 
HETATM    5  N   UNL     1      41.764 -12.712   5.139  1.00  0.00    -0.223 NA
HETATM    6  C   UNL     1      40.991 -13.123   4.190  1.00  0.00     0.178 C 
HETATM    7  N   UNL     1      40.891 -14.451   3.805  1.00  0.00    -0.241 N 
HETATM    8  C   UNL     1      41.756 -15.386   4.279  1.00  0.00     0.147 A 
HETATM    9  N   UNL     1      41.695 -16.579   3.764  1.00  0.00    -0.256 NA
HETATM   10  C   UNL     1      40.066 -15.068   2.894  1.00  0.00     0.257 A 
HETATM   11  O   UNL     1      39.126 -14.629   2.251  1.00  0.00    -0.270 OA
HETATM   12  C   UNL     1      40.550 -16.503   2.808  1.00  0.00     0.211 A 
HETATM   13  C   UNL     1      43.463 -13.201   6.767  1.00  0.00     0.032 A 
HETATM   14  C   UNL     1      44.380 -14.079   7.347  1.00  0.00     0.002 A 
ENDROOT
BRANCH  12  15
HETATM   15  C   UNL     1      40.948 -16.896   1.387  1.00  0.00     0.140 C 
BRANCH  15  16
HETATM   16  C   UNL     1      42.346 -16.428   1.019  1.00  0.00     0.220 C 
HETATM   17  N   UNL     1      43.345 -17.331   0.845  1.00  0.00    -0.357 N 
HETATM   18  H   UNL     1      44.227 -16.921   0.561  1.00  0.00     0.162 HD
HETATM   19  O   UNL     1      42.615 -15.233   0.876  1.00  0.00    -0.274 OA
BRANCH  17  20
HETATM   20  C   UNL     1      43.246 -18.776   0.801  1.00  0.00     0.161 C 
BRANCH  20  21
HETATM   21  C   UNL     1      43.727 -19.393   2.090  1.00  0.00    -0.038 A 
HETATM   22  C   UNL     1      43.920 -20.782   2.178  1.00  0.00     0.048 A 
HETATM   23  C   UNL     1      44.373 -21.303   3.373  1.00  0.00     0.105 A 
HETATM   24  C   UNL     1      44.641 -20.503   4.458  1.00  0.00     0.105 A 
HETATM   25  O   UNL     1      44.608 -22.617   3.628  1.00  0.00    -0.323 OA
HETATM   26  O   UNL     1      45.081 -21.214   5.531  1.00  0.00    -0.323 OA
HETATM   27  C   UNL     1      44.468 -19.137   4.411  1.00  0.00     0.040 A 
HETATM   28  C   UNL     1      45.047 -22.555   5.000  1.00  0.00     0.352 A 
HETATM   29  C   UNL     1      44.001 -18.581   3.216  1.00  0.00     0.012 A 
ENDBRANCH  20  21
ENDBRANCH  17  20
ENDBRANCH  15  16
ENDBRANCH  12  15
BRANCH   6  30
HETATM   30  S   UNL     1      40.126 -11.908   3.291  1.00  0.00    -0.082 SA
BRANCH  30  31
HETATM   31  C   UNL     1      41.236 -11.810   1.846  1.00  0.00     0.185 C 
BRANCH  31  32
HETATM   32  C   UNL     1      40.490 -11.992   0.522  1.00  0.00     0.232 C 
HETATM   33  N   UNL     1      40.530 -13.299   0.051  1.00  0.00    -0.324 N 
HETATM   34  H   UNL     1      41.028 -13.982   0.628  1.00  0.00     0.169 HD
HETATM   35  O   UNL     1      39.952 -11.032  -0.017  1.00  0.00    -0.272 OA
BRANCH  33  36
HETATM   36  C   UNL     1      40.006 -13.830  -1.156  1.00  0.00     0.073 A 
HETATM   37  C   UNL     1      38.664 -13.861  -1.546  1.00  0.00     0.143 A 
HETATM   38  F   UNL     1      37.675 -13.410  -0.767  1.00  0.00    -0.204 F 
HETATM   39  C   UNL     1      38.279 -14.416  -2.772  1.00  0.00     0.044 A 
HETATM   40  C   UNL     1      39.230 -14.953  -3.636  1.00  0.00     0.003 A 
HETATM   41  C   UNL     1      40.570 -14.936  -3.268  1.00  0.00     0.002 A 
HETATM   42  C   UNL     1      40.952 -14.383  -2.041  1.00  0.00     0.033 A 
ENDBRANCH  33  36
ENDBRANCH  31  32
ENDBRANCH  30  31
ENDBRANCH   6  30
TORSDOF 8
ENDMDL
MODEL 7
REMARK VINA RESULT:      -9.7      3.115      9.175
REMARK  8 active torsions:
REMARK  status: ('A' for Active; 'I' for Inactive)
REMARK    1  A    between atoms: C_6  and  S_7 
REMARK    2  A    between atoms: S_7  and  C_8 
REMARK    3  A    between atoms: C_8  and  C_9 
REMARK       I    between atoms: C_9  and  N_10 
REMARK    4  A    between atoms: N_10  and  C_11 
REMARK    5  A    between atoms: C_24  and  C_25 
REMARK    6  A    between atoms: C_25  and  C_26 
REMARK       I    between atoms: C_26  and  N_27 
REMARK    7  A    between atoms: N_27  and  C_28 
REMARK    8  A    between atoms: C_28  and  C_29 
ROOT
HETATM    1  C   UNL     1      41.695 -16.656   0.815  1.00  0.00     0.001 A 
HETATM    2  C   UNL     1      42.265 -16.575   2.086  1.00  0.00     0.018 A 
HETATM    3  C   UNL     1      42.239 -15.357   2.768  1.00  0.00     0.039 A 
HETATM    4  C   UNL     1      41.645 -14.224   2.202  1.00  0.00     0.073 A 
HETATM    5  N   UNL     1      41.531 -13.014   2.897  1.00  0.00    -0.223 NA
HETATM    6  C   UNL     1      42.043 -12.938   4.081  1.00  0.00     0.178 C 
HETATM    7  N   UNL     1      42.779 -13.959   4.664  1.00  0.00    -0.241 N 
HETATM    8  C   UNL     1      42.843 -15.190   4.094  1.00  0.00     0.147 A 
HETATM    9  N   UNL     1      43.429 -16.136   4.769  1.00  0.00    -0.256 NA
HETATM   10  C   UNL     1      43.463 -14.012   5.856  1.00  0.00     0.257 A 
HETATM   11  O   UNL     1      43.691 -13.139   6.678  1.00  0.00    -0.270 OA
HETATM   12  C   UNL     1      43.925 -15.449   5.999  1.00  0.00     0.211 A 
HETATM   13  C   UNL     1      41.085 -14.317   0.928  1.00  0.00     0.032 A 
HETATM   14  C   UNL     1      41.112 -15.528   0.235  1.00  0.00     0.002 A 
ENDROOT
BRANCH  12  15
HETATM   15  C   UNL     1      43.407 -16.100   7.281  1.00  0.00     0.140 C 
BRANCH  15  16
HETATM   16  C   UNL     1      42.379 -17.186   7.013  1.00  0.00     0.220 C 
HETATM   17  N   UNL     1      42.780 -18.427   6.637  1.00  0.00    -0.357 N 
HETATM   18  H   UNL     1      42.021 -19.089   6.524  1.00  0.00     0.162 HD
HETATM   19  O   UNL     1      41.168 -16.975   7.118  1.00  0.00    -0.274 OA
BRANCH  17  20
HETATM   20  C   UNL     1      44.127 -18.959   6.600  1.00  0.00     0.161 C 
BRANCH  20  21
HETATM   21  C   UNL     1      44.264 -20.017   5.534  1.00  0.00    -0.038 A 
HETATM   22  C   UNL     1      44.058 -19.690   4.184  1.00  0.00     0.048 A 
HETATM   23  C   UNL     1      44.207 -20.687   3.241  1.00  0.00     0.105 A 
HETATM   24  C   UNL     1      44.553 -21.971   3.591  1.00  0.00     0.105 A 
HETATM   25  O   UNL     1      44.041 -20.542   1.900  1.00  0.00    -0.323 OA
HETATM   26  O   UNL     1      44.651 -22.794   2.513  1.00  0.00    -0.323 OA
HETATM   27  C   UNL     1      44.766 -22.331   4.903  1.00  0.00     0.040 A 
HETATM   28  C   UNL     1      44.315 -21.883   1.445  1.00  0.00     0.352 A 
HETATM   29  C   UNL     1      44.614 -21.344   5.883  1.00  0.00     0.012 A 
ENDBRANCH  20  21
ENDBRANCH  17  20
ENDBRANCH  15  16
ENDBRANCH  12  15
BRANCH   6  30
HETATM   30  S   UNL     1      41.676 -11.513   5.012  1.00  0.00    -0.082 SA
BRANCH  30  31
HETATM   31  C   UNL     1      40.383 -12.225   6.085  1.00  0.00     0.185 C 
BRANCH  31  32
HETATM   32  C   UNL     1      40.404 -11.634   7.496  1.00  0.00     0.232 C 
HETATM   33  N   UNL     1      41.646 -11.124   7.854  1.00  0.00    -0.324 N 
HETATM   34  H   UNL     1      42.388 -11.184   7.152  1.00  0.00     0.169 HD
HETATM   35  O   UNL     1      39.393 -11.662   8.189  1.00  0.00    -0.272 OA
BRANCH  33  36
HETATM   36  C   UNL     1      42.058 -10.555   9.087  1.00  0.00     0.073 A 
HETATM   37  C   UNL     1      41.448  -9.497   9.768  1.00  0.00     0.143 A 
HETATM   38  F   UNL     1      40.384  -8.846   9.286  1.00  0.00    -0.204 F 
HETATM   39  C   UNL     1      41.957  -9.031  10.985  1.00  0.00     0.044 A 
HETATM   40  C   UNL     1      43.089  -9.613  11.549  1.00  0.00     0.003 A 
HETATM   41  C   UNL     1      43.714 -10.664  10.888  1.00  0.00     0.002 A 
HETATM   42  C   UNL     1      43.204 -11.127   9.670  1.00  0.00     0.033 A 
ENDBRANCH  33  36
ENDBRANCH  31  32
ENDBRANCH  30  31
ENDBRANCH   6  30
TORSDOF 8
ENDMDL
MODEL 8
REMARK VINA RESULT:      -9.6      2.890      9.162
REMARK  8 active torsions:
REMARK  status: ('A' for Active; 'I' for Inactive)
REMARK    1  A    between atoms: C_6  and  S_7 
REMARK    2  A    between atoms: S_7  and  C_8 
REMARK    3  A    between atoms: C_8  and  C_9 
REMARK       I    between atoms: C_9  and  N_10 
REMARK    4  A    between atoms: N_10  and  C_11 
REMARK    5  A    between atoms: C_24  and  C_25 
REMARK    6  A    between atoms: C_25  and  C_26 
REMARK       I    between atoms: C_26  and  N_27 
REMARK    7  A    between atoms: N_27  and  C_28 
REMARK    8  A    between atoms: C_28  and  C_29 
ROOT
HETATM    1  C   UNL     1      42.318 -17.755   5.616  1.00  0.00     0.001 A 
HETATM    2  C   UNL     1      41.501 -17.131   4.673  1.00  0.00     0.018 A 
HETATM    3  C   UNL     1      41.353 -15.744   4.712  1.00  0.00     0.039 A 
HETATM    4  C   UNL     1      42.016 -14.972   5.673  1.00  0.00     0.073 A 
HETATM    5  N   UNL     1      41.951 -13.573   5.682  1.00  0.00    -0.223 NA
HETATM    6  C   UNL     1      41.208 -12.989   4.801  1.00  0.00     0.178 C 
HETATM    7  N   UNL     1      40.400 -13.674   3.906  1.00  0.00    -0.241 N 
HETATM    8  C   UNL     1      40.488 -15.023   3.772  1.00  0.00     0.147 A 
HETATM    9  N   UNL     1      39.806 -15.578   2.813  1.00  0.00    -0.256 NA
HETATM   10  C   UNL     1      39.491 -13.219   2.980  1.00  0.00     0.257 A 
HETATM   11  O   UNL     1      39.075 -12.091   2.765  1.00  0.00    -0.270 OA
HETATM   12  C   UNL     1      39.051 -14.443   2.202  1.00  0.00     0.211 A 
HETATM   13  C   UNL     1      42.825 -15.609   6.613  1.00  0.00     0.032 A 
HETATM   14  C   UNL     1      42.974 -16.996   6.588  1.00  0.00     0.002 A 
ENDROOT
BRANCH  12  15
HETATM   15  C   UNL     1      39.317 -14.305   0.704  1.00  0.00     0.140 C 
BRANCH  15  16
HETATM   16  C   UNL     1      40.782 -14.053   0.389  1.00  0.00     0.220 C 
HETATM   17  N   UNL     1      41.637 -15.097   0.240  1.00  0.00    -0.357 N 
HETATM   18  H   UNL     1      42.581 -14.824  -0.009  1.00  0.00     0.162 HD
HETATM   19  O   UNL     1      41.234 -12.911   0.269  1.00  0.00    -0.274 OA
BRANCH  17  20
HETATM   20  C   UNL     1      41.322 -16.509   0.177  1.00  0.00     0.161 C 
BRANCH  20  21
HETATM   21  C   UNL     1      42.302 -17.322   0.985  1.00  0.00    -0.038 A 
HETATM   22  C   UNL     1      42.109 -18.704   1.145  1.00  0.00     0.048 A 
HETATM   23  C   UNL     1      43.038 -19.410   1.882  1.00  0.00     0.105 A 
HETATM   24  C   UNL     1      44.132 -18.801   2.448  1.00  0.00     0.105 A 
HETATM   25  O   UNL     1      43.000 -20.745   2.136  1.00  0.00    -0.323 OA
HETATM   26  O   UNL     1      44.922 -19.676   3.126  1.00  0.00    -0.323 OA
HETATM   27  C   UNL     1      44.359 -17.448   2.311  1.00  0.00     0.040 A 
HETATM   28  C   UNL     1      44.192 -20.905   2.932  1.00  0.00     0.352 A 
HETATM   29  C   UNL     1      43.430 -16.703   1.578  1.00  0.00     0.012 A 
ENDBRANCH  20  21
ENDBRANCH  17  20
ENDBRANCH  15  16
ENDBRANCH  12  15
BRANCH   6  30
HETATM   30  S   UNL     1      41.337 -11.256   4.680  1.00  0.00    -0.082 SA
BRANCH  30  31
HETATM   31  C   UNL     1      40.649 -10.827   6.315  1.00  0.00     0.185 C 
BRANCH  31  32
HETATM   32  C   UNL     1      41.720 -10.332   7.289  1.00  0.00     0.232 C 
HETATM   33  N   UNL     1      42.340 -11.363   7.985  1.00  0.00    -0.324 N 
HETATM   34  H   UNL     1      42.032 -12.314   7.769  1.00  0.00     0.169 HD
HETATM   35  O   UNL     1      41.940  -9.131   7.402  1.00  0.00    -0.272 OA
BRANCH  33  36
HETATM   36  C   UNL     1      43.329 -11.288   9.000  1.00  0.00     0.073 A 
HETATM   37  C   UNL     1      43.236 -10.597  10.212  1.00  0.00     0.143 A 
HETATM   38  F   UNL     1      42.169  -9.862  10.544  1.00  0.00    -0.204 F 
HETATM   39  C   UNL     1      44.290 -10.607  11.133  1.00  0.00     0.044 A 
HETATM   40  C   UNL     1      45.462 -11.307  10.860  1.00  0.00     0.003 A 
HETATM   41  C   UNL     1      45.578 -11.997   9.660  1.00  0.00     0.002 A 
HETATM   42  C   UNL     1      44.524 -11.985   8.740  1.00  0.00     0.033 A 
ENDBRANCH  33  36
ENDBRANCH  31  32
ENDBRANCH  30  31
ENDBRANCH   6  30
TORSDOF 8
ENDMDL
MODEL 9
REMARK VINA RESULT:      -9.6      3.097      9.693
REMARK  8 active torsions:
REMARK  status: ('A' for Active; 'I' for Inactive)
REMARK    1  A    between atoms: C_6  and  S_7 
REMARK    2  A    between atoms: S_7  and  C_8 
REMARK    3  A    between atoms: C_8  and  C_9 
REMARK       I    between atoms: C_9  and  N_10 
REMARK    4  A    between atoms: N_10  and  C_11 
REMARK    5  A    between atoms: C_24  and  C_25 
REMARK    6  A    between atoms: C_25  and  C_26 
REMARK       I    between atoms: C_26  and  N_27 
REMARK    7  A    between atoms: N_27  and  C_28 
REMARK    8  A    between atoms: C_28  and  C_29 
ROOT
HETATM    1  C   UNL     1      39.196  -9.872   5.481  1.00  0.00     0.001 A 
HETATM    2  C   UNL     1      39.671 -11.080   4.971  1.00  0.00     0.018 A 
HETATM    3  C   UNL     1      40.814 -11.653   5.530  1.00  0.00     0.039 A 
HETATM    4  C   UNL     1      41.482 -11.042   6.597  1.00  0.00     0.073 A 
HETATM    5  N   UNL     1      42.580 -11.638   7.230  1.00  0.00    -0.223 NA
HETATM    6  C   UNL     1      43.014 -12.764   6.771  1.00  0.00     0.178 C 
HETATM    7  N   UNL     1      42.511 -13.371   5.630  1.00  0.00    -0.241 N 
HETATM    8  C   UNL     1      41.387 -12.906   5.026  1.00  0.00     0.147 A 
HETATM    9  N   UNL     1      40.893 -13.610   4.049  1.00  0.00    -0.256 NA
HETATM   10  C   UNL     1      42.911 -14.503   4.958  1.00  0.00     0.257 A 
HETATM   11  O   UNL     1      43.880 -15.225   5.128  1.00  0.00    -0.270 OA
HETATM   12  C   UNL     1      41.866 -14.731   3.883  1.00  0.00     0.211 A 
HETATM   13  C   UNL     1      41.000  -9.832   7.093  1.00  0.00     0.032 A 
HETATM   14  C   UNL     1      39.862  -9.246   6.537  1.00  0.00     0.002 A 
ENDROOT
BRANCH  12  15
HETATM   15  C   UNL     1      41.203 -16.102   4.001  1.00  0.00     0.140 C 
BRANCH  15  16
HETATM   16  C   UNL     1      41.020 -16.782   2.654  1.00  0.00     0.220 C 
HETATM   17  N   UNL     1      42.089 -17.307   2.004  1.00  0.00    -0.357 N 
HETATM   18  H   UNL     1      41.855 -17.774   1.135  1.00  0.00     0.162 HD
HETATM   19  O   UNL     1      39.913 -16.868   2.115  1.00  0.00    -0.274 OA
BRANCH  17  20
HETATM   20  C   UNL     1      43.442 -17.471   2.495  1.00  0.00     0.161 C 
BRANCH  20  21
HETATM   21  C   UNL     1      43.768 -18.927   2.716  1.00  0.00    -0.038 A 
HETATM   22  C   UNL     1      44.259 -19.359   3.958  1.00  0.00     0.048 A 
HETATM   23  C   UNL     1      44.532 -20.703   4.120  1.00  0.00     0.105 A 
HETATM   24  C   UNL     1      44.329 -21.611   3.109  1.00  0.00     0.105 A 
HETATM   25  O   UNL     1      45.014 -21.284   5.251  1.00  0.00    -0.323 OA
HETATM   26  O   UNL     1      44.656 -22.879   3.477  1.00  0.00    -0.323 OA
HETATM   27  C   UNL     1      43.846 -21.228   1.877  1.00  0.00     0.040 A 
HETATM   28  C   UNL     1      45.098 -22.662   4.833  1.00  0.00     0.352 A 
HETATM   29  C   UNL     1      43.569 -19.871   1.680  1.00  0.00     0.012 A 
ENDBRANCH  20  21
ENDBRANCH  17  20
ENDBRANCH  15  16
ENDBRANCH  12  15
BRANCH   6  30
HETATM   30  S   UNL     1      44.214 -13.596   7.720  1.00  0.00    -0.082 SA
BRANCH  30  31
HETATM   31  C   UNL     1      44.864 -12.159   8.640  1.00  0.00     0.185 C 
BRANCH  31  32
HETATM   32  C   UNL     1      44.397 -12.138  10.097  1.00  0.00     0.232 C 
HETATM   33  N   UNL     1      43.416 -11.185  10.339  1.00  0.00    -0.324 N 
HETATM   34  H   UNL     1      43.109 -10.625   9.540  1.00  0.00     0.169 HD
HETATM   35  O   UNL     1      44.899 -12.902  10.913  1.00  0.00    -0.272 OA
BRANCH  33  36
HETATM   36  C   UNL     1      42.789 -10.839  11.565  1.00  0.00     0.073 A 
HETATM   37  C   UNL     1      41.462 -11.088  11.929  1.00  0.00     0.143 A 
HETATM   38  F   UNL     1      40.586 -11.671  11.104  1.00  0.00    -0.204 F 
HETATM   39  C   UNL     1      40.968 -10.694  13.177  1.00  0.00     0.044 A 
HETATM   40  C   UNL     1      41.791 -10.039  14.090  1.00  0.00     0.003 A 
HETATM   41  C   UNL     1      43.112  -9.777  13.749  1.00  0.00     0.002 A 
HETATM   42  C   UNL     1      43.603 -10.171  12.499  1.00  0.00     0.033 A 
ENDBRANCH  33  36
ENDBRANCH  31  32
ENDBRANCH  30  31
ENDBRANCH   6  30
TORSDOF 8
ENDMDL
MODEL 10
REMARK VINA RESULT:      -9.6      3.129      9.235
REMARK  8 active torsions:
REMARK  status: ('A' for Active; 'I' for Inactive)
REMARK    1  A    between atoms: C_6  and  S_7 
REMARK    2  A    between atoms: S_7  and  C_8 
REMARK    3  A    between atoms: C_8  and  C_9 
REMARK       I    between atoms: C_9  and  N_10 
REMARK    4  A    between atoms: N_10  and  C_11 
REMARK    5  A    between atoms: C_24  and  C_25 
REMARK    6  A    between atoms: C_25  and  C_26 
REMARK       I    between atoms: C_26  and  N_27 
REMARK    7  A    between atoms: N_27  and  C_28 
REMARK    8  A    between atoms: C_28  and  C_29 
ROOT
HETATM    1  C   UNL     1      41.486 -12.554  -0.283  1.00  0.00     0.001 A 
HETATM    2  C   UNL     1      42.092 -13.111   0.844  1.00  0.00     0.018 A 
HETATM    3  C   UNL     1      41.785 -12.601   2.105  1.00  0.00     0.039 A 
HETATM    4  C   UNL     1      40.874 -11.549   2.258  1.00  0.00     0.073 A 
HETATM    5  N   UNL     1      40.485 -11.075   3.517  1.00  0.00    -0.223 NA
HETATM    6  C   UNL     1      41.032 -11.599   4.564  1.00  0.00     0.178 C 
HETATM    7  N   UNL     1      42.049 -12.539   4.507  1.00  0.00    -0.241 N 
HETATM    8  C   UNL     1      42.404 -13.117   3.330  1.00  0.00     0.147 A 
HETATM    9  N   UNL     1      43.263 -14.094   3.375  1.00  0.00    -0.256 NA
HETATM   10  C   UNL     1      42.796 -13.122   5.503  1.00  0.00     0.257 A 
HETATM   11  O   UNL     1      42.835 -12.895   6.702  1.00  0.00    -0.270 OA
HETATM   12  C   UNL     1      43.634 -14.184   4.819  1.00  0.00     0.211 A 
HETATM   13  C   UNL     1      40.280 -10.997   1.124  1.00  0.00     0.032 A 
HETATM   14  C   UNL     1      40.587 -11.495  -0.144  1.00  0.00     0.002 A 
ENDROOT
BRANCH  12  15
HETATM   15  C   UNL     1      43.392 -15.577   5.398  1.00  0.00     0.140 C 
BRANCH  15  16
HETATM   16  C   UNL     1      42.247 -16.305   4.715  1.00  0.00     0.220 C 
HETATM   17  N   UNL     1      42.475 -17.040   3.597  1.00  0.00    -0.357 N 
HETATM   18  H   UNL     1      41.655 -17.519   3.243  1.00  0.00     0.162 HD
HETATM   19  O   UNL     1      41.091 -16.245   5.143  1.00  0.00    -0.274 OA
BRANCH  17  20
HETATM   20  C   UNL     1      43.749 -17.390   3.001  1.00  0.00     0.161 C 
BRANCH  20  21
HETATM   21  C   UNL     1      43.966 -18.882   3.019  1.00  0.00    -0.038 A 
HETATM   22  C   UNL     1      44.471 -19.508   4.171  1.00  0.00     0.048 A 
HETATM   23  C   UNL     1      44.641 -20.877   4.147  1.00  0.00     0.105 A 
HETATM   24  C   UNL     1      44.327 -21.629   3.041  1.00  0.00     0.105 A 
HETATM   25  O   UNL     1      45.121 -21.635   5.169  1.00  0.00    -0.323 OA
HETATM   26  O   UNL     1      44.565 -22.955   3.229  1.00  0.00    -0.323 OA
HETATM   27  C   UNL     1      43.826 -21.054   1.893  1.00  0.00     0.040 A 
HETATM   28  C   UNL     1      45.078 -22.949   4.577  1.00  0.00     0.352 A 
HETATM   29  C   UNL     1      43.651 -19.666   1.883  1.00  0.00     0.012 A 
ENDBRANCH  20  21
ENDBRANCH  17  20
ENDBRANCH  15  16
ENDBRANCH  12  15
BRANCH   6  30
HETATM   30  S   UNL     1      40.356 -11.165   6.110  1.00  0.00    -0.082 SA
BRANCH  30  31
HETATM   31  C   UNL     1      41.401  -9.709   6.454  1.00  0.00     0.185 C 
BRANCH  31  32
HETATM   32  C   UNL     1      41.592  -9.468   7.953  1.00  0.00     0.232 C 
HETATM   33  N   UNL     1      42.315 -10.477   8.577  1.00  0.00    -0.324 N 
HETATM   34  H   UNL     1      42.644 -11.243   7.984  1.00  0.00     0.169 HD
HETATM   35  O   UNL     1      41.111  -8.472   8.481  1.00  0.00    -0.272 OA
BRANCH  33  36
HETATM   36  C   UNL     1      42.639 -10.625   9.951  1.00  0.00     0.073 A 
HETATM   37  C   UNL     1      43.902 -10.486  10.535  1.00  0.00     0.143 A 
HETATM   38  F   UNL     1      45.002 -10.226   9.821  1.00  0.00    -0.204 F 
HETATM   39  C   UNL     1      44.085 -10.658  11.911  1.00  0.00     0.044 A 
HETATM   40  C   UNL     1      43.009 -10.974  12.735  1.00  0.00     0.003 A 
HETATM   41  C   UNL     1      41.745 -11.122  12.177  1.00  0.00     0.002 A 
HETATM   42  C   UNL     1      41.564 -10.951  10.800  1.00  0.00     0.033 A 
ENDBRANCH  33  36
ENDBRANCH  31  32
ENDBRANCH  30  31
ENDBRANCH   6  30
TORSDOF 8
ENDMDL
