MODEL 1
REMARK VINA RESULT:      -7.7      0.000      0.000
REMARK  6 active torsions:
REMARK  status: ('A' for Active; 'I' for Inactive)
REMARK    1  A    between atoms: C_2  and  N_3 
REMARK    2  A    between atoms: C_2  and  C_16 
REMARK    3  A    between atoms: N_3  and  C_6 
REMARK    4  A    between atoms: C_16  and  C_17 
REMARK       I    between atoms: C_17  and  N_18 
REMARK    5  A    between atoms: N_18  and  C_19 
REMARK    6  A    between atoms: C_21  and  O_22 
ROOT
HETATM    1  C   UNL     1      43.577 -17.490   8.481  1.00  0.00     0.040 C 
HETATM    2  C   UNL     1      43.181 -16.814   7.176  1.00  0.00     0.191 C 
ENDROOT
BRANCH   2   3
HETATM    3  N   UNL     1      42.884 -17.839   6.098  1.00  0.00    -0.063 N 
HETATM    4  H   UNL     1      42.521 -18.659   6.626  1.00  0.00     0.278 HD
HETATM    5  H   UNL     1      42.089 -17.537   5.522  1.00  0.00     0.278 HD
BRANCH   3   6
HETATM    6  C   UNL     1      43.970 -18.400   5.198  1.00  0.00     0.221 C 
HETATM    7  C   UNL     1      43.780 -18.140   3.722  1.00  0.00    -0.011 A 
HETATM    8  C   UNL     1      43.945 -19.144   2.752  1.00  0.00     0.009 A 
HETATM    9  C   UNL     1      43.511 -16.825   3.280  1.00  0.00     0.011 A 
HETATM   10  C   UNL     1      43.768 -18.845   1.394  1.00  0.00     0.019 A 
HETATM   11  S   UNL     1      44.405 -20.819   3.147  1.00  0.00    -0.129 SA
HETATM   12  C   UNL     1      43.466 -17.549   0.982  1.00  0.00     0.001 A 
HETATM   13  C   UNL     1      43.347 -16.537   1.925  1.00  0.00     0.001 A 
HETATM   14  C   UNL     1      45.233 -20.545   4.729  1.00  0.00     0.082 C 
HETATM   15  C   UNL     1      44.264 -19.837   5.656  1.00  0.00     0.048 C 
ENDBRANCH   3   6
ENDBRANCH   2   3
BRANCH   2  16
HETATM   16  C   UNL     1      44.320 -15.885   6.694  1.00  0.00     0.135 C 
BRANCH  16  17
HETATM   17  C   UNL     1      44.098 -14.463   7.142  1.00  0.00     0.224 C 
HETATM   18  N   UNL     1      43.381 -13.564   6.424  1.00  0.00    -0.327 N 
HETATM   19  H   UNL     1      43.389 -12.652   6.875  1.00  0.00     0.169 HD
HETATM   20  O   UNL     1      44.539 -14.116   8.248  1.00  0.00    -0.273 OA
BRANCH  18  21
HETATM   21  C   UNL     1      42.601 -13.623   5.250  1.00  0.00     0.037 A 
HETATM   22  C   UNL     1      42.963 -13.129   3.993  1.00  0.00     0.066 A 
HETATM   23  C   UNL     1      42.112 -13.291   2.890  1.00  0.00     0.070 A 
HETATM   24  C   UNL     1      40.892 -13.948   3.046  1.00  0.00     0.037 A 
HETATM   25  C   UNL     1      40.514 -14.440   4.290  1.00  0.00     0.005 A 
HETATM   26  C   UNL     1      41.365 -14.277   5.383  1.00  0.00     0.029 A 
BRANCH  23  27
HETATM   27  O   UNL     1      42.357 -12.867   1.613  1.00  0.00    -0.356 OA
HETATM   28  C   UNL     1      41.746 -13.580   0.547  1.00  0.00     0.210 C 
ENDBRANCH  23  27
ENDBRANCH  18  21
ENDBRANCH  16  17
ENDBRANCH   2  16
TORSDOF 6
ENDMDL
MODEL 2
REMARK VINA RESULT:      -7.6      2.331      3.545
REMARK  6 active torsions:
REMARK  status: ('A' for Active; 'I' for Inactive)
REMARK    1  A    between atoms: C_2  and  N_3 
REMARK    2  A    between atoms: C_2  and  C_16 
REMARK    3  A    between atoms: N_3  and  C_6 
REMARK    4  A    between atoms: C_16  and  C_17 
REMARK       I    between atoms: C_17  and  N_18 
REMARK    5  A    between atoms: N_18  and  C_19 
REMARK    6  A    between atoms: C_21  and  O_22 
ROOT
HETATM    1  C   UNL     1      43.843 -14.037   5.751  1.00  0.00     0.040 C 
HETATM    2  C   UNL     1      42.365 -14.391   5.825  1.00  0.00     0.191 C 
ENDROOT
BRANCH   2   3
HETATM    3  N   UNL     1      42.166 -15.894   5.903  1.00  0.00    -0.063 N 
HETATM    4  H   UNL     1      41.596 -16.026   6.763  1.00  0.00     0.278 HD
HETATM    5  H   UNL     1      41.557 -16.216   5.142  1.00  0.00     0.278 HD
BRANCH   3   6
HETATM    6  C   UNL     1      43.332 -16.853   6.053  1.00  0.00     0.221 C 
HETATM    7  C   UNL     1      43.621 -17.709   4.842  1.00  0.00    -0.011 A 
HETATM    8  C   UNL     1      43.855 -19.091   4.933  1.00  0.00     0.009 A 
HETATM    9  C   UNL     1      43.749 -17.094   3.576  1.00  0.00     0.011 A 
HETATM   10  C   UNL     1      44.130 -19.835   3.777  1.00  0.00     0.019 A 
HETATM   11  S   UNL     1      43.851 -19.985   6.475  1.00  0.00    -0.129 SA
HETATM   12  C   UNL     1      44.215 -19.216   2.533  1.00  0.00     0.001 A 
HETATM   13  C   UNL     1      44.033 -17.842   2.434  1.00  0.00     0.001 A 
HETATM   14  C   UNL     1      44.235 -18.635   7.612  1.00  0.00     0.082 C 
HETATM   15  C   UNL     1      43.200 -17.543   7.420  1.00  0.00     0.048 C 
ENDBRANCH   3   6
ENDBRANCH   2   3
BRANCH   2  16
HETATM   16  C   UNL     1      41.627 -13.846   4.580  1.00  0.00     0.135 C 
BRANCH  16  17
HETATM   17  C   UNL     1      40.198 -14.327   4.532  1.00  0.00     0.224 C 
HETATM   18  N   UNL     1      39.668 -14.966   3.461  1.00  0.00    -0.327 N 
HETATM   19  H   UNL     1      38.682 -15.166   3.611  1.00  0.00     0.169 HD
HETATM   20  O   UNL     1      39.494 -14.187   5.543  1.00  0.00    -0.273 OA
BRANCH  18  21
HETATM   21  C   UNL     1      40.179 -15.453   2.239  1.00  0.00     0.037 A 
HETATM   22  C   UNL     1      40.481 -14.687   1.108  1.00  0.00     0.066 A 
HETATM   23  C   UNL     1      41.028 -15.289  -0.035  1.00  0.00     0.070 A 
HETATM   24  C   UNL     1      41.273 -16.662  -0.047  1.00  0.00     0.037 A 
HETATM   25  C   UNL     1      40.973 -17.437   1.067  1.00  0.00     0.005 A 
HETATM   26  C   UNL     1      40.430 -16.834   2.201  1.00  0.00     0.029 A 
BRANCH  23  27
HETATM   27  O   UNL     1      41.378 -14.651  -1.193  1.00  0.00    -0.356 OA
HETATM   28  C   UNL     1      41.019 -15.261  -2.424  1.00  0.00     0.210 C 
ENDBRANCH  23  27
ENDBRANCH  18  21
ENDBRANCH  16  17
ENDBRANCH   2  16
TORSDOF 6
ENDMDL
MODEL 3
REMARK VINA RESULT:      -7.3      2.938      5.267
REMARK  6 active torsions:
REMARK  status: ('A' for Active; 'I' for Inactive)
REMARK    1  A    between atoms: C_2  and  N_3 
REMARK    2  A    between atoms: C_2  and  C_16 
REMARK    3  A    between atoms: N_3  and  C_6 
REMARK    4  A    between atoms: C_16  and  C_17 
REMARK       I    between atoms: C_17  and  N_18 
REMARK    5  A    between atoms: N_18  and  C_19 
REMARK    6  A    between atoms: C_21  and  O_22 
ROOT
HETATM    1  C   UNL     1      43.673 -17.487   0.943  1.00  0.00     0.040 C 
HETATM    2  C   UNL     1      43.542 -16.685   2.230  1.00  0.00     0.191 C 
ENDROOT
BRANCH   2   3
HETATM    3  N   UNL     1      43.091 -17.567   3.380  1.00  0.00    -0.063 N 
HETATM    4  H   UNL     1      42.364 -16.998   3.860  1.00  0.00     0.278 HD
HETATM    5  H   UNL     1      42.581 -18.385   3.027  1.00  0.00     0.278 HD
BRANCH   3   6
HETATM    6  C   UNL     1      44.040 -18.003   4.481  1.00  0.00     0.221 C 
HETATM    7  C   UNL     1      44.227 -19.496   4.615  1.00  0.00    -0.011 A 
HETATM    8  C   UNL     1      44.185 -20.153   5.856  1.00  0.00     0.009 A 
HETATM    9  C   UNL     1      44.541 -20.260   3.468  1.00  0.00     0.011 A 
HETATM   10  C   UNL     1      44.377 -21.541   5.924  1.00  0.00     0.019 A 
HETATM   11  S   UNL     1      43.922 -19.308   7.403  1.00  0.00    -0.129 SA
HETATM   12  C   UNL     1      44.649 -22.280   4.776  1.00  0.00     0.001 A 
HETATM   13  C   UNL     1      44.740 -21.638   3.548  1.00  0.00     0.001 A 
HETATM   14  C   UNL     1      44.494 -17.655   6.949  1.00  0.00     0.082 C 
HETATM   15  C   UNL     1      43.701 -17.192   5.742  1.00  0.00     0.048 C 
ENDBRANCH   3   6
ENDBRANCH   2   3
BRANCH   2  16
HETATM   16  C   UNL     1      42.521 -15.540   2.039  1.00  0.00     0.135 C 
BRANCH  16  17
HETATM   17  C   UNL     1      41.178 -16.067   1.599  1.00  0.00     0.224 C 
HETATM   18  N   UNL     1      40.616 -15.759   0.405  1.00  0.00    -0.327 N 
HETATM   19  H   UNL     1      39.693 -16.178   0.320  1.00  0.00     0.169 HD
HETATM   20  O   UNL     1      40.588 -16.869   2.339  1.00  0.00    -0.273 OA
BRANCH  18  21
HETATM   21  C   UNL     1      41.039 -15.053  -0.741  1.00  0.00     0.037 A 
HETATM   22  C   UNL     1      41.644 -13.791  -0.756  1.00  0.00     0.066 A 
HETATM   23  C   UNL     1      42.060 -13.213  -1.964  1.00  0.00     0.070 A 
HETATM   24  C   UNL     1      41.869 -13.900  -3.163  1.00  0.00     0.037 A 
HETATM   25  C   UNL     1      41.266 -15.152  -3.166  1.00  0.00     0.005 A 
HETATM   26  C   UNL     1      40.855 -15.722  -1.962  1.00  0.00     0.029 A 
BRANCH  23  27
HETATM   27  O   UNL     1      42.672 -11.999  -2.109  1.00  0.00    -0.356 OA
HETATM   28  C   UNL     1      42.782 -11.168  -0.963  1.00  0.00     0.210 C 
ENDBRANCH  23  27
ENDBRANCH  18  21
ENDBRANCH  16  17
ENDBRANCH   2  16
TORSDOF 6
ENDMDL
MODEL 4
REMARK VINA RESULT:      -7.3      2.004      4.701
REMARK  6 active torsions:
REMARK  status: ('A' for Active; 'I' for Inactive)
REMARK    1  A    between atoms: C_2  and  N_3 
REMARK    2  A    between atoms: C_2  and  C_16 
REMARK    3  A    between atoms: N_3  and  C_6 
REMARK    4  A    between atoms: C_16  and  C_17 
REMARK       I    between atoms: C_17  and  N_18 
REMARK    5  A    between atoms: N_18  and  C_19 
REMARK    6  A    between atoms: C_21  and  O_22 
ROOT
HETATM    1  C   UNL     1      43.719 -17.730   0.756  1.00  0.00     0.040 C 
HETATM    2  C   UNL     1      42.865 -17.038   1.808  1.00  0.00     0.191 C 
ENDROOT
BRANCH   2   3
HETATM    3  N   UNL     1      42.657 -17.931   3.018  1.00  0.00    -0.063 N 
HETATM    4  H   UNL     1      41.927 -17.436   3.570  1.00  0.00     0.278 HD
HETATM    5  H   UNL     1      42.211 -18.813   2.742  1.00  0.00     0.278 HD
BRANCH   3   6
HETATM    6  C   UNL     1      43.771 -18.219   4.007  1.00  0.00     0.221 C 
HETATM    7  C   UNL     1      44.089 -19.682   4.209  1.00  0.00    -0.011 A 
HETATM    8  C   UNL     1      44.258 -20.248   5.485  1.00  0.00     0.009 A 
HETATM    9  C   UNL     1      44.310 -20.505   3.082  1.00  0.00     0.011 A 
HETATM   10  C   UNL     1      44.563 -21.610   5.614  1.00  0.00     0.019 A 
HETATM   11  S   UNL     1      44.133 -19.311   6.995  1.00  0.00    -0.129 SA
HETATM   12  C   UNL     1      44.741 -22.412   4.490  1.00  0.00     0.001 A 
HETATM   13  C   UNL     1      44.623 -21.856   3.222  1.00  0.00     0.001 A 
HETATM   14  C   UNL     1      44.513 -17.661   6.364  1.00  0.00     0.082 C 
HETATM   15  C   UNL     1      43.537 -17.343   5.248  1.00  0.00     0.048 C 
ENDBRANCH   3   6
ENDBRANCH   2   3
BRANCH   2  16
HETATM   16  C   UNL     1      41.488 -16.666   1.211  1.00  0.00     0.135 C 
BRANCH  16  17
HETATM   17  C   UNL     1      41.439 -15.216   0.801  1.00  0.00     0.224 C 
HETATM   18  N   UNL     1      41.623 -14.193   1.672  1.00  0.00    -0.327 N 
HETATM   19  H   UNL     1      41.506 -13.296   1.206  1.00  0.00     0.169 HD
HETATM   20  O   UNL     1      41.285 -14.946  -0.400  1.00  0.00    -0.273 OA
BRANCH  18  21
HETATM   21  C   UNL     1      41.987 -14.098   3.031  1.00  0.00     0.037 A 
HETATM   22  C   UNL     1      43.281 -13.915   3.528  1.00  0.00     0.066 A 
HETATM   23  C   UNL     1      43.505 -13.791   4.907  1.00  0.00     0.070 A 
HETATM   24  C   UNL     1      42.430 -13.852   5.793  1.00  0.00     0.037 A 
HETATM   25  C   UNL     1      41.138 -14.039   5.316  1.00  0.00     0.005 A 
HETATM   26  C   UNL     1      40.921 -14.161   3.944  1.00  0.00     0.029 A 
BRANCH  23  27
HETATM   27  O   UNL     1      44.716 -13.596   5.513  1.00  0.00    -0.356 OA
HETATM   28  C   UNL     1      44.876 -14.061   6.845  1.00  0.00     0.210 C 
ENDBRANCH  23  27
ENDBRANCH  18  21
ENDBRANCH  16  17
ENDBRANCH   2  16
TORSDOF 6
ENDMDL
MODEL 5
REMARK VINA RESULT:      -7.1      1.768      2.302
REMARK  6 active torsions:
REMARK  status: ('A' for Active; 'I' for Inactive)
REMARK    1  A    between atoms: C_2  and  N_3 
REMARK    2  A    between atoms: C_2  and  C_16 
REMARK    3  A    between atoms: N_3  and  C_6 
REMARK    4  A    between atoms: C_16  and  C_17 
REMARK       I    between atoms: C_17  and  N_18 
REMARK    5  A    between atoms: N_18  and  C_19 
REMARK    6  A    between atoms: C_21  and  O_22 
ROOT
HETATM    1  C   UNL     1      44.490 -16.299   6.903  1.00  0.00     0.040 C 
HETATM    2  C   UNL     1      43.027 -16.711   6.837  1.00  0.00     0.191 C 
ENDROOT
BRANCH   2   3
HETATM    3  N   UNL     1      42.852 -17.979   6.023  1.00  0.00    -0.063 N 
HETATM    4  H   UNL     1      42.693 -18.716   6.741  1.00  0.00     0.278 HD
HETATM    5  H   UNL     1      41.973 -17.949   5.493  1.00  0.00     0.278 HD
BRANCH   3   6
HETATM    6  C   UNL     1      43.955 -18.526   5.136  1.00  0.00     0.221 C 
HETATM    7  C   UNL     1      43.807 -18.220   3.664  1.00  0.00    -0.011 A 
HETATM    8  C   UNL     1      43.986 -19.196   2.669  1.00  0.00     0.009 A 
HETATM    9  C   UNL     1      43.564 -16.889   3.255  1.00  0.00     0.011 A 
HETATM   10  C   UNL     1      43.848 -18.854   1.316  1.00  0.00     0.019 A 
HETATM   11  S   UNL     1      44.418 -20.888   3.024  1.00  0.00    -0.129 SA
HETATM   12  C   UNL     1      43.572 -17.543   0.936  1.00  0.00     0.001 A 
HETATM   13  C   UNL     1      43.439 -16.558   1.906  1.00  0.00     0.001 A 
HETATM   14  C   UNL     1      45.206 -20.670   4.635  1.00  0.00     0.082 C 
HETATM   15  C   UNL     1      44.221 -19.980   5.558  1.00  0.00     0.048 C 
ENDBRANCH   3   6
ENDBRANCH   2   3
BRANCH   2  16
HETATM   16  C   UNL     1      42.186 -15.579   6.200  1.00  0.00     0.135 C 
BRANCH  16  17
HETATM   17  C   UNL     1      40.789 -16.046   5.878  1.00  0.00     0.224 C 
HETATM   18  N   UNL     1      40.133 -15.693   4.745  1.00  0.00    -0.327 N 
HETATM   19  H   UNL     1      39.190 -16.074   4.740  1.00  0.00     0.169 HD
HETATM   20  O   UNL     1      40.237 -16.839   6.656  1.00  0.00    -0.273 OA
BRANCH  18  21
HETATM   21  C   UNL     1      40.477 -14.981   3.577  1.00  0.00     0.037 A 
HETATM   22  C   UNL     1      40.017 -15.248   2.284  1.00  0.00     0.066 A 
HETATM   23  C   UNL     1      40.402 -14.434   1.208  1.00  0.00     0.070 A 
HETATM   24  C   UNL     1      41.251 -13.350   1.427  1.00  0.00     0.037 A 
HETATM   25  C   UNL     1      41.721 -13.074   2.705  1.00  0.00     0.005 A 
HETATM   26  C   UNL     1      41.335 -13.886   3.771  1.00  0.00     0.029 A 
BRANCH  23  27
HETATM   27  O   UNL     1      40.012 -14.581  -0.095  1.00  0.00    -0.356 OA
HETATM   28  C   UNL     1      39.801 -13.406  -0.863  1.00  0.00     0.210 C 
ENDBRANCH  23  27
ENDBRANCH  18  21
ENDBRANCH  16  17
ENDBRANCH   2  16
TORSDOF 6
ENDMDL
MODEL 6
REMARK VINA RESULT:      -7.1      3.004      5.092
REMARK  6 active torsions:
REMARK  status: ('A' for Active; 'I' for Inactive)
REMARK    1  A    between atoms: C_2  and  N_3 
REMARK    2  A    between atoms: C_2  and  C_16 
REMARK    3  A    between atoms: N_3  and  C_6 
REMARK    4  A    between atoms: C_16  and  C_17 
REMARK       I    between atoms: C_17  and  N_18 
REMARK    5  A    between atoms: N_18  and  C_19 
REMARK    6  A    between atoms: C_21  and  O_22 
ROOT
HETATM    1  C   UNL     1      40.743 -17.057   1.283  1.00  0.00     0.040 C 
HETATM    2  C   UNL     1      41.689 -16.296   2.201  1.00  0.00     0.191 C 
ENDROOT
BRANCH   2   3
HETATM    3  N   UNL     1      41.813 -16.983   3.549  1.00  0.00    -0.063 N 
HETATM    4  H   UNL     1      41.318 -16.342   4.201  1.00  0.00     0.278 HD
HETATM    5  H   UNL     1      41.254 -17.844   3.567  1.00  0.00     0.278 HD
BRANCH   3   6
HETATM    6  C   UNL     1      43.159 -17.244   4.199  1.00  0.00     0.221 C 
HETATM    7  C   UNL     1      43.692 -18.648   4.032  1.00  0.00    -0.011 A 
HETATM    8  C   UNL     1      44.232 -19.382   5.102  1.00  0.00     0.009 A 
HETATM    9  C   UNL     1      43.734 -19.223   2.742  1.00  0.00     0.011 A 
HETATM   10  C   UNL     1      44.723 -20.678   4.888  1.00  0.00     0.019 A 
HETATM   11  S   UNL     1      44.361 -18.743   6.760  1.00  0.00    -0.129 SA
HETATM   12  C   UNL     1      44.722 -21.241   3.614  1.00  0.00     0.001 A 
HETATM   13  C   UNL     1      44.235 -20.509   2.539  1.00  0.00     0.001 A 
HETATM   14  C   UNL     1      44.372 -16.972   6.406  1.00  0.00     0.082 C 
HETATM   15  C   UNL     1      43.125 -16.638   5.611  1.00  0.00     0.048 C 
ENDBRANCH   3   6
ENDBRANCH   2   3
BRANCH   2  16
HETATM   16  C   UNL     1      41.173 -14.853   2.413  1.00  0.00     0.135 C 
BRANCH  16  17
HETATM   17  C   UNL     1      42.053 -13.847   1.716  1.00  0.00     0.224 C 
HETATM   18  N   UNL     1      41.899 -13.505   0.413  1.00  0.00    -0.327 N 
HETATM   19  H   UNL     1      42.619 -12.847   0.124  1.00  0.00     0.169 HD
HETATM   20  O   UNL     1      42.919 -13.258   2.381  1.00  0.00    -0.273 OA
BRANCH  18  21
HETATM   21  C   UNL     1      40.954 -13.809  -0.590  1.00  0.00     0.037 A 
HETATM   22  C   UNL     1      41.158 -14.651  -1.687  1.00  0.00     0.066 A 
HETATM   23  C   UNL     1      40.118 -14.907  -2.594  1.00  0.00     0.070 A 
HETATM   24  C   UNL     1      38.870 -14.316  -2.402  1.00  0.00     0.037 A 
HETATM   25  C   UNL     1      38.652 -13.471  -1.320  1.00  0.00     0.005 A 
HETATM   26  C   UNL     1      39.689 -13.222  -0.421  1.00  0.00     0.029 A 
BRANCH  23  27
HETATM   27  O   UNL     1      40.187 -15.718  -3.692  1.00  0.00    -0.356 OA
HETATM   28  C   UNL     1      38.968 -16.159  -4.272  1.00  0.00     0.210 C 
ENDBRANCH  23  27
ENDBRANCH  18  21
ENDBRANCH  16  17
ENDBRANCH   2  16
TORSDOF 6
ENDMDL
MODEL 7
REMARK VINA RESULT:      -7.0      2.529      4.781
REMARK  6 active torsions:
REMARK  status: ('A' for Active; 'I' for Inactive)
REMARK    1  A    between atoms: C_2  and  N_3 
REMARK    2  A    between atoms: C_2  and  C_16 
REMARK    3  A    between atoms: N_3  and  C_6 
REMARK    4  A    between atoms: C_16  and  C_17 
REMARK       I    between atoms: C_17  and  N_18 
REMARK    5  A    between atoms: N_18  and  C_19 
REMARK    6  A    between atoms: C_21  and  O_22 
ROOT
HETATM    1  C   UNL     1      44.334 -17.376   1.247  1.00  0.00     0.040 C 
HETATM    2  C   UNL     1      43.438 -16.526   2.136  1.00  0.00     0.191 C 
ENDROOT
BRANCH   2   3
HETATM    3  N   UNL     1      42.961 -17.313   3.343  1.00  0.00    -0.063 N 
HETATM    4  H   UNL     1      42.225 -16.707   3.760  1.00  0.00     0.278 HD
HETATM    5  H   UNL     1      42.456 -18.156   3.046  1.00  0.00     0.278 HD
BRANCH   3   6
HETATM    6  C   UNL     1      43.885 -17.660   4.495  1.00  0.00     0.221 C 
HETATM    7  C   UNL     1      44.113 -19.138   4.714  1.00  0.00    -0.011 A 
HETATM    8  C   UNL     1      44.050 -19.730   5.987  1.00  0.00     0.009 A 
HETATM    9  C   UNL     1      44.489 -19.949   3.620  1.00  0.00     0.011 A 
HETATM   10  C   UNL     1      44.281 -21.105   6.134  1.00  0.00     0.019 A 
HETATM   11  S   UNL     1      43.710 -18.814   7.477  1.00  0.00    -0.129 SA
HETATM   12  C   UNL     1      44.614 -21.895   5.036  1.00  0.00     0.001 A 
HETATM   13  C   UNL     1      44.727 -21.314   3.780  1.00  0.00     0.001 A 
HETATM   14  C   UNL     1      44.246 -17.169   6.954  1.00  0.00     0.082 C 
HETATM   15  C   UNL     1      43.480 -16.796   5.700  1.00  0.00     0.048 C 
ENDBRANCH   3   6
ENDBRANCH   2   3
BRANCH   2  16
HETATM   16  C   UNL     1      42.210 -16.034   1.334  1.00  0.00     0.135 C 
BRANCH  16  17
HETATM   17  C   UNL     1      40.950 -16.738   1.769  1.00  0.00     0.224 C 
HETATM   18  N   UNL     1      40.049 -16.187   2.619  1.00  0.00    -0.327 N 
HETATM   19  H   UNL     1      39.295 -16.840   2.820  1.00  0.00     0.169 HD
HETATM   20  O   UNL     1      40.695 -17.849   1.280  1.00  0.00    -0.273 OA
BRANCH  18  21
HETATM   21  C   UNL     1      39.898 -14.922   3.225  1.00  0.00     0.037 A 
HETATM   22  C   UNL     1      40.277 -14.582   4.528  1.00  0.00     0.066 A 
HETATM   23  C   UNL     1      40.112 -13.271   5.000  1.00  0.00     0.070 A 
HETATM   24  C   UNL     1      39.565 -12.297   4.165  1.00  0.00     0.037 A 
HETATM   25  C   UNL     1      39.179 -12.620   2.869  1.00  0.00     0.005 A 
HETATM   26  C   UNL     1      39.345 -13.924   2.406  1.00  0.00     0.029 A 
BRANCH  23  27
HETATM   27  O   UNL     1      40.454 -12.812   6.242  1.00  0.00    -0.356 OA
HETATM   28  C   UNL     1      39.510 -12.013   6.939  1.00  0.00     0.210 C 
ENDBRANCH  23  27
ENDBRANCH  18  21
ENDBRANCH  16  17
ENDBRANCH   2  16
TORSDOF 6
ENDMDL
MODEL 8
REMARK VINA RESULT:      -6.9      2.659      4.295
REMARK  6 active torsions:
REMARK  status: ('A' for Active; 'I' for Inactive)
REMARK    1  A    between atoms: C_2  and  N_3 
REMARK    2  A    between atoms: C_2  and  C_16 
REMARK    3  A    between atoms: N_3  and  C_6 
REMARK    4  A    between atoms: C_16  and  C_17 
REMARK       I    between atoms: C_17  and  N_18 
REMARK    5  A    between atoms: N_18  and  C_19 
REMARK    6  A    between atoms: C_21  and  O_22 
ROOT
HETATM    1  C   UNL     1      43.554 -14.860   3.314  1.00  0.00     0.040 C 
HETATM    2  C   UNL     1      43.158 -15.738   4.492  1.00  0.00     0.191 C 
ENDROOT
BRANCH   2   3
HETATM    3  N   UNL     1      43.521 -17.190   4.239  1.00  0.00    -0.063 N 
HETATM    4  H   UNL     1      42.600 -17.673   4.197  1.00  0.00     0.278 HD
HETATM    5  H   UNL     1      43.910 -17.304   3.296  1.00  0.00     0.278 HD
BRANCH   3   6
HETATM    6  C   UNL     1      44.345 -17.998   5.224  1.00  0.00     0.221 C 
HETATM    7  C   UNL     1      44.411 -19.481   4.943  1.00  0.00    -0.011 A 
HETATM    8  C   UNL     1      44.224 -20.448   5.945  1.00  0.00     0.009 A 
HETATM    9  C   UNL     1      44.759 -19.924   3.647  1.00  0.00     0.011 A 
HETATM   10  C   UNL     1      44.308 -21.811   5.631  1.00  0.00     0.019 A 
HETATM   11  S   UNL     1      43.902 -20.040   7.650  1.00  0.00    -0.129 SA
HETATM   12  C   UNL     1      44.615 -22.228   4.338  1.00  0.00     0.001 A 
HETATM   13  C   UNL     1      44.850 -21.283   3.348  1.00  0.00     0.001 A 
HETATM   14  C   UNL     1      44.627 -18.386   7.711  1.00  0.00     0.082 C 
HETATM   15  C   UNL     1      43.968 -17.538   6.641  1.00  0.00     0.048 C 
ENDBRANCH   3   6
ENDBRANCH   2   3
BRANCH   2  16
HETATM   16  C   UNL     1      41.635 -15.633   4.742  1.00  0.00     0.135 C 
BRANCH  16  17
HETATM   17  C   UNL     1      40.912 -16.869   4.269  1.00  0.00     0.224 C 
HETATM   18  N   UNL     1      40.331 -16.966   3.048  1.00  0.00    -0.327 N 
HETATM   19  H   UNL     1      39.859 -17.861   2.943  1.00  0.00     0.169 HD
HETATM   20  O   UNL     1      40.902 -17.866   5.008  1.00  0.00    -0.273 OA
BRANCH  18  21
HETATM   21  C   UNL     1      40.285 -16.146   1.901  1.00  0.00     0.037 A 
HETATM   22  C   UNL     1      39.434 -15.054   1.702  1.00  0.00     0.066 A 
HETATM   23  C   UNL     1      39.517 -14.290   0.529  1.00  0.00     0.070 A 
HETATM   24  C   UNL     1      40.455 -14.620  -0.450  1.00  0.00     0.037 A 
HETATM   25  C   UNL     1      41.304 -15.706  -0.269  1.00  0.00     0.005 A 
HETATM   26  C   UNL     1      41.217 -16.462   0.899  1.00  0.00     0.029 A 
BRANCH  23  27
HETATM   27  O   UNL     1      38.755 -13.196   0.223  1.00  0.00    -0.356 OA
HETATM   28  C   UNL     1      37.388 -13.210   0.604  1.00  0.00     0.210 C 
ENDBRANCH  23  27
ENDBRANCH  18  21
ENDBRANCH  16  17
ENDBRANCH   2  16
TORSDOF 6
ENDMDL
MODEL 9
REMARK VINA RESULT:      -6.7      2.550      4.694
REMARK  6 active torsions:
REMARK  status: ('A' for Active; 'I' for Inactive)
REMARK    1  A    between atoms: C_2  and  N_3 
REMARK    2  A    between atoms: C_2  and  C_16 
REMARK    3  A    between atoms: N_3  and  C_6 
REMARK    4  A    between atoms: C_16  and  C_17 
REMARK       I    between atoms: C_17  and  N_18 
REMARK    5  A    between atoms: N_18  and  C_19 
REMARK    6  A    between atoms: C_21  and  O_22 
ROOT
HETATM    1  C   UNL     1      40.646 -13.135   4.860  1.00  0.00     0.040 C 
HETATM    2  C   UNL     1      40.797 -14.424   4.066  1.00  0.00     0.191 C 
ENDROOT
BRANCH   2   3
HETATM    3  N   UNL     1      42.201 -14.561   3.507  1.00  0.00    -0.063 N 
HETATM    4  H   UNL     1      42.049 -14.856   2.521  1.00  0.00     0.278 HD
HETATM    5  H   UNL     1      42.649 -13.641   3.430  1.00  0.00     0.278 HD
BRANCH   3   6
HETATM    6  C   UNL     1      43.197 -15.559   4.068  1.00  0.00     0.221 C 
HETATM    7  C   UNL     1      43.351 -16.833   3.269  1.00  0.00    -0.011 A 
HETATM    8  C   UNL     1      43.360 -18.103   3.869  1.00  0.00     0.009 A 
HETATM    9  C   UNL     1      43.580 -16.752   1.877  1.00  0.00     0.011 A 
HETATM   10  C   UNL     1      43.517 -19.252   3.080  1.00  0.00     0.019 A 
HETATM   11  S   UNL     1      43.206 -18.356   5.626  1.00  0.00    -0.129 SA
HETATM   12  C   UNL     1      43.705 -19.153   1.705  1.00  0.00     0.001 A 
HETATM   13  C   UNL     1      43.746 -17.901   1.104  1.00  0.00     0.001 A 
HETATM   14  C   UNL     1      43.797 -16.755   6.219  1.00  0.00     0.082 C 
HETATM   15  C   UNL     1      42.951 -15.670   5.581  1.00  0.00     0.048 C 
ENDBRANCH   3   6
ENDBRANCH   2   3
BRANCH   2  16
HETATM   16  C   UNL     1      39.782 -14.448   2.899  1.00  0.00     0.135 C 
BRANCH  16  17
HETATM   17  C   UNL     1      40.060 -15.588   1.952  1.00  0.00     0.224 C 
HETATM   18  N   UNL     1      40.418 -15.405   0.657  1.00  0.00    -0.327 N 
HETATM   19  H   UNL     1      40.514 -16.298   0.179  1.00  0.00     0.169 HD
HETATM   20  O   UNL     1      40.018 -16.747   2.393  1.00  0.00    -0.273 OA
BRANCH  18  21
HETATM   21  C   UNL     1      40.735 -14.284  -0.139  1.00  0.00     0.037 A 
HETATM   22  C   UNL     1      41.897 -13.512  -0.050  1.00  0.00     0.066 A 
HETATM   23  C   UNL     1      42.113 -12.444  -0.933  1.00  0.00     0.070 A 
HETATM   24  C   UNL     1      41.161 -12.147  -1.909  1.00  0.00     0.037 A 
HETATM   25  C   UNL     1      39.998 -12.901  -2.006  1.00  0.00     0.005 A 
HETATM   26  C   UNL     1      39.789 -13.962  -1.126  1.00  0.00     0.029 A 
BRANCH  23  27
HETATM   27  O   UNL     1      43.209 -11.626  -0.958  1.00  0.00    -0.356 OA
HETATM   28  C   UNL     1      42.997 -10.234  -1.143  1.00  0.00     0.210 C 
ENDBRANCH  23  27
ENDBRANCH  18  21
ENDBRANCH  16  17
ENDBRANCH   2  16
TORSDOF 6
ENDMDL
MODEL 10
REMARK VINA RESULT:      -6.6      3.063      4.837
REMARK  6 active torsions:
REMARK  status: ('A' for Active; 'I' for Inactive)
REMARK    1  A    between atoms: C_2  and  N_3 
REMARK    2  A    between atoms: C_2  and  C_16 
REMARK    3  A    between atoms: N_3  and  C_6 
REMARK    4  A    between atoms: C_16  and  C_17 
REMARK       I    between atoms: C_17  and  N_18 
REMARK    5  A    between atoms: N_18  and  C_19 
REMARK    6  A    between atoms: C_21  and  O_22 
ROOT
HETATM    1  C   UNL     1      40.172 -14.684   3.898  1.00  0.00     0.040 C 
HETATM    2  C   UNL     1      40.513 -15.885   3.028  1.00  0.00     0.191 C 
ENDROOT
BRANCH   2   3
HETATM    3  N   UNL     1      41.037 -17.036   3.867  1.00  0.00    -0.063 N 
HETATM    4  H   UNL     1      40.547 -16.924   4.778  1.00  0.00     0.278 HD
HETATM    5  H   UNL     1      40.693 -17.932   3.503  1.00  0.00     0.278 HD
BRANCH   3   6
HETATM    6  C   UNL     1      42.506 -17.170   4.223  1.00  0.00     0.221 C 
HETATM    7  C   UNL     1      43.168 -18.445   3.754  1.00  0.00    -0.011 A 
HETATM    8  C   UNL     1      43.993 -19.217   4.589  1.00  0.00     0.009 A 
HETATM    9  C   UNL     1      43.030 -18.839   2.405  1.00  0.00     0.011 A 
HETATM   10  C   UNL     1      44.593 -20.386   4.098  1.00  0.00     0.019 A 
HETATM   11  S   UNL     1      44.362 -18.780   6.277  1.00  0.00    -0.129 SA
HETATM   12  C   UNL     1      44.414 -20.777   2.774  1.00  0.00     0.001 A 
HETATM   13  C   UNL     1      43.639 -19.998   1.924  1.00  0.00     0.001 A 
HETATM   14  C   UNL     1      44.081 -16.997   6.199  1.00  0.00     0.082 C 
HETATM   15  C   UNL     1      42.671 -16.759   5.695  1.00  0.00     0.048 C 
ENDBRANCH   3   6
ENDBRANCH   2   3
BRANCH   2  16
HETATM   16  C   UNL     1      41.582 -15.493   1.981  1.00  0.00     0.135 C 
BRANCH  16  17
HETATM   17  C   UNL     1      41.103 -15.764   0.577  1.00  0.00     0.224 C 
HETATM   18  N   UNL     1      40.136 -15.033  -0.029  1.00  0.00    -0.327 N 
HETATM   19  H   UNL     1      39.927 -15.404  -0.953  1.00  0.00     0.169 HD
HETATM   20  O   UNL     1      41.662 -16.658  -0.076  1.00  0.00    -0.273 OA
BRANCH  18  21
HETATM   21  C   UNL     1      39.412 -13.868   0.304  1.00  0.00     0.037 A 
HETATM   22  C   UNL     1      39.943 -12.584   0.459  1.00  0.00     0.066 A 
HETATM   23  C   UNL     1      39.107 -11.496   0.750  1.00  0.00     0.070 A 
HETATM   24  C   UNL     1      37.733 -11.695   0.888  1.00  0.00     0.037 A 
HETATM   25  C   UNL     1      37.190 -12.966   0.742  1.00  0.00     0.005 A 
HETATM   26  C   UNL     1      38.027 -14.043   0.452  1.00  0.00     0.029 A 
BRANCH  23  27
HETATM   27  O   UNL     1      39.500 -10.197   0.911  1.00  0.00    -0.356 OA
HETATM   28  C   UNL     1      39.171  -9.547   2.130  1.00  0.00     0.210 C 
ENDBRANCH  23  27
ENDBRANCH  18  21
ENDBRANCH  16  17
ENDBRANCH   2  16
TORSDOF 6
ENDMDL
