MODEL 1
REMARK VINA RESULT:      -8.3      0.000      0.000
REMARK  2 active torsions:
REMARK  status: ('A' for Active; 'I' for Inactive)
REMARK    1  A    between atoms: C_9  and  C_10 
REMARK       I    between atoms: C_10  and  N_11 
REMARK    2  A    between atoms: N_11  and  C_12 
ROOT
HETATM    1  C   UNL     1      42.047 -14.921   2.383  1.00  0.00     0.267 C 
HETATM    2  N   UNL     1      42.090 -14.159   1.252  1.00  0.00    -0.156 N 
HETATM    3  O   UNL     1      42.916 -14.680   3.227  1.00  0.00    -0.270 OA
HETATM    4  H   UNL     1      42.846 -13.481   1.258  1.00  0.00     0.187 HD
ENDROOT
BRANCH   1   5
HETATM    5  C   UNL     1      40.948 -15.983   2.653  1.00  0.00     0.282 C 
HETATM    6  N   UNL     1      40.640 -16.931   1.518  1.00  0.00    -0.058 N 
HETATM    7  C   UNL     1      41.801 -17.733   1.075  1.00  0.00     0.272 C 
HETATM    8  H   UNL     1      39.868 -17.550   1.781  1.00  0.00     0.278 HD
HETATM    9  H   UNL     1      40.291 -16.356   0.727  1.00  0.00     0.278 HD
HETATM   10  C   UNL     1      42.551 -18.345   2.221  1.00  0.00    -0.026 A 
HETATM   11  C   UNL     1      42.344 -17.913   3.547  1.00  0.00    -0.048 A 
HETATM   12  C   UNL     1      43.521 -19.323   1.955  1.00  0.00     0.009 A 
HETATM   13  C   UNL     1      43.089 -18.489   4.584  1.00  0.00     0.008 A 
HETATM   14  C   UNL     1      41.302 -16.859   3.872  1.00  0.00     0.082 C 
HETATM   15  C   UNL     1      44.049 -19.462   4.305  1.00  0.00     0.001 A 
HETATM   16  C   UNL     1      44.266 -19.879   2.994  1.00  0.00     0.001 A 
ENDBRANCH   1   5
BRANCH   2  17
HETATM   17  C   UNL     1      41.282 -14.239   0.155  1.00  0.00     0.708 A 
HETATM   18  N   UNL     1      40.033 -13.840   0.041  1.00  0.00    -0.062 NA
HETATM   19  C   UNL     1      39.638 -14.228  -1.225  1.00  0.00     0.103 A 
HETATM   20  C   UNL     1      40.670 -14.886  -1.880  1.00  0.00     0.078 A 
HETATM   21  C   UNL     1      38.401 -14.077  -1.866  1.00  0.00     0.034 A 
HETATM   22  N   UNL     1      41.717 -14.845  -0.998  1.00  0.00    -0.188 N 
HETATM   23  C   UNL     1      40.544 -15.430  -3.159  1.00  0.00     0.032 A 
HETATM   24  H   UNL     1      42.635 -15.234  -1.161  1.00  0.00     0.184 HD
HETATM   25  C   UNL     1      39.299 -15.282  -3.780  1.00  0.00     0.002 A 
HETATM   26  C   UNL     1      38.246 -14.615  -3.149  1.00  0.00     0.002 A 
ENDBRANCH   2  17
TORSDOF 2
ENDMDL
MODEL 2
REMARK VINA RESULT:      -8.3      3.265      7.140
REMARK  2 active torsions:
REMARK  status: ('A' for Active; 'I' for Inactive)
REMARK    1  A    between atoms: C_9  and  C_10 
REMARK       I    between atoms: C_10  and  N_11 
REMARK    2  A    between atoms: N_11  and  C_12 
ROOT
HETATM    1  C   UNL     1      42.477 -16.407   1.897  1.00  0.00     0.267 C 
HETATM    2  N   UNL     1      43.639 -17.108   2.034  1.00  0.00    -0.156 N 
HETATM    3  O   UNL     1      42.567 -15.324   1.311  1.00  0.00    -0.270 OA
HETATM    4  H   UNL     1      44.439 -16.635   1.624  1.00  0.00     0.187 HD
ENDROOT
BRANCH   1   5
HETATM    5  C   UNL     1      41.100 -16.940   2.376  1.00  0.00     0.282 C 
HETATM    6  N   UNL     1      40.955 -17.183   3.860  1.00  0.00    -0.058 N 
HETATM    7  C   UNL     1      41.172 -15.976   4.689  1.00  0.00     0.272 C 
HETATM    8  H   UNL     1      40.034 -17.583   4.060  1.00  0.00     0.278 HD
HETATM    9  H   UNL     1      41.648 -17.911   4.119  1.00  0.00     0.278 HD
HETATM   10  C   UNL     1      40.430 -14.780   4.171  1.00  0.00    -0.026 A 
HETATM   11  C   UNL     1      39.880 -14.764   2.872  1.00  0.00    -0.048 A 
HETATM   12  C   UNL     1      40.338 -13.635   4.976  1.00  0.00     0.009 A 
HETATM   13  C   UNL     1      39.223 -13.613   2.417  1.00  0.00     0.008 A 
HETATM   14  C   UNL     1      39.958 -15.984   1.975  1.00  0.00     0.082 C 
HETATM   15  C   UNL     1      39.137 -12.483   3.229  1.00  0.00     0.001 A 
HETATM   16  C   UNL     1      39.694 -12.491   4.505  1.00  0.00     0.001 A 
ENDBRANCH   1   5
BRANCH   2  17
HETATM   17  C   UNL     1      43.830 -18.303   2.665  1.00  0.00     0.708 A 
HETATM   18  N   UNL     1      44.088 -18.512   3.938  1.00  0.00    -0.062 NA
HETATM   19  C   UNL     1      44.290 -19.874   4.053  1.00  0.00     0.103 A 
HETATM   20  C   UNL     1      44.161 -20.495   2.818  1.00  0.00     0.078 A 
HETATM   21  C   UNL     1      44.615 -20.642   5.179  1.00  0.00     0.034 A 
HETATM   22  N   UNL     1      43.829 -19.481   1.958  1.00  0.00    -0.188 N 
HETATM   23  C   UNL     1      44.355 -21.863   2.622  1.00  0.00     0.032 A 
HETATM   24  H   UNL     1      43.658 -19.586   0.968  1.00  0.00     0.184 HD
HETATM   25  C   UNL     1      44.693 -22.613   3.753  1.00  0.00     0.002 A 
HETATM   26  C   UNL     1      44.817 -22.017   5.011  1.00  0.00     0.002 A 
ENDBRANCH   2  17
TORSDOF 2
ENDMDL
MODEL 3
REMARK VINA RESULT:      -8.3      2.263      3.847
REMARK  2 active torsions:
REMARK  status: ('A' for Active; 'I' for Inactive)
REMARK    1  A    between atoms: C_9  and  C_10 
REMARK       I    between atoms: C_10  and  N_11 
REMARK    2  A    between atoms: N_11  and  C_12 
ROOT
HETATM    1  C   UNL     1      42.053 -17.742   4.468  1.00  0.00     0.267 C 
HETATM    2  N   UNL     1      41.011 -17.229   3.752  1.00  0.00    -0.156 N 
HETATM    3  O   UNL     1      41.746 -18.463   5.423  1.00  0.00    -0.270 OA
HETATM    4  H   UNL     1      40.104 -17.518   4.107  1.00  0.00     0.187 HD
ENDROOT
BRANCH   1   5
HETATM    5  C   UNL     1      43.541 -17.508   4.093  1.00  0.00     0.282 C 
HETATM    6  N   UNL     1      44.563 -17.895   5.135  1.00  0.00    -0.058 N 
HETATM    7  C   UNL     1      44.518 -19.324   5.518  1.00  0.00     0.272 C 
HETATM    8  H   UNL     1      45.503 -17.651   4.810  1.00  0.00     0.278 HD
HETATM    9  H   UNL     1      44.385 -17.305   5.971  1.00  0.00     0.278 HD
HETATM   10  C   UNL     1      44.452 -20.237   4.331  1.00  0.00    -0.026 A 
HETATM   11  C   UNL     1      44.136 -19.749   3.046  1.00  0.00    -0.048 A 
HETATM   12  C   UNL     1      44.649 -21.614   4.519  1.00  0.00     0.009 A 
HETATM   13  C   UNL     1      44.054 -20.643   1.971  1.00  0.00     0.008 A 
HETATM   14  C   UNL     1      43.919 -18.267   2.804  1.00  0.00     0.082 C 
HETATM   15  C   UNL     1      44.254 -22.009   2.173  1.00  0.00     0.001 A 
HETATM   16  C   UNL     1      44.551 -22.494   3.443  1.00  0.00     0.001 A 
ENDBRANCH   1   5
BRANCH   2  17
HETATM   17  C   UNL     1      41.063 -16.381   2.683  1.00  0.00     0.708 A 
HETATM   18  N   UNL     1      40.934 -16.680   1.409  1.00  0.00    -0.062 NA
HETATM   19  C   UNL     1      41.160 -15.499   0.730  1.00  0.00     0.103 A 
HETATM   20  C   UNL     1      41.443 -14.469   1.618  1.00  0.00     0.078 A 
HETATM   21  C   UNL     1      41.169 -15.241  -0.648  1.00  0.00     0.034 A 
HETATM   22  N   UNL     1      41.335 -15.047   2.856  1.00  0.00    -0.188 N 
HETATM   23  C   UNL     1      41.756 -13.171   1.214  1.00  0.00     0.032 A 
HETATM   24  H   UNL     1      41.477 -14.572   3.736  1.00  0.00     0.184 HD
HETATM   25  C   UNL     1      41.774 -12.933  -0.165  1.00  0.00     0.002 A 
HETATM   26  C   UNL     1      41.482 -13.947  -1.081  1.00  0.00     0.002 A 
ENDBRANCH   2  17
TORSDOF 2
ENDMDL
MODEL 4
REMARK VINA RESULT:      -8.1      3.516      7.173
REMARK  2 active torsions:
REMARK  status: ('A' for Active; 'I' for Inactive)
REMARK    1  A    between atoms: C_9  and  C_10 
REMARK       I    between atoms: C_10  and  N_11 
REMARK    2  A    between atoms: N_11  and  C_12 
ROOT
HETATM    1  C   UNL     1      42.872 -16.258   6.026  1.00  0.00     0.267 C 
HETATM    2  N   UNL     1      43.991 -16.958   5.677  1.00  0.00    -0.156 N 
HETATM    3  O   UNL     1      43.053 -15.081   6.352  1.00  0.00    -0.270 OA
HETATM    4  H   UNL     1      44.839 -16.402   5.732  1.00  0.00     0.187 HD
ENDROOT
BRANCH   1   5
HETATM    5  C   UNL     1      41.441 -16.855   5.963  1.00  0.00     0.282 C 
HETATM    6  N   UNL     1      40.300 -15.875   6.102  1.00  0.00    -0.058 N 
HETATM    7  C   UNL     1      40.286 -14.821   5.064  1.00  0.00     0.272 C 
HETATM    8  H   UNL     1      39.407 -16.377   6.101  1.00  0.00     0.278 HD
HETATM    9  H   UNL     1      40.384 -15.439   7.040  1.00  0.00     0.278 HD
HETATM   10  C   UNL     1      40.481 -15.369   3.682  1.00  0.00    -0.026 A 
HETATM   11  C   UNL     1      40.950 -16.683   3.473  1.00  0.00    -0.048 A 
HETATM   12  C   UNL     1      40.250 -14.533   2.579  1.00  0.00     0.009 A 
HETATM   13  C   UNL     1      41.149 -17.143   2.165  1.00  0.00     0.008 A 
HETATM   14  C   UNL     1      41.209 -17.615   4.641  1.00  0.00     0.082 C 
HETATM   15  C   UNL     1      40.914 -16.301   1.078  1.00  0.00     0.001 A 
HETATM   16  C   UNL     1      40.466 -14.999   1.283  1.00  0.00     0.001 A 
ENDBRANCH   1   5
BRANCH   2  17
HETATM   17  C   UNL     1      44.082 -18.270   5.316  1.00  0.00     0.708 A 
HETATM   18  N   UNL     1      44.239 -19.315   6.100  1.00  0.00    -0.062 NA
HETATM   19  C   UNL     1      44.370 -20.396   5.250  1.00  0.00     0.103 A 
HETATM   20  C   UNL     1      44.302 -19.988   3.924  1.00  0.00     0.078 A 
HETATM   21  C   UNL     1      44.580 -21.750   5.544  1.00  0.00     0.034 A 
HETATM   22  N   UNL     1      44.078 -18.638   3.993  1.00  0.00    -0.188 N 
HETATM   23  C   UNL     1      44.447 -20.860   2.844  1.00  0.00     0.032 A 
HETATM   24  H   UNL     1      43.973 -18.022   3.199  1.00  0.00     0.184 HD
HETATM   25  C   UNL     1      44.669 -22.206   3.154  1.00  0.00     0.002 A 
HETATM   26  C   UNL     1      44.730 -22.646   4.479  1.00  0.00     0.002 A 
ENDBRANCH   2  17
TORSDOF 2
ENDMDL
MODEL 5
REMARK VINA RESULT:      -8.0      3.287      5.005
REMARK  2 active torsions:
REMARK  status: ('A' for Active; 'I' for Inactive)
REMARK    1  A    between atoms: C_9  and  C_10 
REMARK       I    between atoms: C_10  and  N_11 
REMARK    2  A    between atoms: N_11  and  C_12 
ROOT
HETATM    1  C   UNL     1      41.117 -16.943   1.771  1.00  0.00     0.267 C 
HETATM    2  N   UNL     1      40.080 -16.258   2.334  1.00  0.00    -0.156 N 
HETATM    3  O   UNL     1      40.827 -18.023   1.246  1.00  0.00    -0.270 OA
HETATM    4  H   UNL     1      39.190 -16.738   2.242  1.00  0.00     0.187 HD
ENDROOT
BRANCH   1   5
HETATM    5  C   UNL     1      42.568 -16.396   1.715  1.00  0.00     0.282 C 
HETATM    6  N   UNL     1      43.100 -15.777   2.987  1.00  0.00    -0.058 N 
HETATM    7  C   UNL     1      43.118 -16.703   4.141  1.00  0.00     0.272 C 
HETATM    8  H   UNL     1      44.039 -15.402   2.827  1.00  0.00     0.278 HD
HETATM    9  H   UNL     1      42.496 -14.961   3.205  1.00  0.00     0.278 HD
HETATM   10  C   UNL     1      43.703 -18.041   3.799  1.00  0.00    -0.026 A 
HETATM   11  C   UNL     1      43.889 -18.439   2.458  1.00  0.00    -0.048 A 
HETATM   12  C   UNL     1      44.012 -18.935   4.835  1.00  0.00     0.009 A 
HETATM   13  C   UNL     1      44.408 -19.710   2.183  1.00  0.00     0.008 A 
HETATM   14  C   UNL     1      43.568 -17.498   1.312  1.00  0.00     0.082 C 
HETATM   15  C   UNL     1      44.713 -20.588   3.224  1.00  0.00     0.001 A 
HETATM   16  C   UNL     1      44.515 -20.203   4.547  1.00  0.00     0.001 A 
ENDBRANCH   1   5
BRANCH   2  17
HETATM   17  C   UNL     1      40.124 -15.070   3.005  1.00  0.00     0.708 A 
HETATM   18  N   UNL     1      40.483 -13.893   2.540  1.00  0.00    -0.062 NA
HETATM   19  C   UNL     1      40.448 -13.043   3.628  1.00  0.00     0.103 A 
HETATM   20  C   UNL     1      40.071 -13.729   4.775  1.00  0.00     0.078 A 
HETATM   21  C   UNL     1      40.757 -11.678   3.712  1.00  0.00     0.034 A 
HETATM   22  N   UNL     1      39.831 -15.007   4.345  1.00  0.00    -0.188 N 
HETATM   23  C   UNL     1      39.992 -13.134   6.035  1.00  0.00     0.032 A 
HETATM   24  H   UNL     1      39.532 -15.774   4.930  1.00  0.00     0.184 HD
HETATM   25  C   UNL     1      40.316 -11.775   6.105  1.00  0.00     0.002 A 
HETATM   26  C   UNL     1      40.687 -11.057   4.965  1.00  0.00     0.002 A 
ENDBRANCH   2  17
TORSDOF 2
ENDMDL
MODEL 6
REMARK VINA RESULT:      -7.9      2.042      3.046
REMARK  2 active torsions:
REMARK  status: ('A' for Active; 'I' for Inactive)
REMARK    1  A    between atoms: C_9  and  C_10 
REMARK       I    between atoms: C_10  and  N_11 
REMARK    2  A    between atoms: N_11  and  C_12 
ROOT
HETATM    1  C   UNL     1      41.678 -16.845   1.187  1.00  0.00     0.267 C 
HETATM    2  N   UNL     1      40.837 -16.252   0.290  1.00  0.00    -0.156 N 
HETATM    3  O   UNL     1      41.193 -17.764   1.853  1.00  0.00    -0.270 OA
HETATM    4  H   UNL     1      39.906 -16.657   0.292  1.00  0.00     0.187 HD
ENDROOT
BRANCH   1   5
HETATM    5  C   UNL     1      43.174 -16.459   1.334  1.00  0.00     0.282 C 
HETATM    6  N   UNL     1      43.544 -15.671   2.569  1.00  0.00    -0.058 N 
HETATM    7  C   UNL     1      43.235 -16.365   3.838  1.00  0.00     0.272 C 
HETATM    8  H   UNL     1      44.537 -15.423   2.540  1.00  0.00     0.278 HD
HETATM    9  H   UNL     1      43.022 -14.774   2.526  1.00  0.00     0.278 HD
HETATM   10  C   UNL     1      43.693 -17.793   3.841  1.00  0.00    -0.026 A 
HETATM   11  C   UNL     1      44.064 -18.447   2.648  1.00  0.00    -0.048 A 
HETATM   12  C   UNL     1      43.692 -18.506   5.049  1.00  0.00     0.009 A 
HETATM   13  C   UNL     1      44.455 -19.792   2.692  1.00  0.00     0.008 A 
HETATM   14  C   UNL     1      44.079 -17.708   1.323  1.00  0.00     0.082 C 
HETATM   15  C   UNL     1      44.451 -20.487   3.901  1.00  0.00     0.001 A 
HETATM   16  C   UNL     1      44.070 -19.848   5.078  1.00  0.00     0.001 A 
ENDBRANCH   1   5
BRANCH   2  17
HETATM   17  C   UNL     1      41.099 -15.200  -0.538  1.00  0.00     0.708 A 
HETATM   18  N   UNL     1      40.986 -15.156  -1.848  1.00  0.00    -0.062 NA
HETATM   19  C   UNL     1      41.460 -13.912  -2.217  1.00  0.00     0.103 A 
HETATM   20  C   UNL     1      41.879 -13.197  -1.102  1.00  0.00     0.078 A 
HETATM   21  C   UNL     1      41.588 -13.339  -3.490  1.00  0.00     0.034 A 
HETATM   22  N   UNL     1      41.602 -14.022  -0.044  1.00  0.00    -0.188 N 
HETATM   23  C   UNL     1      42.445 -11.924  -1.175  1.00  0.00     0.032 A 
HETATM   24  H   UNL     1      41.782 -13.807   0.927  1.00  0.00     0.184 HD
HETATM   25  C   UNL     1      42.579 -11.372  -2.453  1.00  0.00     0.002 A 
HETATM   26  C   UNL     1      42.155 -12.063  -3.591  1.00  0.00     0.002 A 
ENDBRANCH   2  17
TORSDOF 2
ENDMDL
MODEL 7
REMARK VINA RESULT:      -7.8      3.312      4.943
REMARK  2 active torsions:
REMARK  status: ('A' for Active; 'I' for Inactive)
REMARK    1  A    between atoms: C_9  and  C_10 
REMARK       I    between atoms: C_10  and  N_11 
REMARK    2  A    between atoms: N_11  and  C_12 
ROOT
HETATM    1  C   UNL     1      40.975 -16.709   1.954  1.00  0.00     0.267 C 
HETATM    2  N   UNL     1      39.892 -16.076   2.489  1.00  0.00    -0.156 N 
HETATM    3  O   UNL     1      40.745 -17.777   1.378  1.00  0.00    -0.270 OA
HETATM    4  H   UNL     1      39.023 -16.578   2.336  1.00  0.00     0.187 HD
ENDROOT
BRANCH   1   5
HETATM    5  C   UNL     1      42.410 -16.119   1.991  1.00  0.00     0.282 C 
HETATM    6  N   UNL     1      42.922 -15.684   3.345  1.00  0.00    -0.058 N 
HETATM    7  C   UNL     1      42.965 -16.772   4.346  1.00  0.00     0.272 C 
HETATM    8  H   UNL     1      43.849 -15.262   3.248  1.00  0.00     0.278 HD
HETATM    9  H   UNL     1      42.294 -14.928   3.679  1.00  0.00     0.278 HD
HETATM   10  C   UNL     1      43.589 -18.026   3.809  1.00  0.00    -0.026 A 
HETATM   11  C   UNL     1      43.789 -18.212   2.425  1.00  0.00    -0.048 A 
HETATM   12  C   UNL     1      43.922 -19.056   4.701  1.00  0.00     0.009 A 
HETATM   13  C   UNL     1      44.346 -19.412   1.965  1.00  0.00     0.008 A 
HETATM   14  C   UNL     1      43.443 -17.119   1.432  1.00  0.00     0.082 C 
HETATM   15  C   UNL     1      44.674 -20.427   2.864  1.00  0.00     0.001 A 
HETATM   16  C   UNL     1      44.462 -20.252   4.228  1.00  0.00     0.001 A 
ENDBRANCH   1   5
BRANCH   2  17
HETATM   17  C   UNL     1      39.866 -14.913   3.203  1.00  0.00     0.708 A 
HETATM   18  N   UNL     1      40.083 -14.751   4.491  1.00  0.00    -0.062 NA
HETATM   19  C   UNL     1      39.846 -13.413   4.738  1.00  0.00     0.103 A 
HETATM   20  C   UNL     1      39.466 -12.759   3.573  1.00  0.00     0.078 A 
HETATM   21  C   UNL     1      39.908 -12.696   5.941  1.00  0.00     0.034 A 
HETATM   22  N   UNL     1      39.526 -13.725   2.604  1.00  0.00    -0.188 N 
HETATM   23  C   UNL     1      39.121 -11.408   3.529  1.00  0.00     0.032 A 
HETATM   24  H   UNL     1      39.311 -13.587   1.626  1.00  0.00     0.184 HD
HETATM   25  C   UNL     1      39.175 -10.710   4.740  1.00  0.00     0.002 A 
HETATM   26  C   UNL     1      39.565 -11.339   5.925  1.00  0.00     0.002 A 
ENDBRANCH   2  17
TORSDOF 2
ENDMDL
MODEL 8
REMARK VINA RESULT:      -7.8      1.540      6.969
REMARK  2 active torsions:
REMARK  status: ('A' for Active; 'I' for Inactive)
REMARK    1  A    between atoms: C_9  and  C_10 
REMARK       I    between atoms: C_10  and  N_11 
REMARK    2  A    between atoms: N_11  and  C_12 
ROOT
HETATM    1  C   UNL     1      39.990 -15.419   1.801  1.00  0.00     0.267 C 
HETATM    2  N   UNL     1      40.093 -16.619   2.442  1.00  0.00    -0.156 N 
HETATM    3  O   UNL     1      38.859 -14.925   1.762  1.00  0.00    -0.270 OA
HETATM    4  H   UNL     1      39.206 -16.951   2.808  1.00  0.00     0.187 HD
ENDROOT
BRANCH   1   5
HETATM    5  C   UNL     1      41.210 -14.662   1.210  1.00  0.00     0.282 C 
HETATM    6  N   UNL     1      41.996 -15.388   0.143  1.00  0.00    -0.058 N 
HETATM    7  C   UNL     1      41.196 -15.749  -1.048  1.00  0.00     0.272 C 
HETATM    8  H   UNL     1      42.805 -14.827  -0.137  1.00  0.00     0.278 HD
HETATM    9  H   UNL     1      42.379 -16.249   0.579  1.00  0.00     0.278 HD
HETATM   10  C   UNL     1      40.358 -14.610  -1.548  1.00  0.00    -0.026 A 
HETATM   11  C   UNL     1      40.134 -13.463  -0.758  1.00  0.00    -0.048 A 
HETATM   12  C   UNL     1      39.738 -14.719  -2.801  1.00  0.00     0.009 A 
HETATM   13  C   UNL     1      39.318 -12.436  -1.251  1.00  0.00     0.008 A 
HETATM   14  C   UNL     1      40.789 -13.309   0.601  1.00  0.00     0.082 C 
HETATM   15  C   UNL     1      38.709 -12.558  -2.500  1.00  0.00     0.001 A 
HETATM   16  C   UNL     1      38.917 -13.696  -3.274  1.00  0.00     0.001 A 
ENDBRANCH   1   5
BRANCH   2  17
HETATM   17  C   UNL     1      41.205 -17.395   2.598  1.00  0.00     0.708 A 
HETATM   18  N   UNL     1      41.799 -18.147   1.697  1.00  0.00    -0.062 NA
HETATM   19  C   UNL     1      42.812 -18.799   2.372  1.00  0.00     0.103 A 
HETATM   20  C   UNL     1      42.818 -18.439   3.713  1.00  0.00     0.078 A 
HETATM   21  C   UNL     1      43.745 -19.736   1.906  1.00  0.00     0.034 A 
HETATM   22  N   UNL     1      41.813 -17.515   3.824  1.00  0.00    -0.188 N 
HETATM   23  C   UNL     1      43.705 -18.975   4.648  1.00  0.00     0.032 A 
HETATM   24  H   UNL     1      41.545 -17.041   4.675  1.00  0.00     0.184 HD
HETATM   25  C   UNL     1      44.621 -19.918   4.170  1.00  0.00     0.002 A 
HETATM   26  C   UNL     1      44.645 -20.290   2.824  1.00  0.00     0.002 A 
ENDBRANCH   2  17
TORSDOF 2
ENDMDL
MODEL 9
REMARK VINA RESULT:      -7.7      3.695      5.008
REMARK  2 active torsions:
REMARK  status: ('A' for Active; 'I' for Inactive)
REMARK    1  A    between atoms: C_9  and  C_10 
REMARK       I    between atoms: C_10  and  N_11 
REMARK    2  A    between atoms: N_11  and  C_12 
ROOT
HETATM    1  C   UNL     1      42.126 -16.809   6.614  1.00  0.00     0.267 C 
HETATM    2  N   UNL     1      40.864 -16.370   6.333  1.00  0.00    -0.156 N 
HETATM    3  O   UNL     1      42.204 -17.753   7.406  1.00  0.00    -0.270 OA
HETATM    4  H   UNL     1      40.145 -16.893   6.824  1.00  0.00     0.187 HD
ENDROOT
BRANCH   1   5
HETATM    5  C   UNL     1      43.399 -16.225   5.944  1.00  0.00     0.282 C 
HETATM    6  N   UNL     1      44.723 -16.675   6.516  1.00  0.00    -0.058 N 
HETATM    7  C   UNL     1      44.935 -18.138   6.456  1.00  0.00     0.272 C 
HETATM    8  H   UNL     1      45.490 -16.191   6.041  1.00  0.00     0.278 HD
HETATM    9  H   UNL     1      44.751 -16.359   7.505  1.00  0.00     0.278 HD
HETATM   10  C   UNL     1      44.600 -18.715   5.113  1.00  0.00    -0.026 A 
HETATM   11  C   UNL     1      43.861 -17.980   4.162  1.00  0.00    -0.048 A 
HETATM   12  C   UNL     1      44.977 -20.035   4.826  1.00  0.00     0.009 A 
HETATM   13  C   UNL     1      43.542 -18.570   2.932  1.00  0.00     0.008 A 
HETATM   14  C   UNL     1      43.438 -16.549   4.437  1.00  0.00     0.082 C 
HETATM   15  C   UNL     1      43.926 -19.883   2.660  1.00  0.00     0.001 A 
HETATM   16  C   UNL     1      44.641 -20.615   3.604  1.00  0.00     0.001 A 
ENDBRANCH   1   5
BRANCH   2  17
HETATM   17  C   UNL     1      40.496 -15.331   5.530  1.00  0.00     0.708 A 
HETATM   18  N   UNL     1      40.277 -14.081   5.876  1.00  0.00    -0.062 NA
HETATM   19  C   UNL     1      39.839 -13.453   4.726  1.00  0.00     0.103 A 
HETATM   20  C   UNL     1      39.782 -14.350   3.669  1.00  0.00     0.078 A 
HETATM   21  C   UNL     1      39.443 -12.123   4.523  1.00  0.00     0.034 A 
HETATM   22  N   UNL     1      40.243 -15.528   4.195  1.00  0.00    -0.188 N 
HETATM   23  C   UNL     1      39.332 -14.007   2.393  1.00  0.00     0.032 A 
HETATM   24  H   UNL     1      40.335 -16.398   3.689  1.00  0.00     0.184 HD
HETATM   25  C   UNL     1      38.928 -12.680   2.210  1.00  0.00     0.002 A 
HETATM   26  C   UNL     1      38.986 -11.752   3.253  1.00  0.00     0.002 A 
ENDBRANCH   2  17
TORSDOF 2
ENDMDL
MODEL 10
REMARK VINA RESULT:      -7.5      4.128      5.506
REMARK  2 active torsions:
REMARK  status: ('A' for Active; 'I' for Inactive)
REMARK    1  A    between atoms: C_9  and  C_10 
REMARK       I    between atoms: C_10  and  N_11 
REMARK    2  A    between atoms: N_11  and  C_12 
ROOT
HETATM    1  C   UNL     1      42.053 -17.739   5.278  1.00  0.00     0.267 C 
HETATM    2  N   UNL     1      40.991 -16.893   5.411  1.00  0.00    -0.156 N 
HETATM    3  O   UNL     1      41.868 -18.899   5.658  1.00  0.00    -0.270 OA
HETATM    4  H   UNL     1      40.173 -17.342   5.813  1.00  0.00     0.187 HD
ENDROOT
BRANCH   1   5
HETATM    5  C   UNL     1      43.399 -17.320   4.629  1.00  0.00     0.282 C 
HETATM    6  N   UNL     1      44.654 -17.802   5.318  1.00  0.00    -0.058 N 
HETATM    7  C   UNL     1      44.755 -19.275   5.416  1.00  0.00     0.272 C 
HETATM    8  H   UNL     1      45.479 -17.426   4.844  1.00  0.00     0.278 HD
HETATM    9  H   UNL     1      44.656 -17.389   6.271  1.00  0.00     0.278 HD
HETATM   10  C   UNL     1      44.445 -19.961   4.119  1.00  0.00    -0.026 A 
HETATM   11  C   UNL     1      43.815 -19.277   3.059  1.00  0.00    -0.048 A 
HETATM   12  C   UNL     1      44.734 -21.328   3.986  1.00  0.00     0.009 A 
HETATM   13  C   UNL     1      43.514 -19.966   1.877  1.00  0.00     0.008 A 
HETATM   14  C   UNL     1      43.490 -17.799   3.166  1.00  0.00     0.082 C 
HETATM   15  C   UNL     1      43.809 -21.324   1.758  1.00  0.00     0.001 A 
HETATM   16  C   UNL     1      44.416 -22.005   2.809  1.00  0.00     0.001 A 
ENDBRANCH   1   5
BRANCH   2  17
HETATM   17  C   UNL     1      40.932 -15.563   5.107  1.00  0.00     0.708 A 
HETATM   18  N   UNL     1      40.690 -15.012   3.938  1.00  0.00    -0.062 NA
HETATM   19  C   UNL     1      40.837 -13.653   4.135  1.00  0.00     0.103 A 
HETATM   20  C   UNL     1      41.188 -13.384   5.452  1.00  0.00     0.078 A 
HETATM   21  C   UNL     1      40.715 -12.594   3.225  1.00  0.00     0.034 A 
HETATM   22  N   UNL     1      41.203 -14.611   6.059  1.00  0.00    -0.188 N 
HETATM   23  C   UNL     1      41.446 -12.098   5.931  1.00  0.00     0.032 A 
HETATM   24  H   UNL     1      41.419 -14.780   7.032  1.00  0.00     0.184 HD
HETATM   25  C   UNL     1      41.333 -11.054   5.007  1.00  0.00     0.002 A 
HETATM   26  C   UNL     1      40.970 -11.294   3.679  1.00  0.00     0.002 A 
ENDBRANCH   2  17
TORSDOF 2
ENDMDL
