MODEL 1
REMARK VINA RESULT:      -8.1      0.000      0.000
REMARK  9 active torsions:
REMARK  status: ('A' for Active; 'I' for Inactive)
REMARK    1  A    between atoms: C_2  and  O_3 
REMARK    2  A    between atoms: O_3  and  C_4 
REMARK    3  A    between atoms: C_7  and  N_8 
REMARK    4  A    between atoms: C_12  and  N_13 
REMARK       I    between atoms: N_13  and  C_14 
REMARK       I    between atoms: C_14  and  N_15 
REMARK    5  A    between atoms: N_15  and  C_16 
REMARK    6  A    between atoms: C_16  and  C_17 
REMARK    7  A    between atoms: C_17  and  C_18 
REMARK    8  A    between atoms: C_21  and  S_22 
REMARK    9  A    between atoms: S_22  and  N_23 
ROOT
HETATM    1  N   UNL     1      44.671 -22.366   3.243  1.00  0.00    -0.336 N 
HETATM    2  C   UNL     1      44.019 -21.655   2.295  1.00  0.00     0.316 C 
HETATM    3  N   UNL     1      43.974 -20.308   2.450  1.00  0.00    -0.343 N 
HETATM    4  O   UNL     1      43.481 -22.256   1.370  1.00  0.00    -0.248 OA
HETATM    5  H   UNL     1      44.587 -23.360   3.055  1.00  0.00     0.164 HD
HETATM    6  H   UNL     1      44.763 -19.880   2.910  1.00  0.00     0.164 HD
ENDROOT
BRANCH   1   7
HETATM    7  C   UNL     1      45.322 -21.987   4.499  1.00  0.00     0.113 C 
HETATM    8  C   UNL     1      44.624 -22.491   5.751  1.00  0.00     0.130 C 
HETATM    9  C   UNL     1      43.991 -21.263   6.360  1.00  0.00     0.226 C 
HETATM   10  N   UNL     1      44.463 -20.127   5.684  1.00  0.00    -0.316 N 
HETATM   11  O   UNL     1      43.220 -21.325   7.306  1.00  0.00    -0.273 OA
HETATM   12  C   UNL     1      45.465 -20.484   4.703  1.00  0.00     0.157 C 
BRANCH  10  13
HETATM   13  C   UNL     1      44.200 -18.768   6.033  1.00  0.00     0.037 A 
HETATM   14  C   UNL     1      42.901 -18.245   6.069  1.00  0.00     0.032 A 
HETATM   15  C   UNL     1      42.651 -16.921   6.462  1.00  0.00     0.039 A 
HETATM   16  C   UNL     1      43.705 -16.089   6.824  1.00  0.00     0.068 A 
HETATM   17  C   UNL     1      45.006 -16.574   6.745  1.00  0.00     0.039 A 
HETATM   18  C   UNL     1      45.251 -17.899   6.365  1.00  0.00     0.032 A 
BRANCH  16  19
HETATM   19  O   UNL     1      43.582 -14.791   7.235  1.00  0.00    -0.352 OA
BRANCH  19  20
HETATM   20  C   UNL     1      44.747 -13.981   7.062  1.00  0.00     0.171 C 
HETATM   21  C   UNL     1      44.841 -13.041   8.250  1.00  0.00     0.034 C 
ENDBRANCH  19  20
ENDBRANCH  16  19
ENDBRANCH  10  13
ENDBRANCH   1   7
BRANCH   3  22
HETATM   22  C   UNL     1      43.275 -19.464   1.495  1.00  0.00     0.129 C 
BRANCH  22  23
HETATM   23  C   UNL     1      43.768 -18.008   1.447  1.00  0.00     0.058 C 
BRANCH  23  24
HETATM   24  C   UNL     1      43.006 -16.960   2.234  1.00  0.00    -0.057 A 
HETATM   25  C   UNL     1      43.571 -15.762   2.690  1.00  0.00     0.009 A 
HETATM   26  C   UNL     1      42.815 -14.846   3.423  1.00  0.00     0.025 A 
HETATM   27  C   UNL     1      41.470 -15.112   3.687  1.00  0.00     0.074 A 
HETATM   28  C   UNL     1      40.881 -16.292   3.236  1.00  0.00     0.025 A 
HETATM   29  C   UNL     1      41.649 -17.209   2.515  1.00  0.00     0.009 A 
BRANCH  27  30
HETATM   30  S   UNL     1      40.524 -13.946   4.615  1.00  0.00     0.239 S 
HETATM   31  O   UNL     1      41.403 -13.184   5.472  1.00  0.00    -0.206 OA
HETATM   32  O   UNL     1      39.559 -13.322   3.742  1.00  0.00    -0.206 OA
BRANCH  30  33
HETATM   33  N   UNL     1      39.647 -14.937   5.653  1.00  0.00    -0.225 NA
HETATM   34  H   UNL     1      38.727 -15.121   5.253  1.00  0.00     0.136 HD
HETATM   35  H   UNL     1      40.187 -15.777   5.862  1.00  0.00     0.136 HD
ENDBRANCH  30  33
ENDBRANCH  27  30
ENDBRANCH  23  24
ENDBRANCH  22  23
ENDBRANCH   3  22
TORSDOF 9
ENDMDL
MODEL 2
REMARK VINA RESULT:      -7.9      2.964      7.478
REMARK  9 active torsions:
REMARK  status: ('A' for Active; 'I' for Inactive)
REMARK    1  A    between atoms: C_2  and  O_3 
REMARK    2  A    between atoms: O_3  and  C_4 
REMARK    3  A    between atoms: C_7  and  N_8 
REMARK    4  A    between atoms: C_12  and  N_13 
REMARK       I    between atoms: N_13  and  C_14 
REMARK       I    between atoms: C_14  and  N_15 
REMARK    5  A    between atoms: N_15  and  C_16 
REMARK    6  A    between atoms: C_16  and  C_17 
REMARK    7  A    between atoms: C_17  and  C_18 
REMARK    8  A    between atoms: C_21  and  S_22 
REMARK    9  A    between atoms: S_22  and  N_23 
ROOT
HETATM    1  N   UNL     1      40.215 -12.446   1.403  1.00  0.00    -0.336 N 
HETATM    2  C   UNL     1      39.819 -12.442   2.697  1.00  0.00     0.316 C 
HETATM    3  N   UNL     1      40.697 -12.917   3.616  1.00  0.00    -0.343 N 
HETATM    4  O   UNL     1      38.691 -12.043   2.970  1.00  0.00    -0.248 OA
HETATM    5  H   UNL     1      39.459 -12.128   0.805  1.00  0.00     0.164 HD
HETATM    6  H   UNL     1      41.676 -12.784   3.415  1.00  0.00     0.164 HD
ENDROOT
BRANCH   1   7
HETATM    7  C   UNL     1      41.423 -12.932   0.734  1.00  0.00     0.113 C 
HETATM    8  C   UNL     1      41.174 -13.631  -0.592  1.00  0.00     0.130 C 
HETATM    9  C   UNL     1      41.419 -15.093  -0.308  1.00  0.00     0.226 C 
HETATM   10  N   UNL     1      41.985 -15.220   0.970  1.00  0.00    -0.316 N 
HETATM   11  O   UNL     1      41.164 -15.970  -1.122  1.00  0.00    -0.273 OA
HETATM   12  C   UNL     1      42.241 -13.921   1.555  1.00  0.00     0.157 C 
BRANCH  10  13
HETATM   13  C   UNL     1      42.476 -16.422   1.561  1.00  0.00     0.037 A 
HETATM   14  C   UNL     1      43.602 -17.092   1.065  1.00  0.00     0.032 A 
HETATM   15  C   UNL     1      44.104 -18.246   1.686  1.00  0.00     0.039 A 
HETATM   16  C   UNL     1      43.481 -18.758   2.819  1.00  0.00     0.068 A 
HETATM   17  C   UNL     1      42.332 -18.138   3.296  1.00  0.00     0.039 A 
HETATM   18  C   UNL     1      41.840 -16.979   2.682  1.00  0.00     0.032 A 
BRANCH  16  19
HETATM   19  O   UNL     1      43.887 -19.863   3.513  1.00  0.00    -0.352 OA
BRANCH  19  20
HETATM   20  C   UNL     1      44.788 -20.728   2.817  1.00  0.00     0.171 C 
HETATM   21  C   UNL     1      43.960 -21.755   2.066  1.00  0.00     0.034 C 
ENDBRANCH  19  20
ENDBRANCH  16  19
ENDBRANCH  10  13
ENDBRANCH   1   7
BRANCH   3  22
HETATM   22  C   UNL     1      40.351 -12.974   5.027  1.00  0.00     0.129 C 
BRANCH  22  23
HETATM   23  C   UNL     1      39.988 -14.377   5.540  1.00  0.00     0.058 C 
BRANCH  23  24
HETATM   24  C   UNL     1      41.112 -15.317   5.933  1.00  0.00    -0.057 A 
HETATM   25  C   UNL     1      42.470 -14.981   5.866  1.00  0.00     0.009 A 
HETATM   26  C   UNL     1      43.455 -15.901   6.231  1.00  0.00     0.025 A 
HETATM   27  C   UNL     1      43.085 -17.165   6.692  1.00  0.00     0.074 A 
HETATM   28  C   UNL     1      41.739 -17.521   6.778  1.00  0.00     0.025 A 
HETATM   29  C   UNL     1      40.762 -16.599   6.398  1.00  0.00     0.009 A 
BRANCH  27  30
HETATM   30  S   UNL     1      44.338 -18.319   7.151  1.00  0.00     0.239 S 
HETATM   31  O   UNL     1      45.573 -17.984   6.478  1.00  0.00    -0.206 OA
HETATM   32  O   UNL     1      44.268 -18.551   8.573  1.00  0.00    -0.206 OA
BRANCH  30  33
HETATM   33  N   UNL     1      43.810 -19.737   6.418  1.00  0.00    -0.225 NA
HETATM   34  H   UNL     1      44.377 -20.521   6.741  1.00  0.00     0.136 HD
HETATM   35  H   UNL     1      42.809 -19.854   6.578  1.00  0.00     0.136 HD
ENDBRANCH  30  33
ENDBRANCH  27  30
ENDBRANCH  23  24
ENDBRANCH  22  23
ENDBRANCH   3  22
TORSDOF 9
ENDMDL
MODEL 3
REMARK VINA RESULT:      -7.7      3.941      7.861
REMARK  9 active torsions:
REMARK  status: ('A' for Active; 'I' for Inactive)
REMARK    1  A    between atoms: C_2  and  O_3 
REMARK    2  A    between atoms: O_3  and  C_4 
REMARK    3  A    between atoms: C_7  and  N_8 
REMARK    4  A    between atoms: C_12  and  N_13 
REMARK       I    between atoms: N_13  and  C_14 
REMARK       I    between atoms: C_14  and  N_15 
REMARK    5  A    between atoms: N_15  and  C_16 
REMARK    6  A    between atoms: C_16  and  C_17 
REMARK    7  A    between atoms: C_17  and  C_18 
REMARK    8  A    between atoms: C_21  and  S_22 
REMARK    9  A    between atoms: S_22  and  N_23 
ROOT
HETATM    1  N   UNL     1      42.255 -12.093   4.208  1.00  0.00    -0.336 N 
HETATM    2  C   UNL     1      42.287 -13.143   3.355  1.00  0.00     0.316 C 
HETATM    3  N   UNL     1      41.124 -13.812   3.152  1.00  0.00    -0.343 N 
HETATM    4  O   UNL     1      43.355 -13.454   2.838  1.00  0.00    -0.248 OA
HETATM    5  H   UNL     1      43.188 -11.712   4.327  1.00  0.00     0.164 HD
HETATM    6  H   UNL     1      40.276 -13.271   3.212  1.00  0.00     0.164 HD
ENDROOT
BRANCH   1   7
HETATM    7  C   UNL     1      41.200 -11.527   5.051  1.00  0.00     0.113 C 
HETATM    8  C   UNL     1      41.168 -10.008   5.090  1.00  0.00     0.130 C 
HETATM    9  C   UNL     1      41.683  -9.647   6.462  1.00  0.00     0.226 C 
HETATM   10  N   UNL     1      41.778 -10.815   7.234  1.00  0.00    -0.316 N 
HETATM   11  O   UNL     1      41.931  -8.495   6.785  1.00  0.00    -0.273 OA
HETATM   12  C   UNL     1      41.264 -11.959   6.510  1.00  0.00     0.157 C 
BRANCH  10  13
HETATM   13  C   UNL     1      42.107 -10.887   8.621  1.00  0.00     0.037 A 
HETATM   14  C   UNL     1      41.157 -10.661   9.625  1.00  0.00     0.032 A 
HETATM   15  C   UNL     1      41.481 -10.784  10.985  1.00  0.00     0.039 A 
HETATM   16  C   UNL     1      42.772 -11.131  11.368  1.00  0.00     0.068 A 
HETATM   17  C   UNL     1      43.742 -11.309  10.387  1.00  0.00     0.039 A 
HETATM   18  C   UNL     1      43.412 -11.198   9.031  1.00  0.00     0.032 A 
BRANCH  16  19
HETATM   19  O   UNL     1      43.198 -11.293  12.656  1.00  0.00    -0.352 OA
BRANCH  19  20
HETATM   20  C   UNL     1      42.508 -10.509  13.633  1.00  0.00     0.171 C 
HETATM   21  C   UNL     1      43.291  -9.225  13.837  1.00  0.00     0.034 C 
ENDBRANCH  19  20
ENDBRANCH  16  19
ENDBRANCH  10  13
ENDBRANCH   1   7
BRANCH   3  22
HETATM   22  C   UNL     1      41.066 -14.968   2.271  1.00  0.00     0.129 C 
BRANCH  22  23
HETATM   23  C   UNL     1      40.619 -16.271   2.956  1.00  0.00     0.058 C 
BRANCH  23  24
HETATM   24  C   UNL     1      41.438 -16.793   4.120  1.00  0.00    -0.057 A 
HETATM   25  C   UNL     1      41.072 -16.640   5.463  1.00  0.00     0.009 A 
HETATM   26  C   UNL     1      41.881 -17.135   6.488  1.00  0.00     0.025 A 
HETATM   27  C   UNL     1      43.059 -17.814   6.174  1.00  0.00     0.074 A 
HETATM   28  C   UNL     1      43.441 -17.989   4.844  1.00  0.00     0.025 A 
HETATM   29  C   UNL     1      42.632 -17.479   3.827  1.00  0.00     0.009 A 
BRANCH  27  30
HETATM   30  S   UNL     1      44.073 -18.436   7.477  1.00  0.00     0.239 S 
HETATM   31  O   UNL     1      43.657 -19.778   7.815  1.00  0.00    -0.206 OA
HETATM   32  O   UNL     1      45.449 -18.095   7.207  1.00  0.00    -0.206 OA
BRANCH  30  33
HETATM   33  N   UNL     1      43.603 -17.488   8.784  1.00  0.00    -0.225 NA
HETATM   34  H   UNL     1      44.239 -16.696   8.878  1.00  0.00     0.136 HD
HETATM   35  H   UNL     1      42.623 -17.224   8.681  1.00  0.00     0.136 HD
ENDBRANCH  30  33
ENDBRANCH  27  30
ENDBRANCH  23  24
ENDBRANCH  22  23
ENDBRANCH   3  22
TORSDOF 9
ENDMDL
MODEL 4
REMARK VINA RESULT:      -7.7      2.829      6.562
REMARK  9 active torsions:
REMARK  status: ('A' for Active; 'I' for Inactive)
REMARK    1  A    between atoms: C_2  and  O_3 
REMARK    2  A    between atoms: O_3  and  C_4 
REMARK    3  A    between atoms: C_7  and  N_8 
REMARK    4  A    between atoms: C_12  and  N_13 
REMARK       I    between atoms: N_13  and  C_14 
REMARK       I    between atoms: C_14  and  N_15 
REMARK    5  A    between atoms: N_15  and  C_16 
REMARK    6  A    between atoms: C_16  and  C_17 
REMARK    7  A    between atoms: C_17  and  C_18 
REMARK    8  A    between atoms: C_21  and  S_22 
REMARK    9  A    between atoms: S_22  and  N_23 
ROOT
HETATM    1  N   UNL     1      41.848 -14.168   0.260  1.00  0.00    -0.336 N 
HETATM    2  C   UNL     1      42.026 -13.239   1.227  1.00  0.00     0.316 C 
HETATM    3  N   UNL     1      41.577 -13.543   2.470  1.00  0.00    -0.343 N 
HETATM    4  O   UNL     1      42.552 -12.170   0.931  1.00  0.00    -0.248 OA
HETATM    5  H   UNL     1      42.166 -13.808  -0.634  1.00  0.00     0.164 HD
HETATM    6  H   UNL     1      41.599 -14.516   2.732  1.00  0.00     0.164 HD
ENDROOT
BRANCH   1   7
HETATM    7  C   UNL     1      41.185 -15.474   0.245  1.00  0.00     0.113 C 
HETATM    8  C   UNL     1      40.142 -15.666   1.332  1.00  0.00     0.130 C 
HETATM    9  C   UNL     1      40.777 -16.626   2.309  1.00  0.00     0.226 C 
HETATM   10  N   UNL     1      41.957 -17.134   1.746  1.00  0.00    -0.316 N 
HETATM   11  O   UNL     1      40.271 -16.889   3.391  1.00  0.00    -0.273 OA
HETATM   12  C   UNL     1      42.131 -16.659   0.389  1.00  0.00     0.157 C 
BRANCH  10  13
HETATM   13  C   UNL     1      42.784 -18.158   2.298  1.00  0.00     0.037 A 
HETATM   14  C   UNL     1      42.923 -19.412   1.690  1.00  0.00     0.032 A 
HETATM   15  C   UNL     1      43.779 -20.393   2.215  1.00  0.00     0.039 A 
HETATM   16  C   UNL     1      44.511 -20.137   3.369  1.00  0.00     0.068 A 
HETATM   17  C   UNL     1      44.348 -18.917   4.015  1.00  0.00     0.039 A 
HETATM   18  C   UNL     1      43.503 -17.935   3.482  1.00  0.00     0.032 A 
BRANCH  16  19
HETATM   19  O   UNL     1      45.382 -21.007   3.962  1.00  0.00    -0.352 OA
BRANCH  19  20
HETATM   20  C   UNL     1      44.789 -22.178   4.528  1.00  0.00     0.171 C 
HETATM   21  C   UNL     1      44.383 -21.851   5.954  1.00  0.00     0.034 C 
ENDBRANCH  19  20
ENDBRANCH  16  19
ENDBRANCH  10  13
ENDBRANCH   1   7
BRANCH   3  22
HETATM   22  C   UNL     1      41.703 -12.597   3.568  1.00  0.00     0.129 C 
BRANCH  22  23
HETATM   23  C   UNL     1      41.182 -13.114   4.919  1.00  0.00     0.058 C 
BRANCH  23  24
HETATM   24  C   UNL     1      41.900 -14.278   5.573  1.00  0.00    -0.057 A 
HETATM   25  C   UNL     1      43.281 -14.313   5.807  1.00  0.00     0.009 A 
HETATM   26  C   UNL     1      43.879 -15.425   6.402  1.00  0.00     0.025 A 
HETATM   27  C   UNL     1      43.092 -16.509   6.794  1.00  0.00     0.074 A 
HETATM   28  C   UNL     1      41.714 -16.495   6.583  1.00  0.00     0.025 A 
HETATM   29  C   UNL     1      41.126 -15.384   5.974  1.00  0.00     0.009 A 
BRANCH  27  30
HETATM   30  S   UNL     1      43.859 -17.909   7.546  1.00  0.00     0.239 S 
HETATM   31  O   UNL     1      43.031 -19.077   7.350  1.00  0.00    -0.206 OA
HETATM   32  O   UNL     1      45.269 -17.896   7.237  1.00  0.00    -0.206 OA
BRANCH  30  33
HETATM   33  N   UNL     1      43.735 -17.552   9.185  1.00  0.00    -0.225 NA
HETATM   34  H   UNL     1      43.368 -16.607   9.302  1.00  0.00     0.136 HD
HETATM   35  H   UNL     1      43.185 -18.273   9.652  1.00  0.00     0.136 HD
ENDBRANCH  30  33
ENDBRANCH  27  30
ENDBRANCH  23  24
ENDBRANCH  22  23
ENDBRANCH   3  22
TORSDOF 9
ENDMDL
MODEL 5
REMARK VINA RESULT:      -7.6      4.275      8.451
REMARK  9 active torsions:
REMARK  status: ('A' for Active; 'I' for Inactive)
REMARK    1  A    between atoms: C_2  and  O_3 
REMARK    2  A    between atoms: O_3  and  C_4 
REMARK    3  A    between atoms: C_7  and  N_8 
REMARK    4  A    between atoms: C_12  and  N_13 
REMARK       I    between atoms: N_13  and  C_14 
REMARK       I    between atoms: C_14  and  N_15 
REMARK    5  A    between atoms: N_15  and  C_16 
REMARK    6  A    between atoms: C_16  and  C_17 
REMARK    7  A    between atoms: C_17  and  C_18 
REMARK    8  A    between atoms: C_21  and  S_22 
REMARK    9  A    between atoms: S_22  and  N_23 
ROOT
HETATM    1  N   UNL     1      39.974 -13.609   5.156  1.00  0.00    -0.336 N 
HETATM    2  C   UNL     1      39.587 -12.523   5.864  1.00  0.00     0.316 C 
HETATM    3  N   UNL     1      39.784 -11.308   5.293  1.00  0.00    -0.343 N 
HETATM    4  O   UNL     1      39.110 -12.684   6.983  1.00  0.00    -0.248 OA
HETATM    5  H   UNL     1      39.834 -14.451   5.704  1.00  0.00     0.164 HD
HETATM    6  H   UNL     1      39.729 -11.267   4.287  1.00  0.00     0.164 HD
ENDROOT
BRANCH   1   7
HETATM    7  C   UNL     1      40.651 -13.767   3.867  1.00  0.00     0.113 C 
HETATM    8  C   UNL     1      39.799 -14.396   2.778  1.00  0.00     0.130 C 
HETATM    9  C   UNL     1      40.358 -15.788   2.608  1.00  0.00     0.226 C 
HETATM   10  N   UNL     1      41.554 -15.889   3.335  1.00  0.00    -0.316 N 
HETATM   11  O   UNL     1      39.813 -16.632   1.911  1.00  0.00    -0.273 OA
HETATM   12  C   UNL     1      41.915 -14.616   3.922  1.00  0.00     0.157 C 
BRANCH  10  13
HETATM   13  C   UNL     1      42.451 -17.000   3.335  1.00  0.00     0.037 A 
HETATM   14  C   UNL     1      42.666 -17.784   4.476  1.00  0.00     0.032 A 
HETATM   15  C   UNL     1      43.511 -18.904   4.450  1.00  0.00     0.039 A 
HETATM   16  C   UNL     1      44.166 -19.259   3.276  1.00  0.00     0.068 A 
HETATM   17  C   UNL     1      44.006 -18.463   2.147  1.00  0.00     0.039 A 
HETATM   18  C   UNL     1      43.152 -17.354   2.172  1.00  0.00     0.032 A 
BRANCH  16  19
HETATM   19  O   UNL     1      44.999 -20.332   3.128  1.00  0.00    -0.352 OA
BRANCH  19  20
HETATM   20  C   UNL     1      44.349 -21.601   3.015  1.00  0.00     0.171 C 
HETATM   21  C   UNL     1      44.210 -21.922   1.537  1.00  0.00     0.034 C 
ENDBRANCH  19  20
ENDBRANCH  16  19
ENDBRANCH  10  13
ENDBRANCH   1   7
BRANCH   3  22
HETATM   22  C   UNL     1      39.421 -10.083   5.989  1.00  0.00     0.129 C 
BRANCH  22  23
HETATM   23  C   UNL     1      40.563  -9.446   6.798  1.00  0.00     0.058 C 
BRANCH  23  24
HETATM   24  C   UNL     1      40.752  -9.873   8.241  1.00  0.00    -0.057 A 
HETATM   25  C   UNL     1      41.978 -10.281   8.780  1.00  0.00     0.009 A 
HETATM   26  C   UNL     1      42.079 -10.675  10.116  1.00  0.00     0.025 A 
HETATM   27  C   UNL     1      40.949 -10.641  10.935  1.00  0.00     0.074 A 
HETATM   28  C   UNL     1      39.718 -10.228  10.426  1.00  0.00     0.025 A 
HETATM   29  C   UNL     1      39.625  -9.849   9.085  1.00  0.00     0.009 A 
BRANCH  27  30
HETATM   30  S   UNL     1      41.088 -11.141  12.622  1.00  0.00     0.239 S 
HETATM   31  O   UNL     1      42.365 -11.785  12.830  1.00  0.00    -0.206 OA
HETATM   32  O   UNL     1      40.609 -10.076  13.470  1.00  0.00    -0.206 OA
BRANCH  30  33
HETATM   33  N   UNL     1      39.951 -12.374  12.728  1.00  0.00    -0.225 NA
HETATM   34  H   UNL     1      39.019 -11.972  12.831  1.00  0.00     0.136 HD
HETATM   35  H   UNL     1      40.048 -13.000  11.928  1.00  0.00     0.136 HD
ENDBRANCH  30  33
ENDBRANCH  27  30
ENDBRANCH  23  24
ENDBRANCH  22  23
ENDBRANCH   3  22
TORSDOF 9
ENDMDL
MODEL 6
REMARK VINA RESULT:      -7.3      3.881      7.101
REMARK  9 active torsions:
REMARK  status: ('A' for Active; 'I' for Inactive)
REMARK    1  A    between atoms: C_2  and  O_3 
REMARK    2  A    between atoms: O_3  and  C_4 
REMARK    3  A    between atoms: C_7  and  N_8 
REMARK    4  A    between atoms: C_12  and  N_13 
REMARK       I    between atoms: N_13  and  C_14 
REMARK       I    between atoms: C_14  and  N_15 
REMARK    5  A    between atoms: N_15  and  C_16 
REMARK    6  A    between atoms: C_16  and  C_17 
REMARK    7  A    between atoms: C_17  and  C_18 
REMARK    8  A    between atoms: C_21  and  S_22 
REMARK    9  A    between atoms: S_22  and  N_23 
ROOT
HETATM    1  N   UNL     1      40.383 -13.859  -1.948  1.00  0.00    -0.336 N 
HETATM    2  C   UNL     1      40.871 -15.081  -1.631  1.00  0.00     0.316 C 
HETATM    3  N   UNL     1      41.247 -15.283  -0.344  1.00  0.00    -0.343 N 
HETATM    4  O   UNL     1      40.975 -15.924  -2.516  1.00  0.00    -0.248 OA
HETATM    5  H   UNL     1      40.193 -13.806  -2.943  1.00  0.00     0.164 HD
HETATM    6  H   UNL     1      40.736 -14.775   0.362  1.00  0.00     0.164 HD
ENDROOT
BRANCH   1   7
HETATM    7  C   UNL     1      40.221 -12.623  -1.180  1.00  0.00     0.113 C 
HETATM    8  C   UNL     1      41.320 -11.596  -1.395  1.00  0.00     0.130 C 
HETATM    9  C   UNL     1      42.125 -11.622  -0.118  1.00  0.00     0.226 C 
HETATM   10  N   UNL     1      41.441 -12.392   0.835  1.00  0.00    -0.316 N 
HETATM   11  O   UNL     1      43.183 -11.021   0.001  1.00  0.00    -0.273 OA
HETATM   12  C   UNL     1      40.156 -12.824   0.328  1.00  0.00     0.157 C 
BRANCH  10  13
HETATM   13  C   UNL     1      41.808 -12.562   2.204  1.00  0.00     0.037 A 
HETATM   14  C   UNL     1      41.272 -11.765   3.223  1.00  0.00     0.032 A 
HETATM   15  C   UNL     1      41.602 -11.975   4.571  1.00  0.00     0.039 A 
HETATM   16  C   UNL     1      42.484 -12.990   4.926  1.00  0.00     0.068 A 
HETATM   17  C   UNL     1      43.066 -13.758   3.923  1.00  0.00     0.039 A 
HETATM   18  C   UNL     1      42.725 -13.555   2.581  1.00  0.00     0.032 A 
BRANCH  16  19
HETATM   19  O   UNL     1      42.867 -13.295   6.201  1.00  0.00    -0.352 OA
BRANCH  19  20
HETATM   20  C   UNL     1      43.626 -14.498   6.342  1.00  0.00     0.171 C 
HETATM   21  C   UNL     1      44.860 -14.177   7.165  1.00  0.00     0.034 C 
ENDBRANCH  19  20
ENDBRANCH  16  19
ENDBRANCH  10  13
ENDBRANCH   1   7
BRANCH   3  22
HETATM   22  C   UNL     1      41.805 -16.556   0.085  1.00  0.00     0.129 C 
BRANCH  22  23
HETATM   23  C   UNL     1      41.056 -17.223   1.250  1.00  0.00     0.058 C 
BRANCH  23  24
HETATM   24  C   UNL     1      41.820 -17.522   2.525  1.00  0.00    -0.057 A 
HETATM   25  C   UNL     1      43.110 -18.067   2.552  1.00  0.00     0.009 A 
HETATM   26  C   UNL     1      43.752 -18.331   3.764  1.00  0.00     0.025 A 
HETATM   27  C   UNL     1      43.112 -18.026   4.967  1.00  0.00     0.074 A 
HETATM   28  C   UNL     1      41.832 -17.473   4.968  1.00  0.00     0.025 A 
HETATM   29  C   UNL     1      41.193 -17.225   3.751  1.00  0.00     0.009 A 
BRANCH  27  30
HETATM   30  S   UNL     1      43.933 -18.363   6.492  1.00  0.00     0.239 S 
HETATM   31  O   UNL     1      45.324 -17.983   6.387  1.00  0.00    -0.206 OA
HETATM   32  O   UNL     1      43.093 -17.935   7.585  1.00  0.00    -0.206 OA
BRANCH  30  33
HETATM   33  N   UNL     1      43.939 -20.044   6.535  1.00  0.00    -0.225 NA
HETATM   34  H   UNL     1      44.230 -20.408   5.628  1.00  0.00     0.136 HD
HETATM   35  H   UNL     1      44.513 -20.365   7.316  1.00  0.00     0.136 HD
ENDBRANCH  30  33
ENDBRANCH  27  30
ENDBRANCH  23  24
ENDBRANCH  22  23
ENDBRANCH   3  22
TORSDOF 9
ENDMDL
MODEL 7
REMARK VINA RESULT:      -7.3      4.578      8.923
REMARK  9 active torsions:
REMARK  status: ('A' for Active; 'I' for Inactive)
REMARK    1  A    between atoms: C_2  and  O_3 
REMARK    2  A    between atoms: O_3  and  C_4 
REMARK    3  A    between atoms: C_7  and  N_8 
REMARK    4  A    between atoms: C_12  and  N_13 
REMARK       I    between atoms: N_13  and  C_14 
REMARK       I    between atoms: C_14  and  N_15 
REMARK    5  A    between atoms: N_15  and  C_16 
REMARK    6  A    between atoms: C_16  and  C_17 
REMARK    7  A    between atoms: C_17  and  C_18 
REMARK    8  A    between atoms: C_21  and  S_22 
REMARK    9  A    between atoms: S_22  and  N_23 
ROOT
HETATM    1  N   UNL     1      39.779 -12.655   4.949  1.00  0.00    -0.336 N 
HETATM    2  C   UNL     1      39.200 -11.443   5.117  1.00  0.00     0.316 C 
HETATM    3  N   UNL     1      39.707 -10.643   6.088  1.00  0.00    -0.343 N 
HETATM    4  O   UNL     1      38.239 -11.143   4.415  1.00  0.00    -0.248 OA
HETATM    5  H   UNL     1      39.280 -13.185   4.242  1.00  0.00     0.164 HD
HETATM    6  H   UNL     1      40.694 -10.731   6.276  1.00  0.00     0.164 HD
ENDROOT
BRANCH   1   7
HETATM    7  C   UNL     1      40.849 -13.353   5.662  1.00  0.00     0.113 C 
HETATM    8  C   UNL     1      42.245 -12.817   5.390  1.00  0.00     0.130 C 
HETATM    9  C   UNL     1      42.899 -13.868   4.526  1.00  0.00     0.226 C 
HETATM   10  N   UNL     1      42.077 -15.005   4.492  1.00  0.00    -0.316 N 
HETATM   11  O   UNL     1      43.986 -13.694   3.994  1.00  0.00    -0.273 OA
HETATM   12  C   UNL     1      40.933 -14.845   5.364  1.00  0.00     0.157 C 
BRANCH  10  13
HETATM   13  C   UNL     1      42.393 -16.257   3.886  1.00  0.00     0.037 A 
HETATM   14  C   UNL     1      42.933 -17.324   4.616  1.00  0.00     0.032 A 
HETATM   15  C   UNL     1      43.192 -18.567   4.019  1.00  0.00     0.039 A 
HETATM   16  C   UNL     1      42.920 -18.766   2.670  1.00  0.00     0.068 A 
HETATM   17  C   UNL     1      42.432 -17.704   1.916  1.00  0.00     0.039 A 
HETATM   18  C   UNL     1      42.163 -16.468   2.517  1.00  0.00     0.032 A 
BRANCH  16  19
HETATM   19  O   UNL     1      43.118 -19.933   1.986  1.00  0.00    -0.352 OA
BRANCH  19  20
HETATM   20  C   UNL     1      44.239 -20.710   2.413  1.00  0.00     0.171 C 
HETATM   21  C   UNL     1      44.222 -22.016   1.638  1.00  0.00     0.034 C 
ENDBRANCH  19  20
ENDBRANCH  16  19
ENDBRANCH  10  13
ENDBRANCH   1   7
BRANCH   3  22
HETATM   22  C   UNL     1      39.135  -9.333   6.358  1.00  0.00     0.129 C 
BRANCH  22  23
HETATM   23  C   UNL     1      39.864  -8.530   7.448  1.00  0.00     0.058 C 
BRANCH  23  24
HETATM   24  C   UNL     1      40.141  -9.202   8.779  1.00  0.00    -0.057 A 
HETATM   25  C   UNL     1      39.149  -9.515   9.717  1.00  0.00     0.009 A 
HETATM   26  C   UNL     1      39.476 -10.122  10.931  1.00  0.00     0.025 A 
HETATM   27  C   UNL     1      40.805 -10.446  11.207  1.00  0.00     0.074 A 
HETATM   28  C   UNL     1      41.811 -10.154  10.286  1.00  0.00     0.025 A 
HETATM   29  C   UNL     1      41.475  -9.535   9.080  1.00  0.00     0.009 A 
BRANCH  27  30
HETATM   30  S   UNL     1      41.206 -11.214  12.745  1.00  0.00     0.239 S 
HETATM   31  O   UNL     1      42.476 -11.894  12.628  1.00  0.00    -0.206 OA
HETATM   32  O   UNL     1      40.913 -10.297  13.820  1.00  0.00    -0.206 OA
BRANCH  30  33
HETATM   33  N   UNL     1      40.060 -12.439  12.846  1.00  0.00    -0.225 NA
HETATM   34  H   UNL     1      40.453 -13.234  13.350  1.00  0.00     0.136 HD
HETATM   35  H   UNL     1      39.200 -12.072  13.255  1.00  0.00     0.136 HD
ENDBRANCH  30  33
ENDBRANCH  27  30
ENDBRANCH  23  24
ENDBRANCH  22  23
ENDBRANCH   3  22
TORSDOF 9
ENDMDL
MODEL 8
REMARK VINA RESULT:      -7.3      5.320      9.173
REMARK  9 active torsions:
REMARK  status: ('A' for Active; 'I' for Inactive)
REMARK    1  A    between atoms: C_2  and  O_3 
REMARK    2  A    between atoms: O_3  and  C_4 
REMARK    3  A    between atoms: C_7  and  N_8 
REMARK    4  A    between atoms: C_12  and  N_13 
REMARK       I    between atoms: N_13  and  C_14 
REMARK       I    between atoms: C_14  and  N_15 
REMARK    5  A    between atoms: N_15  and  C_16 
REMARK    6  A    between atoms: C_16  and  C_17 
REMARK    7  A    between atoms: C_17  and  C_18 
REMARK    8  A    between atoms: C_21  and  S_22 
REMARK    9  A    between atoms: S_22  and  N_23 
ROOT
HETATM    1  N   UNL     1      42.157 -12.918   6.251  1.00  0.00    -0.336 N 
HETATM    2  C   UNL     1      41.777 -11.914   7.075  1.00  0.00     0.316 C 
HETATM    3  N   UNL     1      40.458 -11.598   7.100  1.00  0.00    -0.343 N 
HETATM    4  O   UNL     1      42.634 -11.327   7.727  1.00  0.00    -0.248 OA
HETATM    5  H   UNL     1      43.166 -13.024   6.271  1.00  0.00     0.164 HD
HETATM    6  H   UNL     1      39.809 -12.352   6.936  1.00  0.00     0.164 HD
ENDROOT
BRANCH   1   7
HETATM    7  C   UNL     1      41.428 -13.742   5.285  1.00  0.00     0.113 C 
HETATM    8  C   UNL     1      40.403 -14.681   5.899  1.00  0.00     0.130 C 
HETATM    9  C   UNL     1      41.012 -16.056   5.764  1.00  0.00     0.226 C 
HETATM   10  N   UNL     1      42.150 -15.970   4.948  1.00  0.00    -0.316 N 
HETATM   11  O   UNL     1      40.521 -17.044   6.291  1.00  0.00    -0.273 OA
HETATM   12  C   UNL     1      42.314 -14.631   4.423  1.00  0.00     0.157 C 
BRANCH  10  13
HETATM   13  C   UNL     1      42.937 -17.065   4.478  1.00  0.00     0.037 A 
HETATM   14  C   UNL     1      43.567 -17.960   5.353  1.00  0.00     0.032 A 
HETATM   15  C   UNL     1      44.295 -19.062   4.879  1.00  0.00     0.039 A 
HETATM   16  C   UNL     1      44.413 -19.287   3.512  1.00  0.00     0.068 A 
HETATM   17  C   UNL     1      43.838 -18.381   2.627  1.00  0.00     0.039 A 
HETATM   18  C   UNL     1      43.101 -17.290   3.103  1.00  0.00     0.032 A 
BRANCH  16  19
HETATM   19  O   UNL     1      45.083 -20.330   2.937  1.00  0.00    -0.352 OA
BRANCH  19  20
HETATM   20  C   UNL     1      44.407 -21.589   2.976  1.00  0.00     0.171 C 
HETATM   21  C   UNL     1      43.863 -21.869   1.587  1.00  0.00     0.034 C 
ENDBRANCH  19  20
ENDBRANCH  16  19
ENDBRANCH  10  13
ENDBRANCH   1   7
BRANCH   3  22
HETATM   22  C   UNL     1      39.960 -10.517   7.936  1.00  0.00     0.129 C 
BRANCH  22  23
HETATM   23  C   UNL     1      39.358 -10.971   9.277  1.00  0.00     0.058 C 
BRANCH  23  24
HETATM   24  C   UNL     1      40.017 -10.503  10.560  1.00  0.00    -0.057 A 
HETATM   25  C   UNL     1      41.239 -10.995  11.035  1.00  0.00     0.009 A 
HETATM   26  C   UNL     1      41.782 -10.530  12.234  1.00  0.00     0.025 A 
HETATM   27  C   UNL     1      41.114  -9.543  12.960  1.00  0.00     0.074 A 
HETATM   28  C   UNL     1      39.901  -9.028  12.504  1.00  0.00     0.025 A 
HETATM   29  C   UNL     1      39.359  -9.510  11.311  1.00  0.00     0.009 A 
BRANCH  27  30
HETATM   30  S   UNL     1      41.810  -8.961  14.474  1.00  0.00     0.239 S 
HETATM   31  O   UNL     1      41.554  -7.546  14.611  1.00  0.00    -0.206 OA
HETATM   32  O   UNL     1      41.517  -9.908  15.522  1.00  0.00    -0.206 OA
BRANCH  30  33
HETATM   33  N   UNL     1      43.462  -9.082  14.181  1.00  0.00    -0.225 NA
HETATM   34  H   UNL     1      43.626  -9.160  13.177  1.00  0.00     0.136 HD
HETATM   35  H   UNL     1      43.946  -8.300  14.622  1.00  0.00     0.136 HD
ENDBRANCH  30  33
ENDBRANCH  27  30
ENDBRANCH  23  24
ENDBRANCH  22  23
ENDBRANCH   3  22
TORSDOF 9
ENDMDL
MODEL 9
REMARK VINA RESULT:      -7.2      5.468      7.384
REMARK  9 active torsions:
REMARK  status: ('A' for Active; 'I' for Inactive)
REMARK    1  A    between atoms: C_2  and  O_3 
REMARK    2  A    between atoms: O_3  and  C_4 
REMARK    3  A    between atoms: C_7  and  N_8 
REMARK    4  A    between atoms: C_12  and  N_13 
REMARK       I    between atoms: N_13  and  C_14 
REMARK       I    between atoms: C_14  and  N_15 
REMARK    5  A    between atoms: N_15  and  C_16 
REMARK    6  A    between atoms: C_16  and  C_17 
REMARK    7  A    between atoms: C_17  and  C_18 
REMARK    8  A    between atoms: C_21  and  S_22 
REMARK    9  A    between atoms: S_22  and  N_23 
ROOT
HETATM    1  N   UNL     1      41.426 -15.813  -1.103  1.00  0.00    -0.336 N 
HETATM    2  C   UNL     1      40.798 -15.431  -2.239  1.00  0.00     0.316 C 
HETATM    3  N   UNL     1      39.547 -14.922  -2.115  1.00  0.00    -0.343 N 
HETATM    4  O   UNL     1      41.370 -15.587  -3.313  1.00  0.00    -0.248 OA
HETATM    5  H   UNL     1      42.324 -16.232  -1.324  1.00  0.00     0.164 HD
HETATM    6  H   UNL     1      39.347 -14.417  -1.265  1.00  0.00     0.164 HD
ENDROOT
BRANCH   1   7
HETATM    7  C   UNL     1      41.006 -15.858   0.299  1.00  0.00     0.113 C 
HETATM    8  C   UNL     1      41.525 -14.712   1.152  1.00  0.00     0.130 C 
HETATM    9  C   UNL     1      42.582 -15.335   2.031  1.00  0.00     0.226 C 
HETATM   10  N   UNL     1      42.525 -16.731   1.891  1.00  0.00    -0.316 N 
HETATM   11  O   UNL     1      43.316 -14.668   2.745  1.00  0.00    -0.273 OA
HETATM   12  C   UNL     1      41.423 -17.123   1.039  1.00  0.00     0.157 C 
BRANCH  10  13
HETATM   13  C   UNL     1      43.274 -17.686   2.642  1.00  0.00     0.037 A 
HETATM   14  C   UNL     1      43.358 -17.635   4.040  1.00  0.00     0.032 A 
HETATM   15  C   UNL     1      44.056 -18.609   4.770  1.00  0.00     0.039 A 
HETATM   16  C   UNL     1      44.691 -19.656   4.111  1.00  0.00     0.068 A 
HETATM   17  C   UNL     1      44.662 -19.695   2.722  1.00  0.00     0.039 A 
HETATM   18  C   UNL     1      43.955 -18.729   1.996  1.00  0.00     0.032 A 
BRANCH  16  19
HETATM   19  O   UNL     1      45.386 -20.666   4.716  1.00  0.00    -0.352 OA
BRANCH  19  20
HETATM   20  C   UNL     1      44.590 -21.617   5.426  1.00  0.00     0.171 C 
HETATM   21  C   UNL     1      44.580 -22.907   4.625  1.00  0.00     0.034 C 
ENDBRANCH  19  20
ENDBRANCH  16  19
ENDBRANCH  10  13
ENDBRANCH   1   7
BRANCH   3  22
HETATM   22  C   UNL     1      38.785 -14.506  -3.282  1.00  0.00     0.129 C 
BRANCH  22  23
HETATM   23  C   UNL     1      38.674 -12.983  -3.464  1.00  0.00     0.058 C 
BRANCH  23  24
HETATM   24  C   UNL     1      39.739 -12.101  -2.841  1.00  0.00    -0.057 A 
HETATM   25  C   UNL     1      39.604 -11.476  -1.595  1.00  0.00     0.009 A 
HETATM   26  C   UNL     1      40.620 -10.664  -1.087  1.00  0.00     0.025 A 
HETATM   27  C   UNL     1      41.798 -10.490  -1.816  1.00  0.00     0.074 A 
HETATM   28  C   UNL     1      41.961 -11.109  -3.054  1.00  0.00     0.025 A 
HETATM   29  C   UNL     1      40.934 -11.909  -3.561  1.00  0.00     0.009 A 
BRANCH  27  30
HETATM   30  S   UNL     1      43.075  -9.462  -1.163  1.00  0.00     0.239 S 
HETATM   31  O   UNL     1      44.290 -10.232  -1.023  1.00  0.00    -0.206 OA
HETATM   32  O   UNL     1      43.040  -8.184  -1.832  1.00  0.00    -0.206 OA
BRANCH  30  33
HETATM   33  N   UNL     1      42.547  -9.184   0.409  1.00  0.00    -0.225 NA
HETATM   34  H   UNL     1      42.115 -10.031   0.779  1.00  0.00     0.136 HD
HETATM   35  H   UNL     1      43.320  -8.832   0.973  1.00  0.00     0.136 HD
ENDBRANCH  30  33
ENDBRANCH  27  30
ENDBRANCH  23  24
ENDBRANCH  22  23
ENDBRANCH   3  22
TORSDOF 9
ENDMDL
MODEL 10
REMARK VINA RESULT:      -7.2      3.954      8.128
REMARK  9 active torsions:
REMARK  status: ('A' for Active; 'I' for Inactive)
REMARK    1  A    between atoms: C_2  and  O_3 
REMARK    2  A    between atoms: O_3  and  C_4 
REMARK    3  A    between atoms: C_7  and  N_8 
REMARK    4  A    between atoms: C_12  and  N_13 
REMARK       I    between atoms: N_13  and  C_14 
REMARK       I    between atoms: C_14  and  N_15 
REMARK    5  A    between atoms: N_15  and  C_16 
REMARK    6  A    between atoms: C_16  and  C_17 
REMARK    7  A    between atoms: C_17  and  C_18 
REMARK    8  A    between atoms: C_21  and  S_22 
REMARK    9  A    between atoms: S_22  and  N_23 
ROOT
HETATM    1  N   UNL     1      41.312 -13.147   4.553  1.00  0.00    -0.336 N 
HETATM    2  C   UNL     1      41.012 -11.908   5.006  1.00  0.00     0.316 C 
HETATM    3  N   UNL     1      39.863 -11.768   5.713  1.00  0.00    -0.343 N 
HETATM    4  O   UNL     1      41.766 -10.979   4.734  1.00  0.00    -0.248 OA
HETATM    5  H   UNL     1      42.156 -13.119   3.991  1.00  0.00     0.164 HD
HETATM    6  H   UNL     1      39.571 -12.561   6.263  1.00  0.00     0.164 HD
ENDROOT
BRANCH   1   7
HETATM    7  C   UNL     1      40.601 -14.426   4.609  1.00  0.00     0.113 C 
HETATM    8  C   UNL     1      40.555 -15.065   5.987  1.00  0.00     0.130 C 
HETATM    9  C   UNL     1      41.504 -16.235   5.901  1.00  0.00     0.226 C 
HETATM   10  N   UNL     1      41.881 -16.417   4.562  1.00  0.00    -0.316 N 
HETATM   11  O   UNL     1      41.826 -16.890   6.882  1.00  0.00    -0.273 OA
HETATM   12  C   UNL     1      41.172 -15.502   3.693  1.00  0.00     0.157 C 
BRANCH  10  13
HETATM   13  C   UNL     1      42.669 -17.489   4.044  1.00  0.00     0.037 A 
HETATM   14  C   UNL     1      43.732 -18.048   4.765  1.00  0.00     0.032 A 
HETATM   15  C   UNL     1      44.467 -19.135   4.267  1.00  0.00     0.039 A 
HETATM   16  C   UNL     1      44.154 -19.682   3.027  1.00  0.00     0.068 A 
HETATM   17  C   UNL     1      43.135 -19.108   2.275  1.00  0.00     0.039 A 
HETATM   18  C   UNL     1      42.395 -18.032   2.780  1.00  0.00     0.032 A 
BRANCH  16  19
HETATM   19  O   UNL     1      44.788 -20.745   2.449  1.00  0.00    -0.352 OA
BRANCH  19  20
HETATM   20  C   UNL     1      44.119 -22.002   2.578  1.00  0.00     0.171 C 
HETATM   21  C   UNL     1      44.668 -22.698   3.810  1.00  0.00     0.034 C 
ENDBRANCH  19  20
ENDBRANCH  16  19
ENDBRANCH  10  13
ENDBRANCH   1   7
BRANCH   3  22
HETATM   22  C   UNL     1      39.445 -10.469   6.219  1.00  0.00     0.129 C 
BRANCH  22  23
HETATM   23  C   UNL     1      39.167 -10.432   7.731  1.00  0.00     0.058 C 
BRANCH  23  24
HETATM   24  C   UNL     1      40.326 -10.646   8.685  1.00  0.00    -0.057 A 
HETATM   25  C   UNL     1      41.673 -10.555   8.310  1.00  0.00     0.009 A 
HETATM   26  C   UNL     1      42.692 -10.779   9.238  1.00  0.00     0.025 A 
HETATM   27  C   UNL     1      42.369 -11.073  10.564  1.00  0.00     0.074 A 
HETATM   28  C   UNL     1      41.036 -11.160  10.965  1.00  0.00     0.025 A 
HETATM   29  C   UNL     1      40.024 -10.948  10.027  1.00  0.00     0.009 A 
BRANCH  27  30
HETATM   30  S   UNL     1      43.665 -11.353  11.728  1.00  0.00     0.239 S 
HETATM   31  O   UNL     1      44.863 -10.673  11.290  1.00  0.00    -0.206 OA
HETATM   32  O   UNL     1      43.138 -11.212  13.064  1.00  0.00    -0.206 OA
BRANCH  30  33
HETATM   33  N   UNL     1      43.989 -12.990  11.521  1.00  0.00    -0.225 NA
HETATM   34  H   UNL     1      44.993 -13.152  11.598  1.00  0.00     0.136 HD
HETATM   35  H   UNL     1      43.428 -13.536  12.176  1.00  0.00     0.136 HD
ENDBRANCH  30  33
ENDBRANCH  27  30
ENDBRANCH  23  24
ENDBRANCH  22  23
ENDBRANCH   3  22
TORSDOF 9
ENDMDL
