MODEL 1
REMARK VINA RESULT:      -7.4      0.000      0.000
REMARK  14 active torsions:
REMARK  status: ('A' for Active; 'I' for Inactive)
REMARK    1  A    between atoms: C_2  and  N_3 
REMARK    2  A    between atoms: N_3  and  C_5 
REMARK    3  A    between atoms: N_3  and  C_37 
REMARK    4  A    between atoms: C_5  and  C_6 
REMARK    5  A    between atoms: C_6  and  N_7 
REMARK    6  A    between atoms: C_10  and  O_11 
REMARK    7  A    between atoms: C_12  and  C_13 
REMARK    8  A    between atoms: C_13  and  C_14 
REMARK    9  A    between atoms: C_18  and  O_19 
REMARK   10  A    between atoms: O_19  and  C_20 
REMARK   11  A    between atoms: C_26  and  C_27 
REMARK   12  A    between atoms: C_29  and  O_30 
REMARK   13  A    between atoms: O_30  and  C_31 
REMARK   14  A    between atoms: C_33  and  O_34 
ROOT
HETATM    1  N   UNL     1      40.296 -11.904   4.011  1.00  0.00    -0.332 N 
HETATM    2  C   UNL     1      39.709 -12.621   5.025  1.00  0.00     0.278 C 
HETATM    3  O   UNL     1      38.617 -12.423   5.528  1.00  0.00    -0.265 OA
HETATM    4  C   UNL     1      40.663 -13.673   5.439  1.00  0.00     0.146 C 
HETATM    5  C   UNL     1      41.743 -13.558   4.656  1.00  0.00     0.059 C 
HETATM    6  C   UNL     1      41.564 -12.492   3.607  1.00  0.00     0.161 C 
ENDROOT
BRANCH   5   7
HETATM    7  C   UNL     1      43.047 -14.259   4.660  1.00  0.00     0.193 C 
HETATM    8  O   UNL     1      44.049 -13.660   5.048  1.00  0.00    -0.287 OA
BRANCH   7   9
HETATM    9  C   UNL     1      43.199 -15.653   4.204  1.00  0.00     0.015 A 
HETATM   10  C   UNL     1      43.469 -15.972   2.871  1.00  0.00     0.025 A 
HETATM   11  C   UNL     1      43.523 -17.315   2.462  1.00  0.00    -0.028 A 
HETATM   12  C   UNL     1      43.829 -17.652   1.029  1.00  0.00     0.051 C 
HETATM   13  C   UNL     1      43.230 -18.329   3.391  1.00  0.00     0.075 A 
HETATM   14  C   UNL     1      42.969 -18.007   4.723  1.00  0.00     0.038 A 
HETATM   15  C   UNL     1      42.941 -16.670   5.127  1.00  0.00     0.018 A 
BRANCH  13  16
HETATM   16  O   UNL     1      43.252 -19.616   2.923  1.00  0.00    -0.346 OA
BRANCH  16  17
HETATM   17  C   UNL     1      44.528 -20.277   2.914  1.00  0.00     0.121 C 
HETATM   18  C   UNL     1      44.968 -20.657   4.329  1.00  0.00     0.040 C 
HETATM   19  C   UNL     1      44.353 -21.541   2.074  1.00  0.00     0.040 C 
ENDBRANCH  16  17
ENDBRANCH  13  16
ENDBRANCH   7   9
ENDBRANCH   5   7
BRANCH   4  20
HETATM   20  O   UNL     1      40.416 -14.525   6.469  1.00  0.00    -0.355 OA
HETATM   21  H   UNL     1      41.164 -14.440   7.096  1.00  0.00     0.218 HD
ENDBRANCH   4  20
BRANCH   6  22
HETATM   22  C   UNL     1      41.507 -12.998   2.174  1.00  0.00    -0.028 A 
HETATM   23  C   UNL     1      42.187 -12.286   1.164  1.00  0.00     0.049 A 
HETATM   24  C   UNL     1      42.094 -12.680  -0.172  1.00  0.00     0.102 A 
HETATM   25  C   UNL     1      41.325 -13.802  -0.490  1.00  0.00     0.099 A 
HETATM   26  C   UNL     1      40.667 -14.536   0.488  1.00  0.00     0.040 A 
HETATM   27  C   UNL     1      40.758 -14.137   1.819  1.00  0.00     0.012 A 
BRANCH  24  28
HETATM   28  O   UNL     1      42.674 -12.054  -1.243  1.00  0.00    -0.349 OA
BRANCH  28  29
HETATM   29  C   UNL     1      42.423 -10.656  -1.394  1.00  0.00     0.171 C 
HETATM   30  C   UNL     1      43.733  -9.920  -1.181  1.00  0.00     0.034 C 
ENDBRANCH  28  29
ENDBRANCH  24  28
BRANCH  25  31
HETATM   31  O   UNL     1      41.202 -14.210  -1.790  1.00  0.00    -0.358 OA
HETATM   32  H   UNL     1      40.430 -13.724  -2.143  1.00  0.00     0.218 HD
ENDBRANCH  25  31
ENDBRANCH   6  22
BRANCH   1  33
HETATM   33  C   UNL     1      39.601 -10.876   3.253  1.00  0.00     0.155 C 
BRANCH  33  34
HETATM   34  C   UNL     1      38.268 -11.374   2.672  1.00  0.00     0.254 C 
BRANCH  34  35
HETATM   35  N   UNL     1      38.357 -11.802   1.209  1.00  0.00    -0.070 N 
HETATM   36  H   UNL     1      39.089 -12.527   1.181  1.00  0.00     0.279 HD
BRANCH  35  37
HETATM   37  C   UNL     1      38.846 -10.705   0.272  1.00  0.00     0.230 C 
HETATM   38  C   UNL     1      38.745 -11.130  -1.182  1.00  0.00     0.034 C 
ENDBRANCH  35  37
BRANCH  35  39
HETATM   39  C   UNL     1      37.106 -12.463   0.651  1.00  0.00     0.230 C 
HETATM   40  C   UNL     1      37.209 -13.976   0.695  1.00  0.00     0.034 C 
ENDBRANCH  35  39
ENDBRANCH  34  35
ENDBRANCH  33  34
ENDBRANCH   1  33
TORSDOF 14
ENDMDL
MODEL 2
REMARK VINA RESULT:      -7.3      1.472      2.109
REMARK  14 active torsions:
REMARK  status: ('A' for Active; 'I' for Inactive)
REMARK    1  A    between atoms: C_2  and  N_3 
REMARK    2  A    between atoms: N_3  and  C_5 
REMARK    3  A    between atoms: N_3  and  C_37 
REMARK    4  A    between atoms: C_5  and  C_6 
REMARK    5  A    between atoms: C_6  and  N_7 
REMARK    6  A    between atoms: C_10  and  O_11 
REMARK    7  A    between atoms: C_12  and  C_13 
REMARK    8  A    between atoms: C_13  and  C_14 
REMARK    9  A    between atoms: C_18  and  O_19 
REMARK   10  A    between atoms: O_19  and  C_20 
REMARK   11  A    between atoms: C_26  and  C_27 
REMARK   12  A    between atoms: C_29  and  O_30 
REMARK   13  A    between atoms: O_30  and  C_31 
REMARK   14  A    between atoms: C_33  and  O_34 
ROOT
HETATM    1  N   UNL     1      40.550 -11.688   1.904  1.00  0.00    -0.332 N 
HETATM    2  C   UNL     1      39.800 -12.244   2.912  1.00  0.00     0.278 C 
HETATM    3  O   UNL     1      38.688 -11.904   3.272  1.00  0.00    -0.265 OA
HETATM    4  C   UNL     1      40.605 -13.324   3.523  1.00  0.00     0.146 C 
HETATM    5  C   UNL     1      41.764 -13.382   2.854  1.00  0.00     0.059 C 
HETATM    6  C   UNL     1      41.791 -12.419   1.697  1.00  0.00     0.161 C 
ENDROOT
BRANCH   5   7
HETATM    7  C   UNL     1      42.988 -14.186   3.065  1.00  0.00     0.193 C 
HETATM    8  O   UNL     1      44.060 -13.609   3.248  1.00  0.00    -0.287 OA
BRANCH   7   9
HETATM    9  C   UNL     1      42.981 -15.661   3.054  1.00  0.00     0.015 A 
HETATM   10  C   UNL     1      42.706 -16.409   4.201  1.00  0.00     0.025 A 
HETATM   11  C   UNL     1      42.793 -17.811   4.168  1.00  0.00    -0.028 A 
HETATM   12  C   UNL     1      42.480 -18.612   5.401  1.00  0.00     0.051 C 
HETATM   13  C   UNL     1      43.230 -18.446   2.992  1.00  0.00     0.075 A 
HETATM   14  C   UNL     1      43.496 -17.695   1.846  1.00  0.00     0.038 A 
HETATM   15  C   UNL     1      43.384 -16.303   1.880  1.00  0.00     0.018 A 
BRANCH  13  16
HETATM   16  O   UNL     1      43.340 -19.810   3.034  1.00  0.00    -0.346 OA
BRANCH  16  17
HETATM   17  C   UNL     1      44.661 -20.356   2.894  1.00  0.00     0.121 C 
HETATM   18  C   UNL     1      45.281 -20.667   4.257  1.00  0.00     0.040 C 
HETATM   19  C   UNL     1      44.512 -21.648   2.091  1.00  0.00     0.040 C 
ENDBRANCH  16  17
ENDBRANCH  13  16
ENDBRANCH   7   9
ENDBRANCH   5   7
BRANCH   4  20
HETATM   20  O   UNL     1      40.177 -14.042   4.596  1.00  0.00    -0.355 OA
HETATM   21  H   UNL     1      39.690 -13.422   5.178  1.00  0.00     0.218 HD
ENDBRANCH   4  20
BRANCH   6  22
HETATM   22  C   UNL     1      41.829 -13.064   0.320  1.00  0.00    -0.028 A 
HETATM   23  C   UNL     1      42.417 -12.362  -0.754  1.00  0.00     0.049 A 
HETATM   24  C   UNL     1      42.401 -12.892  -2.045  1.00  0.00     0.102 A 
HETATM   25  C   UNL     1      41.806 -14.139  -2.253  1.00  0.00     0.099 A 
HETATM   26  C   UNL     1      41.245 -14.862  -1.210  1.00  0.00     0.040 A 
HETATM   27  C   UNL     1      41.257 -14.327   0.077  1.00  0.00     0.012 A 
BRANCH  24  28
HETATM   28  O   UNL     1      42.904 -12.296  -3.171  1.00  0.00    -0.349 OA
BRANCH  28  29
HETATM   29  C   UNL     1      42.468 -10.965  -3.451  1.00  0.00     0.171 C 
HETATM   30  C   UNL     1      42.330 -10.826  -4.957  1.00  0.00     0.034 C 
ENDBRANCH  28  29
ENDBRANCH  24  28
BRANCH  25  31
HETATM   31  O   UNL     1      41.762 -14.683  -3.507  1.00  0.00    -0.358 OA
HETATM   32  H   UNL     1      42.536 -15.279  -3.559  1.00  0.00     0.218 HD
ENDBRANCH  25  31
ENDBRANCH   6  22
BRANCH   1  33
HETATM   33  C   UNL     1      40.034 -10.690   0.982  1.00  0.00     0.155 C 
BRANCH  33  34
HETATM   34  C   UNL     1      38.675 -11.087   0.383  1.00  0.00     0.254 C 
BRANCH  34  35
HETATM   35  N   UNL     1      38.781 -12.070  -0.781  1.00  0.00    -0.070 N 
HETATM   36  H   UNL     1      39.652 -12.594  -0.618  1.00  0.00     0.279 HD
BRANCH  35  37
HETATM   37  C   UNL     1      38.964 -11.402  -2.138  1.00  0.00     0.230 C 
HETATM   38  C   UNL     1      38.760 -12.389  -3.274  1.00  0.00     0.034 C 
ENDBRANCH  35  37
BRANCH  35  39
HETATM   39  C   UNL     1      37.680 -13.117  -0.845  1.00  0.00     0.230 C 
HETATM   40  C   UNL     1      37.643 -13.964   0.413  1.00  0.00     0.034 C 
ENDBRANCH  35  39
ENDBRANCH  34  35
ENDBRANCH  33  34
ENDBRANCH   1  33
TORSDOF 14
ENDMDL
MODEL 3
REMARK VINA RESULT:      -7.2      2.041      3.448
REMARK  14 active torsions:
REMARK  status: ('A' for Active; 'I' for Inactive)
REMARK    1  A    between atoms: C_2  and  N_3 
REMARK    2  A    between atoms: N_3  and  C_5 
REMARK    3  A    between atoms: N_3  and  C_37 
REMARK    4  A    between atoms: C_5  and  C_6 
REMARK    5  A    between atoms: C_6  and  N_7 
REMARK    6  A    between atoms: C_10  and  O_11 
REMARK    7  A    between atoms: C_12  and  C_13 
REMARK    8  A    between atoms: C_13  and  C_14 
REMARK    9  A    between atoms: C_18  and  O_19 
REMARK   10  A    between atoms: O_19  and  C_20 
REMARK   11  A    between atoms: C_26  and  C_27 
REMARK   12  A    between atoms: C_29  and  O_30 
REMARK   13  A    between atoms: O_30  and  C_31 
REMARK   14  A    between atoms: C_33  and  O_34 
ROOT
HETATM    1  N   UNL     1      39.269 -13.469   1.301  1.00  0.00    -0.332 N 
HETATM    2  C   UNL     1      38.787 -14.714   1.627  1.00  0.00     0.278 C 
HETATM    3  O   UNL     1      37.624 -15.076   1.622  1.00  0.00    -0.265 OA
HETATM    4  C   UNL     1      39.940 -15.547   2.032  1.00  0.00     0.146 C 
HETATM    5  C   UNL     1      41.039 -14.791   1.909  1.00  0.00     0.059 C 
HETATM    6  C   UNL     1      40.723 -13.435   1.333  1.00  0.00     0.161 C 
ENDROOT
BRANCH   5   7
HETATM    7  C   UNL     1      42.456 -15.042   2.253  1.00  0.00     0.193 C 
HETATM    8  O   UNL     1      43.214 -14.085   2.406  1.00  0.00    -0.287 OA
BRANCH   7   9
HETATM    9  C   UNL     1      43.006 -16.401   2.410  1.00  0.00     0.015 A 
HETATM   10  C   UNL     1      43.343 -16.924   3.660  1.00  0.00     0.025 A 
HETATM   11  C   UNL     1      43.942 -18.190   3.758  1.00  0.00    -0.028 A 
HETATM   12  C   UNL     1      44.290 -18.755   5.108  1.00  0.00     0.051 C 
HETATM   13  C   UNL     1      44.266 -18.892   2.583  1.00  0.00     0.075 A 
HETATM   14  C   UNL     1      43.919 -18.369   1.336  1.00  0.00     0.038 A 
HETATM   15  C   UNL     1      43.301 -17.120   1.249  1.00  0.00     0.018 A 
BRANCH  13  16
HETATM   16  O   UNL     1      44.891 -20.100   2.740  1.00  0.00    -0.346 OA
BRANCH  16  17
HETATM   17  C   UNL     1      44.052 -21.267   2.728  1.00  0.00     0.121 C 
HETATM   18  C   UNL     1      44.049 -21.935   1.353  1.00  0.00     0.040 C 
HETATM   19  C   UNL     1      44.634 -22.227   3.764  1.00  0.00     0.040 C 
ENDBRANCH  16  17
ENDBRANCH  13  16
ENDBRANCH   7   9
ENDBRANCH   5   7
BRANCH   4  20
HETATM   20  O   UNL     1      39.804 -16.825   2.476  1.00  0.00    -0.355 OA
HETATM   21  H   UNL     1      40.396 -17.382   1.929  1.00  0.00     0.218 HD
ENDBRANCH   4  20
BRANCH   6  22
HETATM   22  C   UNL     1      41.300 -13.171  -0.050  1.00  0.00    -0.028 A 
HETATM   23  C   UNL     1      40.942 -14.019  -1.119  1.00  0.00     0.049 A 
HETATM   24  C   UNL     1      41.511 -13.851  -2.383  1.00  0.00     0.102 A 
HETATM   25  C   UNL     1      42.432 -12.817  -2.574  1.00  0.00     0.099 A 
HETATM   26  C   UNL     1      42.781 -11.953  -1.545  1.00  0.00     0.040 A 
HETATM   27  C   UNL     1      42.215 -12.127  -0.284  1.00  0.00     0.012 A 
BRANCH  24  28
HETATM   28  O   UNL     1      41.274 -14.626  -3.487  1.00  0.00    -0.349 OA
BRANCH  28  29
HETATM   29  C   UNL     1      40.678 -15.905  -3.268  1.00  0.00     0.171 C 
HETATM   30  C   UNL     1      39.354 -15.936  -4.010  1.00  0.00     0.034 C 
ENDBRANCH  28  29
ENDBRANCH  24  28
BRANCH  25  31
HETATM   31  O   UNL     1      43.018 -12.631  -3.795  1.00  0.00    -0.358 OA
HETATM   32  H   UNL     1      43.303 -11.696  -3.807  1.00  0.00     0.218 HD
ENDBRANCH  25  31
ENDBRANCH   6  22
BRANCH   1  33
HETATM   33  C   UNL     1      38.446 -12.421   0.720  1.00  0.00     0.155 C 
BRANCH  33  34
HETATM   34  C   UNL     1      37.775 -11.540   1.786  1.00  0.00     0.254 C 
BRANCH  34  35
HETATM   35  N   UNL     1      38.575 -10.288   2.140  1.00  0.00    -0.070 N 
HETATM   36  H   UNL     1      37.883  -9.527   2.193  1.00  0.00     0.279 HD
BRANCH  35  37
HETATM   37  C   UNL     1      39.560  -9.858   1.060  1.00  0.00     0.230 C 
HETATM   38  C   UNL     1      40.812  -9.246   1.663  1.00  0.00     0.034 C 
ENDBRANCH  35  37
BRANCH  35  39
HETATM   39  C   UNL     1      39.254 -10.318   3.501  1.00  0.00     0.230 C 
HETATM   40  C   UNL     1      38.823 -11.526   4.311  1.00  0.00     0.034 C 
ENDBRANCH  35  39
ENDBRANCH  34  35
ENDBRANCH  33  34
ENDBRANCH   1  33
TORSDOF 14
ENDMDL
MODEL 4
REMARK VINA RESULT:      -7.2      2.135      4.382
REMARK  14 active torsions:
REMARK  status: ('A' for Active; 'I' for Inactive)
REMARK    1  A    between atoms: C_2  and  N_3 
REMARK    2  A    between atoms: N_3  and  C_5 
REMARK    3  A    between atoms: N_3  and  C_37 
REMARK    4  A    between atoms: C_5  and  C_6 
REMARK    5  A    between atoms: C_6  and  N_7 
REMARK    6  A    between atoms: C_10  and  O_11 
REMARK    7  A    between atoms: C_12  and  C_13 
REMARK    8  A    between atoms: C_13  and  C_14 
REMARK    9  A    between atoms: C_18  and  O_19 
REMARK   10  A    between atoms: O_19  and  C_20 
REMARK   11  A    between atoms: C_26  and  C_27 
REMARK   12  A    between atoms: C_29  and  O_30 
REMARK   13  A    between atoms: O_30  and  C_31 
REMARK   14  A    between atoms: C_33  and  O_34 
ROOT
HETATM    1  N   UNL     1      40.251 -11.451   2.089  1.00  0.00    -0.332 N 
HETATM    2  C   UNL     1      39.073 -10.802   2.374  1.00  0.00     0.278 C 
HETATM    3  O   UNL     1      38.483 -10.007   1.665  1.00  0.00    -0.265 OA
HETATM    4  C   UNL     1      38.654 -11.212   3.732  1.00  0.00     0.146 C 
HETATM    5  C   UNL     1      39.564 -12.087   4.180  1.00  0.00     0.059 C 
HETATM    6  C   UNL     1      40.603 -12.398   3.136  1.00  0.00     0.161 C 
ENDROOT
BRANCH   5   7
HETATM    7  C   UNL     1      39.730 -12.758   5.489  1.00  0.00     0.193 C 
HETATM    8  O   UNL     1      38.965 -12.474   6.409  1.00  0.00    -0.287 OA
BRANCH   7   9
HETATM    9  C   UNL     1      40.790 -13.751   5.742  1.00  0.00     0.015 A 
HETATM   10  C   UNL     1      42.131 -13.387   5.876  1.00  0.00     0.025 A 
HETATM   11  C   UNL     1      43.119 -14.372   6.033  1.00  0.00    -0.028 A 
HETATM   12  C   UNL     1      44.561 -13.973   6.192  1.00  0.00     0.051 C 
HETATM   13  C   UNL     1      42.754 -15.729   5.979  1.00  0.00     0.075 A 
HETATM   14  C   UNL     1      41.411 -16.089   5.853  1.00  0.00     0.038 A 
HETATM   15  C   UNL     1      40.431 -15.102   5.722  1.00  0.00     0.018 A 
BRANCH  13  16
HETATM   16  O   UNL     1      43.766 -16.644   6.090  1.00  0.00    -0.346 OA
BRANCH  16  17
HETATM   17  C   UNL     1      43.400 -17.959   6.539  1.00  0.00     0.121 C 
HETATM   18  C   UNL     1      44.155 -19.041   5.763  1.00  0.00     0.040 C 
HETATM   19  C   UNL     1      43.776 -18.032   8.018  1.00  0.00     0.040 C 
ENDBRANCH  16  17
ENDBRANCH  13  16
ENDBRANCH   7   9
ENDBRANCH   5   7
BRANCH   4  20
HETATM   20  O   UNL     1      37.553 -10.704   4.346  1.00  0.00    -0.355 OA
HETATM   21  H   UNL     1      36.781 -11.204   4.008  1.00  0.00     0.218 HD
ENDBRANCH   4  20
BRANCH   6  22
HETATM   22  C   UNL     1      40.589 -13.827   2.615  1.00  0.00    -0.028 A 
HETATM   23  C   UNL     1      41.811 -14.460   2.304  1.00  0.00     0.049 A 
HETATM   24  C   UNL     1      41.830 -15.743   1.754  1.00  0.00     0.102 A 
HETATM   25  C   UNL     1      40.615 -16.395   1.529  1.00  0.00     0.099 A 
HETATM   26  C   UNL     1      39.400 -15.806   1.850  1.00  0.00     0.040 A 
HETATM   27  C   UNL     1      39.385 -14.523   2.394  1.00  0.00     0.012 A 
BRANCH  24  28
HETATM   28  O   UNL     1      42.943 -16.447   1.378  1.00  0.00    -0.349 OA
BRANCH  28  29
HETATM   29  C   UNL     1      43.738 -17.009   2.422  1.00  0.00     0.171 C 
HETATM   30  C   UNL     1      44.010 -18.461   2.071  1.00  0.00     0.034 C 
ENDBRANCH  28  29
ENDBRANCH  24  28
BRANCH  25  31
HETATM   31  O   UNL     1      40.595 -17.648   0.980  1.00  0.00    -0.358 OA
HETATM   32  H   UNL     1      40.659 -17.510   0.014  1.00  0.00     0.218 HD
ENDBRANCH  25  31
ENDBRANCH   6  22
BRANCH   1  33
HETATM   33  C   UNL     1      40.892 -11.406   0.786  1.00  0.00     0.155 C 
BRANCH  33  34
HETATM   34  C   UNL     1      39.956 -11.857  -0.347  1.00  0.00     0.254 C 
BRANCH  34  35
HETATM   35  N   UNL     1      40.602 -12.836  -1.325  1.00  0.00    -0.070 N 
HETATM   36  H   UNL     1      40.468 -12.420  -2.257  1.00  0.00     0.279 HD
BRANCH  35  37
HETATM   37  C   UNL     1      39.911 -14.192  -1.389  1.00  0.00     0.230 C 
HETATM   38  C   UNL     1      40.861 -15.278  -1.862  1.00  0.00     0.034 C 
ENDBRANCH  35  37
BRANCH  35  39
HETATM   39  C   UNL     1      42.105 -13.010  -1.168  1.00  0.00     0.230 C 
HETATM   40  C   UNL     1      42.868 -12.229  -2.222  1.00  0.00     0.034 C 
ENDBRANCH  35  39
ENDBRANCH  34  35
ENDBRANCH  33  34
ENDBRANCH   1  33
TORSDOF 14
ENDMDL
MODEL 5
REMARK VINA RESULT:      -7.2      1.337      2.574
REMARK  14 active torsions:
REMARK  status: ('A' for Active; 'I' for Inactive)
REMARK    1  A    between atoms: C_2  and  N_3 
REMARK    2  A    between atoms: N_3  and  C_5 
REMARK    3  A    between atoms: N_3  and  C_37 
REMARK    4  A    between atoms: C_5  and  C_6 
REMARK    5  A    between atoms: C_6  and  N_7 
REMARK    6  A    between atoms: C_10  and  O_11 
REMARK    7  A    between atoms: C_12  and  C_13 
REMARK    8  A    between atoms: C_13  and  C_14 
REMARK    9  A    between atoms: C_18  and  O_19 
REMARK   10  A    between atoms: O_19  and  C_20 
REMARK   11  A    between atoms: C_26  and  C_27 
REMARK   12  A    between atoms: C_29  and  O_30 
REMARK   13  A    between atoms: O_30  and  C_31 
REMARK   14  A    between atoms: C_33  and  O_34 
ROOT
HETATM    1  N   UNL     1      40.238 -11.984   4.181  1.00  0.00    -0.332 N 
HETATM    2  C   UNL     1      39.724 -12.732   5.213  1.00  0.00     0.278 C 
HETATM    3  O   UNL     1      38.664 -12.562   5.787  1.00  0.00    -0.265 OA
HETATM    4  C   UNL     1      40.716 -13.779   5.541  1.00  0.00     0.146 C 
HETATM    5  C   UNL     1      41.744 -13.631   4.695  1.00  0.00     0.059 C 
HETATM    6  C   UNL     1      41.486 -12.544   3.685  1.00  0.00     0.161 C 
ENDROOT
BRANCH   5   7
HETATM    7  C   UNL     1      43.054 -14.313   4.601  1.00  0.00     0.193 C 
HETATM    8  O   UNL     1      44.074 -13.699   4.912  1.00  0.00    -0.287 OA
BRANCH   7   9
HETATM    9  C   UNL     1      43.192 -15.706   4.136  1.00  0.00     0.015 A 
HETATM   10  C   UNL     1      43.402 -16.022   2.792  1.00  0.00     0.025 A 
HETATM   11  C   UNL     1      43.444 -17.363   2.379  1.00  0.00    -0.028 A 
HETATM   12  C   UNL     1      43.686 -17.697   0.933  1.00  0.00     0.051 C 
HETATM   13  C   UNL     1      43.198 -18.381   3.318  1.00  0.00     0.075 A 
HETATM   14  C   UNL     1      42.996 -18.062   4.662  1.00  0.00     0.038 A 
HETATM   15  C   UNL     1      42.981 -16.726   5.069  1.00  0.00     0.018 A 
BRANCH  13  16
HETATM   16  O   UNL     1      43.205 -19.667   2.848  1.00  0.00    -0.346 OA
BRANCH  16  17
HETATM   17  C   UNL     1      44.463 -20.360   2.883  1.00  0.00     0.121 C 
HETATM   18  C   UNL     1      44.790 -20.847   4.296  1.00  0.00     0.040 C 
HETATM   19  C   UNL     1      44.323 -21.558   1.947  1.00  0.00     0.040 C 
ENDBRANCH  16  17
ENDBRANCH  13  16
ENDBRANCH   7   9
ENDBRANCH   5   7
BRANCH   4  20
HETATM   20  O   UNL     1      40.545 -14.659   6.564  1.00  0.00    -0.355 OA
HETATM   21  H   UNL     1      39.986 -15.388   6.223  1.00  0.00     0.218 HD
ENDBRANCH   4  20
BRANCH   6  22
HETATM   22  C   UNL     1      41.346 -13.018   2.247  1.00  0.00    -0.028 A 
HETATM   23  C   UNL     1      42.095 -12.380   1.235  1.00  0.00     0.049 A 
HETATM   24  C   UNL     1      41.934 -12.740  -0.104  1.00  0.00     0.102 A 
HETATM   25  C   UNL     1      41.027 -13.753  -0.424  1.00  0.00     0.099 A 
HETATM   26  C   UNL     1      40.298 -14.414   0.554  1.00  0.00     0.040 A 
HETATM   27  C   UNL     1      40.457 -14.050   1.889  1.00  0.00     0.012 A 
BRANCH  24  28
HETATM   28  O   UNL     1      42.573 -12.175  -1.176  1.00  0.00    -0.349 OA
BRANCH  28  29
HETATM   29  C   UNL     1      42.336 -10.787  -1.417  1.00  0.00     0.171 C 
HETATM   30  C   UNL     1      43.639 -10.044  -1.186  1.00  0.00     0.034 C 
ENDBRANCH  28  29
ENDBRANCH  24  28
BRANCH  25  31
HETATM   31  O   UNL     1      40.836 -14.123  -1.727  1.00  0.00    -0.358 OA
HETATM   32  H   UNL     1      41.003 -15.086  -1.752  1.00  0.00     0.218 HD
ENDBRANCH  25  31
ENDBRANCH   6  22
BRANCH   1  33
HETATM   33  C   UNL     1      39.483 -10.949   3.492  1.00  0.00     0.155 C 
BRANCH  33  34
HETATM   34  C   UNL     1      40.261  -9.628   3.382  1.00  0.00     0.254 C 
BRANCH  34  35
HETATM   35  N   UNL     1      40.268  -8.810   4.671  1.00  0.00    -0.070 N 
HETATM   36  H   UNL     1      40.205  -7.827   4.372  1.00  0.00     0.279 HD
BRANCH  35  37
HETATM   37  C   UNL     1      41.571  -8.906   5.456  1.00  0.00     0.230 C 
HETATM   38  C   UNL     1      41.385  -9.684   6.746  1.00  0.00     0.034 C 
ENDBRANCH  35  37
BRANCH  35  39
HETATM   39  C   UNL     1      39.075  -9.036   5.587  1.00  0.00     0.230 C 
HETATM   40  C   UNL     1      38.139  -7.841   5.585  1.00  0.00     0.034 C 
ENDBRANCH  35  39
ENDBRANCH  34  35
ENDBRANCH  33  34
ENDBRANCH   1  33
TORSDOF 14
ENDMDL
MODEL 6
REMARK VINA RESULT:      -7.0      1.267      2.204
REMARK  14 active torsions:
REMARK  status: ('A' for Active; 'I' for Inactive)
REMARK    1  A    between atoms: C_2  and  N_3 
REMARK    2  A    between atoms: N_3  and  C_5 
REMARK    3  A    between atoms: N_3  and  C_37 
REMARK    4  A    between atoms: C_5  and  C_6 
REMARK    5  A    between atoms: C_6  and  N_7 
REMARK    6  A    between atoms: C_10  and  O_11 
REMARK    7  A    between atoms: C_12  and  C_13 
REMARK    8  A    between atoms: C_13  and  C_14 
REMARK    9  A    between atoms: C_18  and  O_19 
REMARK   10  A    between atoms: O_19  and  C_20 
REMARK   11  A    between atoms: C_26  and  C_27 
REMARK   12  A    between atoms: C_29  and  O_30 
REMARK   13  A    between atoms: O_30  and  C_31 
REMARK   14  A    between atoms: C_33  and  O_34 
ROOT
HETATM    1  N   UNL     1      40.707 -11.382   3.407  1.00  0.00    -0.332 N 
HETATM    2  C   UNL     1      40.418 -11.770   4.693  1.00  0.00     0.278 C 
HETATM    3  O   UNL     1      39.576 -11.293   5.433  1.00  0.00    -0.265 OA
HETATM    4  C   UNL     1      41.350 -12.862   5.050  1.00  0.00     0.146 C 
HETATM    5  C   UNL     1      42.120 -13.093   3.978  1.00  0.00     0.059 C 
HETATM    6  C   UNL     1      41.710 -12.245   2.803  1.00  0.00     0.161 C 
ENDROOT
BRANCH   5   7
HETATM    7  C   UNL     1      43.278 -13.988   3.767  1.00  0.00     0.193 C 
HETATM    8  O   UNL     1      44.412 -13.509   3.751  1.00  0.00    -0.287 OA
BRANCH   7   9
HETATM    9  C   UNL     1      43.131 -15.441   3.563  1.00  0.00     0.015 A 
HETATM   10  C   UNL     1      42.887 -16.318   4.622  1.00  0.00     0.025 A 
HETATM   11  C   UNL     1      42.837 -17.703   4.397  1.00  0.00    -0.028 A 
HETATM   12  C   UNL     1      42.558 -18.641   5.539  1.00  0.00     0.051 C 
HETATM   13  C   UNL     1      43.110 -18.201   3.111  1.00  0.00     0.075 A 
HETATM   14  C   UNL     1      43.347 -17.322   2.053  1.00  0.00     0.038 A 
HETATM   15  C   UNL     1      43.369 -15.944   2.281  1.00  0.00     0.018 A 
BRANCH  13  16
HETATM   16  O   UNL     1      43.094 -19.562   2.962  1.00  0.00    -0.346 OA
BRANCH  16  17
HETATM   17  C   UNL     1      44.348 -20.194   2.660  1.00  0.00     0.121 C 
HETATM   18  C   UNL     1      45.064 -20.645   3.935  1.00  0.00     0.040 C 
HETATM   19  C   UNL     1      44.023 -21.412   1.797  1.00  0.00     0.040 C 
ENDBRANCH  16  17
ENDBRANCH  13  16
ENDBRANCH   7   9
ENDBRANCH   5   7
BRANCH   4  20
HETATM   20  O   UNL     1      41.373 -13.435   6.283  1.00  0.00    -0.355 OA
HETATM   21  H   UNL     1      42.077 -12.986   6.794  1.00  0.00     0.218 HD
ENDBRANCH   4  20
BRANCH   6  22
HETATM   22  C   UNL     1      41.139 -13.013   1.620  1.00  0.00    -0.028 A 
HETATM   23  C   UNL     1      41.877 -13.079   0.420  1.00  0.00     0.049 A 
HETATM   24  C   UNL     1      41.349 -13.711  -0.707  1.00  0.00     0.102 A 
HETATM   25  C   UNL     1      40.080 -14.289  -0.621  1.00  0.00     0.099 A 
HETATM   26  C   UNL     1      39.344 -14.261   0.555  1.00  0.00     0.040 A 
HETATM   27  C   UNL     1      39.872 -13.625   1.677  1.00  0.00     0.012 A 
BRANCH  24  28
HETATM   28  O   UNL     1      41.948 -13.811  -1.935  1.00  0.00    -0.349 OA
BRANCH  28  29
HETATM   29  C   UNL     1      42.588 -12.640  -2.443  1.00  0.00     0.171 C 
HETATM   30  C   UNL     1      41.514 -11.732  -3.016  1.00  0.00     0.034 C 
ENDBRANCH  28  29
ENDBRANCH  24  28
BRANCH  25  31
HETATM   31  O   UNL     1      39.527 -14.906  -1.709  1.00  0.00    -0.358 OA
HETATM   32  H   UNL     1      39.407 -14.201  -2.375  1.00  0.00     0.218 HD
ENDBRANCH  25  31
ENDBRANCH   6  22
BRANCH   1  33
HETATM   33  C   UNL     1      39.904 -10.426   2.662  1.00  0.00     0.155 C 
BRANCH  33  34
HETATM   34  C   UNL     1      40.762  -9.436   1.858  1.00  0.00     0.254 C 
BRANCH  34  35
HETATM   35  N   UNL     1      40.691  -9.647   0.348  1.00  0.00    -0.070 N 
HETATM   36  H   UNL     1      40.886 -10.647   0.202  1.00  0.00     0.279 HD
BRANCH  35  37
HETATM   37  C   UNL     1      41.774  -8.910  -0.431  1.00  0.00     0.230 C 
HETATM   38  C   UNL     1      43.113  -9.618  -0.324  1.00  0.00     0.034 C 
ENDBRANCH  35  37
BRANCH  35  39
HETATM   39  C   UNL     1      39.325  -9.402  -0.276  1.00  0.00     0.230 C 
HETATM   40  C   UNL     1      38.705 -10.692  -0.781  1.00  0.00     0.034 C 
ENDBRANCH  35  39
ENDBRANCH  34  35
ENDBRANCH  33  34
ENDBRANCH   1  33
TORSDOF 14
ENDMDL
MODEL 7
REMARK VINA RESULT:      -6.9      1.977      4.648
REMARK  14 active torsions:
REMARK  status: ('A' for Active; 'I' for Inactive)
REMARK    1  A    between atoms: C_2  and  N_3 
REMARK    2  A    between atoms: N_3  and  C_5 
REMARK    3  A    between atoms: N_3  and  C_37 
REMARK    4  A    between atoms: C_5  and  C_6 
REMARK    5  A    between atoms: C_6  and  N_7 
REMARK    6  A    between atoms: C_10  and  O_11 
REMARK    7  A    between atoms: C_12  and  C_13 
REMARK    8  A    between atoms: C_13  and  C_14 
REMARK    9  A    between atoms: C_18  and  O_19 
REMARK   10  A    between atoms: O_19  and  C_20 
REMARK   11  A    between atoms: C_26  and  C_27 
REMARK   12  A    between atoms: C_29  and  O_30 
REMARK   13  A    between atoms: O_30  and  C_31 
REMARK   14  A    between atoms: C_33  and  O_34 
ROOT
HETATM    1  N   UNL     1      40.640 -12.667   0.728  1.00  0.00    -0.332 N 
HETATM    2  C   UNL     1      41.495 -13.335  -0.115  1.00  0.00     0.278 C 
HETATM    3  O   UNL     1      42.115 -12.867  -1.053  1.00  0.00    -0.265 OA
HETATM    4  C   UNL     1      41.507 -14.756   0.294  1.00  0.00     0.146 C 
HETATM    5  C   UNL     1      40.697 -14.870   1.355  1.00  0.00     0.059 C 
HETATM    6  C   UNL     1      40.155 -13.534   1.791  1.00  0.00     0.161 C 
ENDROOT
BRANCH   5   7
HETATM    7  C   UNL     1      40.239 -16.046   2.128  1.00  0.00     0.193 C 
HETATM    8  O   UNL     1      39.054 -16.374   2.075  1.00  0.00    -0.287 OA
BRANCH   7   9
HETATM    9  C   UNL     1      41.148 -16.841   2.975  1.00  0.00     0.015 A 
HETATM   10  C   UNL     1      42.064 -17.746   2.434  1.00  0.00     0.025 A 
HETATM   11  C   UNL     1      42.852 -18.544   3.279  1.00  0.00    -0.028 A 
HETATM   12  C   UNL     1      43.848 -19.506   2.691  1.00  0.00     0.051 C 
HETATM   13  C   UNL     1      42.656 -18.477   4.670  1.00  0.00     0.075 A 
HETATM   14  C   UNL     1      41.745 -17.565   5.207  1.00  0.00     0.038 A 
HETATM   15  C   UNL     1      40.983 -16.757   4.360  1.00  0.00     0.018 A 
BRANCH  13  16
HETATM   16  O   UNL     1      43.419 -19.312   5.440  1.00  0.00    -0.346 OA
BRANCH  16  17
HETATM   17  C   UNL     1      43.806 -18.823   6.735  1.00  0.00     0.121 C 
HETATM   18  C   UNL     1      43.869 -19.956   7.760  1.00  0.00     0.040 C 
HETATM   19  C   UNL     1      45.192 -18.204   6.567  1.00  0.00     0.040 C 
ENDBRANCH  16  17
ENDBRANCH  13  16
ENDBRANCH   7   9
ENDBRANCH   5   7
BRANCH   4  20
HETATM   20  O   UNL     1      42.209 -15.708  -0.376  1.00  0.00    -0.355 OA
HETATM   21  H   UNL     1      41.678 -16.531  -0.344  1.00  0.00     0.218 HD
ENDBRANCH   4  20
BRANCH   6  22
HETATM   22  C   UNL     1      40.634 -13.058   3.155  1.00  0.00    -0.028 A 
HETATM   23  C   UNL     1      41.966 -13.311   3.544  1.00  0.00     0.049 A 
HETATM   24  C   UNL     1      42.417 -12.956   4.817  1.00  0.00     0.102 A 
HETATM   25  C   UNL     1      41.527 -12.330   5.694  1.00  0.00     0.099 A 
HETATM   26  C   UNL     1      40.220 -12.045   5.326  1.00  0.00     0.040 A 
HETATM   27  C   UNL     1      39.772 -12.407   4.057  1.00  0.00     0.012 A 
BRANCH  24  28
HETATM   28  O   UNL     1      43.669 -13.179   5.324  1.00  0.00    -0.349 OA
BRANCH  28  29
HETATM   29  C   UNL     1      43.916 -14.460   5.905  1.00  0.00     0.171 C 
HETATM   30  C   UNL     1      44.886 -14.271   7.057  1.00  0.00     0.034 C 
ENDBRANCH  28  29
ENDBRANCH  24  28
BRANCH  25  31
HETATM   31  O   UNL     1      41.931 -11.978   6.952  1.00  0.00    -0.358 OA
HETATM   32  H   UNL     1      42.821 -12.368   7.059  1.00  0.00     0.218 HD
ENDBRANCH  25  31
ENDBRANCH   6  22
BRANCH   1  33
HETATM   33  C   UNL     1      40.480 -11.222   0.724  1.00  0.00     0.155 C 
BRANCH  33  34
HETATM   34  C   UNL     1      39.318 -10.761  -0.170  1.00  0.00     0.254 C 
BRANCH  34  35
HETATM   35  N   UNL     1      38.874 -11.808  -1.189  1.00  0.00    -0.070 N 
HETATM   36  H   UNL     1      39.526 -12.596  -1.073  1.00  0.00     0.279 HD
BRANCH  35  37
HETATM   37  C   UNL     1      39.035 -11.366  -2.638  1.00  0.00     0.230 C 
HETATM   38  C   UNL     1      39.662 -12.460  -3.485  1.00  0.00     0.034 C 
ENDBRANCH  35  37
BRANCH  35  39
HETATM   39  C   UNL     1      37.486 -12.387  -0.958  1.00  0.00     0.230 C 
HETATM   40  C   UNL     1      36.970 -12.058   0.430  1.00  0.00     0.034 C 
ENDBRANCH  35  39
ENDBRANCH  34  35
ENDBRANCH  33  34
ENDBRANCH   1  33
TORSDOF 14
ENDMDL
MODEL 8
REMARK VINA RESULT:      -6.8      1.843      4.705
REMARK  14 active torsions:
REMARK  status: ('A' for Active; 'I' for Inactive)
REMARK    1  A    between atoms: C_2  and  N_3 
REMARK    2  A    between atoms: N_3  and  C_5 
REMARK    3  A    between atoms: N_3  and  C_37 
REMARK    4  A    between atoms: C_5  and  C_6 
REMARK    5  A    between atoms: C_6  and  N_7 
REMARK    6  A    between atoms: C_10  and  O_11 
REMARK    7  A    between atoms: C_12  and  C_13 
REMARK    8  A    between atoms: C_13  and  C_14 
REMARK    9  A    between atoms: C_18  and  O_19 
REMARK   10  A    between atoms: O_19  and  C_20 
REMARK   11  A    between atoms: C_26  and  C_27 
REMARK   12  A    between atoms: C_29  and  O_30 
REMARK   13  A    between atoms: O_30  and  C_31 
REMARK   14  A    between atoms: C_33  and  O_34 
ROOT
HETATM    1  N   UNL     1      40.838 -13.388   1.096  1.00  0.00    -0.332 N 
HETATM    2  C   UNL     1      41.596 -13.957   0.100  1.00  0.00     0.278 C 
HETATM    3  O   UNL     1      42.057 -13.401  -0.880  1.00  0.00    -0.265 OA
HETATM    4  C   UNL     1      41.726 -15.398   0.406  1.00  0.00     0.146 C 
HETATM    5  C   UNL     1      41.078 -15.619   1.557  1.00  0.00     0.059 C 
HETATM    6  C   UNL     1      40.545 -14.343   2.154  1.00  0.00     0.161 C 
ENDROOT
BRANCH   5   7
HETATM    7  C   UNL     1      40.784 -16.863   2.304  1.00  0.00     0.193 C 
HETATM    8  O   UNL     1      39.635 -17.302   2.310  1.00  0.00    -0.287 OA
BRANCH   7   9
HETATM    9  C   UNL     1      41.817 -17.598   3.058  1.00  0.00     0.015 A 
HETATM   10  C   UNL     1      42.740 -18.436   2.427  1.00  0.00     0.025 A 
HETATM   11  C   UNL     1      43.652 -19.183   3.189  1.00  0.00    -0.028 A 
HETATM   12  C   UNL     1      44.654 -20.071   2.504  1.00  0.00     0.051 C 
HETATM   13  C   UNL     1      43.578 -19.136   4.593  1.00  0.00     0.075 A 
HETATM   14  C   UNL     1      42.660 -18.291   5.219  1.00  0.00     0.038 A 
HETATM   15  C   UNL     1      41.772 -17.532   4.453  1.00  0.00     0.018 A 
BRANCH  13  16
HETATM   16  O   UNL     1      44.463 -19.921   5.282  1.00  0.00    -0.346 OA
BRANCH  16  17
HETATM   17  C   UNL     1      44.002 -21.225   5.671  1.00  0.00     0.121 C 
HETATM   18  C   UNL     1      45.040 -22.301   5.348  1.00  0.00     0.040 C 
HETATM   19  C   UNL     1      43.772 -21.171   7.180  1.00  0.00     0.040 C 
ENDBRANCH  16  17
ENDBRANCH  13  16
ENDBRANCH   7   9
ENDBRANCH   5   7
BRANCH   4  20
HETATM   20  O   UNL     1      42.368 -16.269  -0.417  1.00  0.00    -0.355 OA
HETATM   21  H   UNL     1      42.010 -16.128  -1.318  1.00  0.00     0.218 HD
ENDBRANCH   4  20
BRANCH   6  22
HETATM   22  C   UNL     1      41.189 -13.927   3.468  1.00  0.00    -0.028 A 
HETATM   23  C   UNL     1      40.377 -13.410   4.500  1.00  0.00     0.049 A 
HETATM   24  C   UNL     1      40.943 -12.948   5.689  1.00  0.00     0.102 A 
HETATM   25  C   UNL     1      42.330 -13.020   5.845  1.00  0.00     0.099 A 
HETATM   26  C   UNL     1      43.149 -13.548   4.856  1.00  0.00     0.040 A 
HETATM   27  C   UNL     1      42.581 -14.003   3.669  1.00  0.00     0.012 A 
BRANCH  24  28
HETATM   28  O   UNL     1      40.270 -12.395   6.746  1.00  0.00    -0.349 OA
BRANCH  28  29
HETATM   29  C   UNL     1      39.436 -11.270   6.467  1.00  0.00     0.171 C 
HETATM   30  C   UNL     1      40.285 -10.017   6.594  1.00  0.00     0.034 C 
ENDBRANCH  28  29
ENDBRANCH  24  28
BRANCH  25  31
HETATM   31  O   UNL     1      42.920 -12.566   6.992  1.00  0.00    -0.358 OA
HETATM   32  H   UNL     1      42.754 -13.259   7.662  1.00  0.00     0.218 HD
ENDBRANCH  25  31
ENDBRANCH   6  22
BRANCH   1  33
HETATM   33  C   UNL     1      40.617 -11.956   1.212  1.00  0.00     0.155 C 
BRANCH  33  34
HETATM   34  C   UNL     1      39.125 -11.587   1.189  1.00  0.00     0.254 C 
BRANCH  34  35
HETATM   35  N   UNL     1      38.460 -11.797  -0.169  1.00  0.00    -0.070 N 
HETATM   36  H   UNL     1      37.558 -11.304  -0.112  1.00  0.00     0.279 HD
BRANCH  35  37
HETATM   37  C   UNL     1      38.104 -13.249  -0.465  1.00  0.00     0.230 C 
HETATM   38  C   UNL     1      37.234 -13.841   0.629  1.00  0.00     0.034 C 
ENDBRANCH  35  37
BRANCH  35  39
HETATM   39  C   UNL     1      39.191 -11.175  -1.350  1.00  0.00     0.230 C 
HETATM   40  C   UNL     1      38.979 -11.979  -2.620  1.00  0.00     0.034 C 
ENDBRANCH  35  39
ENDBRANCH  34  35
ENDBRANCH  33  34
ENDBRANCH   1  33
TORSDOF 14
ENDMDL
MODEL 9
REMARK VINA RESULT:      -6.8      2.081      3.614
REMARK  14 active torsions:
REMARK  status: ('A' for Active; 'I' for Inactive)
REMARK    1  A    between atoms: C_2  and  N_3 
REMARK    2  A    between atoms: N_3  and  C_5 
REMARK    3  A    between atoms: N_3  and  C_37 
REMARK    4  A    between atoms: C_5  and  C_6 
REMARK    5  A    between atoms: C_6  and  N_7 
REMARK    6  A    between atoms: C_10  and  O_11 
REMARK    7  A    between atoms: C_12  and  C_13 
REMARK    8  A    between atoms: C_13  and  C_14 
REMARK    9  A    between atoms: C_18  and  O_19 
REMARK   10  A    between atoms: O_19  and  C_20 
REMARK   11  A    between atoms: C_26  and  C_27 
REMARK   12  A    between atoms: C_29  and  O_30 
REMARK   13  A    between atoms: O_30  and  C_31 
REMARK   14  A    between atoms: C_33  and  O_34 
ROOT
HETATM    1  N   UNL     1      41.075 -13.165   2.759  1.00  0.00    -0.332 N 
HETATM    2  C   UNL     1      40.652 -13.417   4.041  1.00  0.00     0.278 C 
HETATM    3  O   UNL     1      40.473 -12.602   4.929  1.00  0.00    -0.265 OA
HETATM    4  C   UNL     1      40.482 -14.880   4.177  1.00  0.00     0.146 C 
HETATM    5  C   UNL     1      40.780 -15.425   2.990  1.00  0.00     0.059 C 
HETATM    6  C   UNL     1      41.081 -14.376   1.952  1.00  0.00     0.161 C 
ENDROOT
BRANCH   5   7
HETATM    7  C   UNL     1      40.884 -16.833   2.546  1.00  0.00     0.193 C 
HETATM    8  O   UNL     1      39.953 -17.333   1.914  1.00  0.00    -0.287 OA
BRANCH   7   9
HETATM    9  C   UNL     1      42.059 -17.673   2.841  1.00  0.00     0.015 A 
HETATM   10  C   UNL     1      42.313 -18.862   2.153  1.00  0.00     0.025 A 
HETATM   11  C   UNL     1      43.396 -19.675   2.522  1.00  0.00    -0.028 A 
HETATM   12  C   UNL     1      43.674 -20.946   1.766  1.00  0.00     0.051 C 
HETATM   13  C   UNL     1      44.176 -19.319   3.636  1.00  0.00     0.075 A 
HETATM   14  C   UNL     1      43.924 -18.127   4.317  1.00  0.00     0.038 A 
HETATM   15  C   UNL     1      42.859 -17.311   3.928  1.00  0.00     0.018 A 
BRANCH  13  16
HETATM   16  O   UNL     1      45.189 -20.175   3.977  1.00  0.00    -0.346 OA
BRANCH  16  17
HETATM   17  C   UNL     1      45.022 -20.922   5.193  1.00  0.00     0.121 C 
HETATM   18  C   UNL     1      43.806 -20.435   5.982  1.00  0.00     0.040 C 
HETATM   19  C   UNL     1      44.815 -22.378   4.779  1.00  0.00     0.040 C 
ENDBRANCH  16  17
ENDBRANCH  13  16
ENDBRANCH   7   9
ENDBRANCH   5   7
BRANCH   4  20
HETATM   20  O   UNL     1      40.127 -15.474   5.347  1.00  0.00    -0.355 OA
HETATM   21  H   UNL     1      39.672 -16.310   5.117  1.00  0.00     0.218 HD
ENDBRANCH   4  20
BRANCH   6  22
HETATM   22  C   UNL     1      40.077 -14.286   0.813  1.00  0.00    -0.028 A 
HETATM   23  C   UNL     1      40.511 -14.520  -0.509  1.00  0.00     0.049 A 
HETATM   24  C   UNL     1      39.633 -14.372  -1.584  1.00  0.00     0.102 A 
HETATM   25  C   UNL     1      38.311 -14.002  -1.326  1.00  0.00     0.099 A 
HETATM   26  C   UNL     1      37.852 -13.791  -0.033  1.00  0.00     0.040 A 
HETATM   27  C   UNL     1      38.732 -13.935   1.037  1.00  0.00     0.012 A 
BRANCH  24  28
HETATM   28  O   UNL     1      39.941 -14.535  -2.909  1.00  0.00    -0.349 OA
BRANCH  28  29
HETATM   29  C   UNL     1      40.174 -15.869  -3.362  1.00  0.00     0.171 C 
HETATM   30  C   UNL     1      39.017 -16.263  -4.264  1.00  0.00     0.034 C 
ENDBRANCH  28  29
ENDBRANCH  24  28
BRANCH  25  31
HETATM   31  O   UNL     1      37.427 -13.836  -2.356  1.00  0.00    -0.358 OA
HETATM   32  H   UNL     1      37.072 -14.728  -2.540  1.00  0.00     0.218 HD
ENDBRANCH  25  31
ENDBRANCH   6  22
BRANCH   1  33
HETATM   33  C   UNL     1      41.212 -11.825   2.211  1.00  0.00     0.155 C 
BRANCH  33  34
HETATM   34  C   UNL     1      42.186 -11.771   1.023  1.00  0.00     0.254 C 
BRANCH  34  35
HETATM   35  N   UNL     1      41.823 -10.718  -0.021  1.00  0.00    -0.070 N 
HETATM   36  H   UNL     1      42.003  -9.811   0.432  1.00  0.00     0.279 HD
BRANCH  35  37
HETATM   37  C   UNL     1      40.345 -10.695  -0.387  1.00  0.00     0.230 C 
HETATM   38  C   UNL     1      40.144 -10.785  -1.890  1.00  0.00     0.034 C 
ENDBRANCH  35  37
BRANCH  35  39
HETATM   39  C   UNL     1      42.684 -10.726  -1.274  1.00  0.00     0.230 C 
HETATM   40  C   UNL     1      43.838  -9.747  -1.163  1.00  0.00     0.034 C 
ENDBRANCH  35  39
ENDBRANCH  34  35
ENDBRANCH  33  34
ENDBRANCH   1  33
TORSDOF 14
ENDMDL
MODEL 10
REMARK VINA RESULT:      -6.8      2.668      4.788
REMARK  14 active torsions:
REMARK  status: ('A' for Active; 'I' for Inactive)
REMARK    1  A    between atoms: C_2  and  N_3 
REMARK    2  A    between atoms: N_3  and  C_5 
REMARK    3  A    between atoms: N_3  and  C_37 
REMARK    4  A    between atoms: C_5  and  C_6 
REMARK    5  A    between atoms: C_6  and  N_7 
REMARK    6  A    between atoms: C_10  and  O_11 
REMARK    7  A    between atoms: C_12  and  C_13 
REMARK    8  A    between atoms: C_13  and  C_14 
REMARK    9  A    between atoms: C_18  and  O_19 
REMARK   10  A    between atoms: O_19  and  C_20 
REMARK   11  A    between atoms: C_26  and  C_27 
REMARK   12  A    between atoms: C_29  and  O_30 
REMARK   13  A    between atoms: O_30  and  C_31 
REMARK   14  A    between atoms: C_33  and  O_34 
ROOT
HETATM    1  N   UNL     1      42.231 -12.899  -0.631  1.00  0.00    -0.332 N 
HETATM    2  C   UNL     1      41.841 -12.118   0.430  1.00  0.00     0.278 C 
HETATM    3  O   UNL     1      42.055 -10.929   0.585  1.00  0.00    -0.265 OA
HETATM    4  C   UNL     1      41.135 -12.993   1.392  1.00  0.00     0.146 C 
HETATM    5  C   UNL     1      41.112 -14.224   0.866  1.00  0.00     0.059 C 
HETATM    6  C   UNL     1      41.713 -14.254  -0.515  1.00  0.00     0.161 C 
ENDROOT
BRANCH   5   7
HETATM    7  C   UNL     1      40.636 -15.519   1.400  1.00  0.00     0.193 C 
HETATM    8  O   UNL     1      39.426 -15.708   1.524  1.00  0.00    -0.287 OA
BRANCH   7   9
HETATM    9  C   UNL     1      41.557 -16.597   1.805  1.00  0.00     0.015 A 
HETATM   10  C   UNL     1      41.703 -16.986   3.138  1.00  0.00     0.025 A 
HETATM   11  C   UNL     1      42.652 -17.959   3.491  1.00  0.00    -0.028 A 
HETATM   12  C   UNL     1      42.794 -18.385   4.927  1.00  0.00     0.051 C 
HETATM   13  C   UNL     1      43.503 -18.482   2.501  1.00  0.00     0.075 A 
HETATM   14  C   UNL     1      43.348 -18.097   1.168  1.00  0.00     0.038 A 
HETATM   15  C   UNL     1      42.385 -17.147   0.822  1.00  0.00     0.018 A 
BRANCH  13  16
HETATM   16  O   UNL     1      44.439 -19.392   2.912  1.00  0.00    -0.346 OA
BRANCH  16  17
HETATM   17  C   UNL     1      44.006 -20.758   3.025  1.00  0.00     0.121 C 
HETATM   18  C   UNL     1      44.267 -21.532   1.732  1.00  0.00     0.040 C 
HETATM   19  C   UNL     1      44.815 -21.375   4.165  1.00  0.00     0.040 C 
ENDBRANCH  16  17
ENDBRANCH  13  16
ENDBRANCH   7   9
ENDBRANCH   5   7
BRANCH   4  20
HETATM   20  O   UNL     1      40.670 -12.544   2.588  1.00  0.00    -0.355 OA
HETATM   21  H   UNL     1      40.578 -13.326   3.171  1.00  0.00     0.218 HD
ENDBRANCH   4  20
BRANCH   6  22
HETATM   22  C   UNL     1      40.737 -14.570  -1.638  1.00  0.00    -0.028 A 
HETATM   23  C   UNL     1      39.544 -13.824  -1.745  1.00  0.00     0.049 A 
HETATM   24  C   UNL     1      38.592 -14.137  -2.716  1.00  0.00     0.102 A 
HETATM   25  C   UNL     1      38.848 -15.197  -3.591  1.00  0.00     0.099 A 
HETATM   26  C   UNL     1      40.024 -15.930  -3.524  1.00  0.00     0.040 A 
HETATM   27  C   UNL     1      40.970 -15.618  -2.550  1.00  0.00     0.012 A 
BRANCH  24  28
HETATM   28  O   UNL     1      37.386 -13.514  -2.899  1.00  0.00    -0.349 OA
BRANCH  28  29
HETATM   29  C   UNL     1      37.416 -12.130  -3.247  1.00  0.00     0.171 C 
HETATM   30  C   UNL     1      36.674 -11.361  -2.168  1.00  0.00     0.034 C 
ENDBRANCH  28  29
ENDBRANCH  24  28
BRANCH  25  31
HETATM   31  O   UNL     1      37.932 -15.539  -4.547  1.00  0.00    -0.358 OA
HETATM   32  H   UNL     1      37.318 -16.161  -4.109  1.00  0.00     0.218 HD
ENDBRANCH  25  31
ENDBRANCH   6  22
BRANCH   1  33
HETATM   33  C   UNL     1      42.829 -12.361  -1.842  1.00  0.00     0.155 C 
BRANCH  33  34
HETATM   34  C   UNL     1      41.950 -11.289  -2.506  1.00  0.00     0.254 C 
BRANCH  34  35
HETATM   35  N   UNL     1      42.740 -10.113  -3.076  1.00  0.00    -0.070 N 
HETATM   36  H   UNL     1      43.725 -10.415  -3.065  1.00  0.00     0.279 HD
BRANCH  35  37
HETATM   37  C   UNL     1      42.696  -8.861  -2.209  1.00  0.00     0.230 C 
HETATM   38  C   UNL     1      43.969  -8.704  -1.396  1.00  0.00     0.034 C 
ENDBRANCH  35  37
BRANCH  35  39
HETATM   39  C   UNL     1      42.434  -9.770  -4.525  1.00  0.00     0.230 C 
HETATM   40  C   UNL     1      41.149 -10.427  -4.993  1.00  0.00     0.034 C 
ENDBRANCH  35  39
ENDBRANCH  34  35
ENDBRANCH  33  34
ENDBRANCH   1  33
TORSDOF 14
ENDMDL
