MODEL 1
REMARK VINA RESULT:      -8.2      0.000      0.000
REMARK  6 active torsions:
REMARK  status: ('A' for Active; 'I' for Inactive)
REMARK    1  A    between atoms: C_3  and  C_4 
REMARK    2  A    between atoms: C_9  and  C_10 
REMARK    3  A    between atoms: C_10  and  N_11 
REMARK    4  A    between atoms: C_13  and  C_14 
REMARK    5  A    between atoms: C_15  and  O_16 
REMARK    6  A    between atoms: C_20  and  C_21 
ROOT
HETATM    1  N   UNL     1      43.066 -16.012   3.994  1.00  0.00    -0.394 N 
HETATM    2  H   UNL     1      42.632 -16.465   4.807  1.00  0.00     0.159 HD
HETATM    3  C   UNL     1      43.254 -14.741   4.024  1.00  0.00     0.101 C 
ENDROOT
BRANCH   1   4
HETATM    4  C   UNL     1      43.468 -16.942   2.918  1.00  0.00     0.157 C 
BRANCH   4   5
HETATM    5  C   UNL     1      43.890 -18.259   3.506  1.00  0.00    -0.040 A 
HETATM    6  C   UNL     1      43.896 -19.424   2.720  1.00  0.00     0.025 A 
HETATM    7  C   UNL     1      44.324 -20.655   3.248  1.00  0.00     0.048 A 
HETATM    8  C   UNL     1      44.747 -20.710   4.582  1.00  0.00     0.016 A 
HETATM    9  C   UNL     1      44.744 -19.560   5.371  1.00  0.00     0.001 A 
HETATM   10  C   UNL     1      44.320 -18.342   4.839  1.00  0.00     0.009 A 
BRANCH   7  11
HETATM   11  C   UNL     1      44.307 -21.894   2.379  1.00  0.00     0.417 C 
HETATM   12  F   UNL     1      45.241 -21.890   1.393  1.00  0.00    -0.166 F 
HETATM   13  F   UNL     1      44.512 -23.026   3.104  1.00  0.00    -0.166 F 
HETATM   14  F   UNL     1      43.102 -22.056   1.766  1.00  0.00    -0.166 F 
ENDBRANCH   7  11
ENDBRANCH   4   5
ENDBRANCH   1   4
BRANCH   3  15
HETATM   15  C   UNL     1      42.886 -13.810   5.069  1.00  0.00     0.066 A 
HETATM   16  C   UNL     1      41.784 -12.925   5.079  1.00  0.00     0.195 A 
HETATM   17  N   UNL     1      41.686 -12.214   6.188  1.00  0.00    -0.148 NA
HETATM   18  N   UNL     1      42.725 -12.610   6.924  1.00  0.00    -0.270 N 
HETATM   19  H   UNL     1      42.854 -12.182   7.840  1.00  0.00     0.189 HD
HETATM   20  C   UNL     1      43.482 -13.571   6.306  1.00  0.00     0.150 A 
BRANCH  16  21
HETATM   21  O   UNL     1      40.835 -12.688   4.173  1.00  0.00    -0.343 OA
HETATM   22  H   UNL     1      41.153 -12.684   3.262  1.00  0.00     0.219 HD
ENDBRANCH  16  21
BRANCH  20  23
HETATM   23  C   UNL     1      44.642 -14.116   7.030  1.00  0.00     0.435 C 
HETATM   24  F   UNL     1      45.792 -13.687   6.437  1.00  0.00    -0.165 F 
HETATM   25  F   UNL     1      44.679 -13.726   8.318  1.00  0.00    -0.165 F 
HETATM   26  F   UNL     1      44.664 -15.463   6.989  1.00  0.00    -0.165 F 
ENDBRANCH  20  23
ENDBRANCH   3  15
TORSDOF 6
ENDMDL
MODEL 2
REMARK VINA RESULT:      -8.0      3.518      4.235
REMARK  6 active torsions:
REMARK  status: ('A' for Active; 'I' for Inactive)
REMARK    1  A    between atoms: C_3  and  C_4 
REMARK    2  A    between atoms: C_9  and  C_10 
REMARK    3  A    between atoms: C_10  and  N_11 
REMARK    4  A    between atoms: C_13  and  C_14 
REMARK    5  A    between atoms: C_15  and  O_16 
REMARK    6  A    between atoms: C_20  and  C_21 
ROOT
HETATM    1  N   UNL     1      43.127 -17.042   4.397  1.00  0.00    -0.394 N 
HETATM    2  H   UNL     1      43.661 -16.699   3.589  1.00  0.00     0.159 HD
HETATM    3  C   UNL     1      41.855 -16.860   4.417  1.00  0.00     0.101 C 
ENDROOT
BRANCH   1   4
HETATM    4  C   UNL     1      43.935 -17.765   5.401  1.00  0.00     0.157 C 
BRANCH   4   5
HETATM    5  C   UNL     1      44.113 -19.198   4.985  1.00  0.00    -0.040 A 
HETATM    6  C   UNL     1      43.936 -19.581   3.645  1.00  0.00     0.025 A 
HETATM    7  C   UNL     1      44.136 -20.912   3.236  1.00  0.00     0.048 A 
HETATM    8  C   UNL     1      44.516 -21.864   4.191  1.00  0.00     0.016 A 
HETATM    9  C   UNL     1      44.693 -21.494   5.523  1.00  0.00     0.001 A 
HETATM   10  C   UNL     1      44.495 -20.172   5.921  1.00  0.00     0.009 A 
BRANCH   7  11
HETATM   11  C   UNL     1      43.926 -21.295   1.787  1.00  0.00     0.417 C 
HETATM   12  F   UNL     1      44.851 -22.166   1.307  1.00  0.00    -0.166 F 
HETATM   13  F   UNL     1      42.710 -21.868   1.583  1.00  0.00    -0.166 F 
HETATM   14  F   UNL     1      43.967 -20.204   0.973  1.00  0.00    -0.166 F 
ENDBRANCH   7  11
ENDBRANCH   4   5
ENDBRANCH   1   4
BRANCH   3  15
HETATM   15  C   UNL     1      41.038 -16.171   3.442  1.00  0.00     0.066 A 
HETATM   16  C   UNL     1      40.088 -15.153   3.685  1.00  0.00     0.195 A 
HETATM   17  N   UNL     1      39.514 -14.692   2.588  1.00  0.00    -0.148 NA
HETATM   18  N   UNL     1      40.068 -15.402   1.605  1.00  0.00    -0.270 N 
HETATM   19  H   UNL     1      39.766 -15.213   0.649  1.00  0.00     0.189 HD
HETATM   20  C   UNL     1      40.994 -16.306   2.055  1.00  0.00     0.150 A 
BRANCH  16  21
HETATM   21  O   UNL     1      39.677 -14.584   4.818  1.00  0.00    -0.343 OA
HETATM   22  H   UNL     1      40.324 -14.619   5.534  1.00  0.00     0.219 HD
ENDBRANCH  16  21
BRANCH  20  23
HETATM   23  C   UNL     1      41.703 -17.130   1.063  1.00  0.00     0.435 C 
HETATM   24  F   UNL     1      43.019 -16.778   1.035  1.00  0.00    -0.165 F 
HETATM   25  F   UNL     1      41.641 -18.446   1.341  1.00  0.00    -0.165 F 
HETATM   26  F   UNL     1      41.223 -16.932  -0.182  1.00  0.00    -0.165 F 
ENDBRANCH  20  23
ENDBRANCH   3  15
TORSDOF 6
ENDMDL
MODEL 3
REMARK VINA RESULT:      -8.0      3.670      4.395
REMARK  6 active torsions:
REMARK  status: ('A' for Active; 'I' for Inactive)
REMARK    1  A    between atoms: C_3  and  C_4 
REMARK    2  A    between atoms: C_9  and  C_10 
REMARK    3  A    between atoms: C_10  and  N_11 
REMARK    4  A    between atoms: C_13  and  C_14 
REMARK    5  A    between atoms: C_15  and  O_16 
REMARK    6  A    between atoms: C_20  and  C_21 
ROOT
HETATM    1  N   UNL     1      43.037 -17.629   2.456  1.00  0.00    -0.394 N 
HETATM    2  H   UNL     1      43.514 -16.894   2.993  1.00  0.00     0.159 HD
HETATM    3  C   UNL     1      41.803 -17.458   2.138  1.00  0.00     0.101 C 
ENDROOT
BRANCH   1   4
HETATM    4  C   UNL     1      43.900 -18.767   2.077  1.00  0.00     0.157 C 
BRANCH   4   5
HETATM    5  C   UNL     1      44.163 -19.636   3.275  1.00  0.00    -0.040 A 
HETATM    6  C   UNL     1      43.942 -19.149   4.574  1.00  0.00     0.025 A 
HETATM    7  C   UNL     1      44.149 -19.963   5.702  1.00  0.00     0.048 A 
HETATM    8  C   UNL     1      44.584 -21.281   5.514  1.00  0.00     0.016 A 
HETATM    9  C   UNL     1      44.807 -21.775   4.229  1.00  0.00     0.001 A 
HETATM   10  C   UNL     1      44.598 -20.961   3.116  1.00  0.00     0.009 A 
BRANCH   7  11
HETATM   11  C   UNL     1      43.914 -19.405   7.089  1.00  0.00     0.417 C 
HETATM   12  F   UNL     1      44.981 -18.745   7.607  1.00  0.00    -0.166 F 
HETATM   13  F   UNL     1      42.868 -18.537   7.117  1.00  0.00    -0.166 F 
HETATM   14  F   UNL     1      43.605 -20.392   7.976  1.00  0.00    -0.166 F 
ENDBRANCH   7  11
ENDBRANCH   4   5
ENDBRANCH   1   4
BRANCH   3  15
HETATM   15  C   UNL     1      40.940 -16.348   2.482  1.00  0.00     0.066 A 
HETATM   16  C   UNL     1      40.176 -15.552   1.600  1.00  0.00     0.195 A 
HETATM   17  N   UNL     1      39.459 -14.625   2.209  1.00  0.00    -0.148 NA
HETATM   18  N   UNL     1      39.743 -14.789   3.502  1.00  0.00    -0.270 N 
HETATM   19  H   UNL     1      39.293 -14.166   4.173  1.00  0.00     0.189 HD
HETATM   20  C   UNL     1      40.626 -15.812   3.729  1.00  0.00     0.150 A 
BRANCH  16  21
HETATM   21  O   UNL     1      40.055 -15.574   0.272  1.00  0.00    -0.343 OA
HETATM   22  H   UNL     1      39.928 -16.457  -0.097  1.00  0.00     0.219 HD
ENDBRANCH  16  21
BRANCH  20  23
HETATM   23  C   UNL     1      40.995 -16.117   5.121  1.00  0.00     0.435 C 
HETATM   24  F   UNL     1      40.804 -17.444   5.363  1.00  0.00    -0.165 F 
HETATM   25  F   UNL     1      42.285 -15.837   5.388  1.00  0.00    -0.165 F 
HETATM   26  F   UNL     1      40.221 -15.447   5.999  1.00  0.00    -0.165 F 
ENDBRANCH  20  23
ENDBRANCH   3  15
TORSDOF 6
ENDMDL
MODEL 4
REMARK VINA RESULT:      -7.9      3.714      7.133
REMARK  6 active torsions:
REMARK  status: ('A' for Active; 'I' for Inactive)
REMARK    1  A    between atoms: C_3  and  C_4 
REMARK    2  A    between atoms: C_9  and  C_10 
REMARK    3  A    between atoms: C_10  and  N_11 
REMARK    4  A    between atoms: C_13  and  C_14 
REMARK    5  A    between atoms: C_15  and  O_16 
REMARK    6  A    between atoms: C_20  and  C_21 
ROOT
HETATM    1  N   UNL     1      42.880 -18.559   2.709  1.00  0.00    -0.394 N 
HETATM    2  H   UNL     1      42.218 -18.843   3.441  1.00  0.00     0.159 HD
HETATM    3  C   UNL     1      43.837 -19.360   2.400  1.00  0.00     0.101 C 
ENDROOT
BRANCH   1   4
HETATM    4  C   UNL     1      42.570 -17.262   2.073  1.00  0.00     0.157 C 
BRANCH   4   5
HETATM    5  C   UNL     1      42.902 -16.136   3.010  1.00  0.00    -0.040 A 
HETATM    6  C   UNL     1      43.265 -16.397   4.342  1.00  0.00     0.025 A 
HETATM    7  C   UNL     1      43.615 -15.355   5.219  1.00  0.00     0.048 A 
HETATM    8  C   UNL     1      43.596 -14.037   4.745  1.00  0.00     0.016 A 
HETATM    9  C   UNL     1      43.238 -13.766   3.425  1.00  0.00     0.001 A 
HETATM   10  C   UNL     1      42.893 -14.806   2.561  1.00  0.00     0.009 A 
BRANCH   7  11
HETATM   11  C   UNL     1      43.989 -15.668   6.651  1.00  0.00     0.417 C 
HETATM   12  F   UNL     1      44.489 -14.607   7.336  1.00  0.00    -0.166 F 
HETATM   13  F   UNL     1      42.928 -16.126   7.366  1.00  0.00    -0.166 F 
HETATM   14  F   UNL     1      44.935 -16.646   6.716  1.00  0.00    -0.166 F 
ENDBRANCH   7  11
ENDBRANCH   4   5
ENDBRANCH   1   4
BRANCH   3  15
HETATM   15  C   UNL     1      44.155 -20.640   2.995  1.00  0.00     0.066 A 
HETATM   16  C   UNL     1      44.341 -21.872   2.328  1.00  0.00     0.195 A 
HETATM   17  N   UNL     1      44.652 -22.870   3.135  1.00  0.00    -0.148 NA
HETATM   18  N   UNL     1      44.668 -22.316   4.349  1.00  0.00    -0.270 N 
HETATM   19  H   UNL     1      44.887 -22.915   5.145  1.00  0.00     0.189 HD
HETATM   20  C   UNL     1      44.380 -20.977   4.328  1.00  0.00     0.150 A 
BRANCH  16  21
HETATM   21  O   UNL     1      44.260 -22.197   1.038  1.00  0.00    -0.343 OA
HETATM   22  H   UNL     1      43.806 -21.541   0.494  1.00  0.00     0.219 HD
ENDBRANCH  16  21
BRANCH  20  23
HETATM   23  C   UNL     1      44.398 -20.241   5.603  1.00  0.00     0.435 C 
HETATM   24  F   UNL     1      43.253 -19.511   5.724  1.00  0.00    -0.165 F 
HETATM   25  F   UNL     1      44.473 -21.057   6.672  1.00  0.00    -0.165 F 
HETATM   26  F   UNL     1      45.422 -19.367   5.658  1.00  0.00    -0.165 F 
ENDBRANCH  20  23
ENDBRANCH   3  15
TORSDOF 6
ENDMDL
MODEL 5
REMARK VINA RESULT:      -7.8      3.635      4.707
REMARK  6 active torsions:
REMARK  status: ('A' for Active; 'I' for Inactive)
REMARK    1  A    between atoms: C_3  and  C_4 
REMARK    2  A    between atoms: C_9  and  C_10 
REMARK    3  A    between atoms: C_10  and  N_11 
REMARK    4  A    between atoms: C_13  and  C_14 
REMARK    5  A    between atoms: C_15  and  O_16 
REMARK    6  A    between atoms: C_20  and  C_21 
ROOT
HETATM    1  N   UNL     1      40.699 -16.463   4.247  1.00  0.00    -0.394 N 
HETATM    2  H   UNL     1      39.996 -17.112   3.873  1.00  0.00     0.159 HD
HETATM    3  C   UNL     1      40.940 -15.378   3.600  1.00  0.00     0.101 C 
ENDROOT
BRANCH   1   4
HETATM    4  C   UNL     1      41.287 -16.874   5.538  1.00  0.00     0.157 C 
BRANCH   4   5
HETATM    5  C   UNL     1      42.379 -17.881   5.310  1.00  0.00    -0.040 A 
HETATM    6  C   UNL     1      42.631 -18.383   4.022  1.00  0.00     0.025 A 
HETATM    7  C   UNL     1      43.674 -19.297   3.789  1.00  0.00     0.048 A 
HETATM    8  C   UNL     1      44.468 -19.708   4.867  1.00  0.00     0.016 A 
HETATM    9  C   UNL     1      44.226 -19.217   6.149  1.00  0.00     0.001 A 
HETATM   10  C   UNL     1      43.190 -18.309   6.372  1.00  0.00     0.009 A 
BRANCH   7  11
HETATM   11  C   UNL     1      43.912 -19.829   2.392  1.00  0.00     0.417 C 
HETATM   12  F   UNL     1      44.953 -20.696   2.301  1.00  0.00    -0.166 F 
HETATM   13  F   UNL     1      42.823 -20.476   1.901  1.00  0.00    -0.166 F 
HETATM   14  F   UNL     1      44.176 -18.821   1.514  1.00  0.00    -0.166 F 
ENDBRANCH   7  11
ENDBRANCH   4   5
ENDBRANCH   1   4
BRANCH   3  15
HETATM   15  C   UNL     1      40.368 -14.943   2.344  1.00  0.00     0.066 A 
HETATM   16  C   UNL     1      39.498 -13.851   2.131  1.00  0.00     0.195 A 
HETATM   17  N   UNL     1      39.162 -13.680   0.865  1.00  0.00    -0.148 NA
HETATM   18  N   UNL     1      39.798 -14.661   0.222  1.00  0.00    -0.270 N 
HETATM   19  H   UNL     1      39.679 -14.726  -0.788  1.00  0.00     0.189 HD
HETATM   20  C   UNL     1      40.542 -15.452   1.058  1.00  0.00     0.150 A 
BRANCH  16  21
HETATM   21  O   UNL     1      38.963 -12.971   2.978  1.00  0.00    -0.343 OA
HETATM   22  H   UNL     1      38.097 -12.641   2.709  1.00  0.00     0.219 HD
ENDBRANCH  16  21
BRANCH  20  23
HETATM   23  C   UNL     1      41.319 -16.552   0.466  1.00  0.00     0.435 C 
HETATM   24  F   UNL     1      42.631 -16.421   0.811  1.00  0.00    -0.165 F 
HETATM   25  F   UNL     1      40.909 -17.764   0.888  1.00  0.00    -0.165 F 
HETATM   26  F   UNL     1      41.269 -16.528  -0.881  1.00  0.00    -0.165 F 
ENDBRANCH  20  23
ENDBRANCH   3  15
TORSDOF 6
ENDMDL
MODEL 6
REMARK VINA RESULT:      -7.8      4.695      5.577
REMARK  6 active torsions:
REMARK  status: ('A' for Active; 'I' for Inactive)
REMARK    1  A    between atoms: C_3  and  C_4 
REMARK    2  A    between atoms: C_9  and  C_10 
REMARK    3  A    between atoms: C_10  and  N_11 
REMARK    4  A    between atoms: C_13  and  C_14 
REMARK    5  A    between atoms: C_15  and  O_16 
REMARK    6  A    between atoms: C_20  and  C_21 
ROOT
HETATM    1  N   UNL     1      42.266 -16.365   1.438  1.00  0.00    -0.394 N 
HETATM    2  H   UNL     1      41.708 -16.711   2.228  1.00  0.00     0.159 HD
HETATM    3  C   UNL     1      41.719 -15.551   0.607  1.00  0.00     0.101 C 
ENDROOT
BRANCH   1   4
HETATM    4  C   UNL     1      43.668 -16.831   1.428  1.00  0.00     0.157 C 
BRANCH   4   5
HETATM    5  C   UNL     1      43.838 -17.976   2.387  1.00  0.00    -0.040 A 
HETATM    6  C   UNL     1      43.872 -19.301   1.920  1.00  0.00     0.025 A 
HETATM    7  C   UNL     1      44.067 -20.378   2.803  1.00  0.00     0.048 A 
HETATM    8  C   UNL     1      44.227 -20.114   4.169  1.00  0.00     0.016 A 
HETATM    9  C   UNL     1      44.195 -18.803   4.643  1.00  0.00     0.001 A 
HETATM   10  C   UNL     1      44.002 -17.739   3.761  1.00  0.00     0.009 A 
BRANCH   7  11
HETATM   11  C   UNL     1      44.087 -21.795   2.271  1.00  0.00     0.417 C 
HETATM   12  F   UNL     1      45.124 -22.056   1.434  1.00  0.00    -0.166 F 
HETATM   13  F   UNL     1      44.153 -22.713   3.271  1.00  0.00    -0.166 F 
HETATM   14  F   UNL     1      42.951 -22.081   1.574  1.00  0.00    -0.166 F 
ENDBRANCH   7  11
ENDBRANCH   4   5
ENDBRANCH   1   4
BRANCH   3  15
HETATM   15  C   UNL     1      40.355 -15.066   0.602  1.00  0.00     0.066 A 
HETATM   16  C   UNL     1      39.426 -15.110   1.665  1.00  0.00     0.195 A 
HETATM   17  N   UNL     1      38.261 -14.562   1.373  1.00  0.00    -0.148 NA
HETATM   18  N   UNL     1      38.398 -14.153   0.110  1.00  0.00    -0.270 N 
HETATM   19  H   UNL     1      37.603 -13.694  -0.333  1.00  0.00     0.189 HD
HETATM   20  C   UNL     1      39.637 -14.426  -0.407  1.00  0.00     0.150 A 
BRANCH  16  21
HETATM   21  O   UNL     1      39.521 -15.604   2.899  1.00  0.00    -0.343 OA
HETATM   22  H   UNL     1      38.951 -16.365   3.064  1.00  0.00     0.219 HD
ENDBRANCH  16  21
BRANCH  20  23
HETATM   23  C   UNL     1      39.927 -13.995  -1.784  1.00  0.00     0.435 C 
HETATM   24  F   UNL     1      39.039 -13.030  -2.156  1.00  0.00    -0.165 F 
HETATM   25  F   UNL     1      41.164 -13.480  -1.917  1.00  0.00    -0.165 F 
HETATM   26  F   UNL     1      39.788 -15.009  -2.662  1.00  0.00    -0.165 F 
ENDBRANCH  20  23
ENDBRANCH   3  15
TORSDOF 6
ENDMDL
MODEL 7
REMARK VINA RESULT:      -7.7      3.974      7.363
REMARK  6 active torsions:
REMARK  status: ('A' for Active; 'I' for Inactive)
REMARK    1  A    between atoms: C_3  and  C_4 
REMARK    2  A    between atoms: C_9  and  C_10 
REMARK    3  A    between atoms: C_10  and  N_11 
REMARK    4  A    between atoms: C_13  and  C_14 
REMARK    5  A    between atoms: C_15  and  O_16 
REMARK    6  A    between atoms: C_20  and  C_21 
ROOT
HETATM    1  N   UNL     1      43.742 -19.045   5.739  1.00  0.00    -0.394 N 
HETATM    2  H   UNL     1      42.854 -18.968   5.228  1.00  0.00     0.159 HD
HETATM    3  C   UNL     1      44.637 -19.856   5.299  1.00  0.00     0.101 C 
ENDROOT
BRANCH   1   4
HETATM    4  C   UNL     1      43.863 -18.134   6.896  1.00  0.00     0.157 C 
BRANCH   4   5
HETATM    5  C   UNL     1      43.857 -16.705   6.430  1.00  0.00    -0.040 A 
HETATM    6  C   UNL     1      43.451 -16.381   5.125  1.00  0.00     0.025 A 
HETATM    7  C   UNL     1      43.406 -15.044   4.688  1.00  0.00     0.048 A 
HETATM    8  C   UNL     1      43.776 -14.028   5.579  1.00  0.00     0.016 A 
HETATM    9  C   UNL     1      44.181 -14.340   6.876  1.00  0.00     0.001 A 
HETATM   10  C   UNL     1      44.221 -15.668   7.302  1.00  0.00     0.009 A 
BRANCH   7  11
HETATM   11  C   UNL     1      42.976 -14.728   3.272  1.00  0.00     0.417 C 
HETATM   12  F   UNL     1      43.606 -15.469   2.325  1.00  0.00    -0.166 F 
HETATM   13  F   UNL     1      41.642 -14.918   3.091  1.00  0.00    -0.166 F 
HETATM   14  F   UNL     1      43.214 -13.423   2.960  1.00  0.00    -0.166 F 
ENDBRANCH   7  11
ENDBRANCH   4   5
ENDBRANCH   1   4
BRANCH   3  15
HETATM   15  C   UNL     1      44.552 -20.746   4.162  1.00  0.00     0.066 A 
HETATM   16  C   UNL     1      44.844 -22.128   4.132  1.00  0.00     0.195 A 
HETATM   17  N   UNL     1      44.645 -22.686   2.952  1.00  0.00    -0.148 NA
HETATM   18  N   UNL     1      44.226 -21.682   2.181  1.00  0.00    -0.270 N 
HETATM   19  H   UNL     1      44.010 -21.885   1.205  1.00  0.00     0.189 HD
HETATM   20  C   UNL     1      44.146 -20.490   2.854  1.00  0.00     0.150 A 
BRANCH  16  21
HETATM   21  O   UNL     1      45.281 -22.958   5.080  1.00  0.00    -0.343 OA
HETATM   22  H   UNL     1      45.331 -23.881   4.803  1.00  0.00     0.219 HD
ENDBRANCH  16  21
BRANCH  20  23
HETATM   23  C   UNL     1      43.664 -19.309   2.121  1.00  0.00     0.435 C 
HETATM   24  F   UNL     1      44.485 -18.250   2.373  1.00  0.00    -0.165 F 
HETATM   25  F   UNL     1      43.643 -19.497   0.788  1.00  0.00    -0.165 F 
HETATM   26  F   UNL     1      42.429 -18.945   2.522  1.00  0.00    -0.165 F 
ENDBRANCH  20  23
ENDBRANCH   3  15
TORSDOF 6
ENDMDL
MODEL 8
REMARK VINA RESULT:      -7.7      4.214      7.198
REMARK  6 active torsions:
REMARK  status: ('A' for Active; 'I' for Inactive)
REMARK    1  A    between atoms: C_3  and  C_4 
REMARK    2  A    between atoms: C_9  and  C_10 
REMARK    3  A    between atoms: C_10  and  N_11 
REMARK    4  A    between atoms: C_13  and  C_14 
REMARK    5  A    between atoms: C_15  and  O_16 
REMARK    6  A    between atoms: C_20  and  C_21 
ROOT
HETATM    1  N   UNL     1      44.212 -18.286   2.122  1.00  0.00    -0.394 N 
HETATM    2  H   UNL     1      44.957 -18.103   2.806  1.00  0.00     0.159 HD
HETATM    3  C   UNL     1      43.711 -19.468   2.057  1.00  0.00     0.101 C 
ENDROOT
BRANCH   1   4
HETATM    4  C   UNL     1      43.790 -17.100   1.347  1.00  0.00     0.157 C 
BRANCH   4   5
HETATM    5  C   UNL     1      42.492 -16.568   1.887  1.00  0.00    -0.040 A 
HETATM    6  C   UNL     1      42.300 -16.419   3.271  1.00  0.00     0.025 A 
HETATM    7  C   UNL     1      41.105 -15.888   3.786  1.00  0.00     0.048 A 
HETATM    8  C   UNL     1      40.094 -15.504   2.896  1.00  0.00     0.016 A 
HETATM    9  C   UNL     1      40.274 -15.648   1.520  1.00  0.00     0.001 A 
HETATM   10  C   UNL     1      41.464 -16.175   1.016  1.00  0.00     0.009 A 
BRANCH   7  11
HETATM   11  C   UNL     1      40.924 -15.751   5.283  1.00  0.00     0.417 C 
HETATM   12  F   UNL     1      39.977 -14.848   5.645  1.00  0.00    -0.166 F 
HETATM   13  F   UNL     1      40.578 -16.931   5.863  1.00  0.00    -0.166 F 
HETATM   14  F   UNL     1      42.079 -15.360   5.890  1.00  0.00    -0.166 F 
ENDBRANCH   7  11
ENDBRANCH   4   5
ENDBRANCH   1   4
BRANCH   3  15
HETATM   15  C   UNL     1      44.094 -20.641   2.812  1.00  0.00     0.066 A 
HETATM   16  C   UNL     1      44.326 -21.943   2.315  1.00  0.00     0.195 A 
HETATM   17  N   UNL     1      44.692 -22.807   3.244  1.00  0.00    -0.148 NA
HETATM   18  N   UNL     1      44.702 -22.093   4.370  1.00  0.00    -0.270 N 
HETATM   19  H   UNL     1      44.959 -22.568   5.235  1.00  0.00     0.189 HD
HETATM   20  C   UNL     1      44.354 -20.782   4.174  1.00  0.00     0.150 A 
BRANCH  16  21
HETATM   21  O   UNL     1      44.239 -22.444   1.083  1.00  0.00    -0.343 OA
HETATM   22  H   UNL     1      44.506 -23.369   1.014  1.00  0.00     0.219 HD
ENDBRANCH  16  21
BRANCH  20  23
HETATM   23  C   UNL     1      44.359 -19.880   5.337  1.00  0.00     0.435 C 
HETATM   24  F   UNL     1      44.323 -20.615   6.484  1.00  0.00    -0.165 F 
HETATM   25  F   UNL     1      45.458 -19.103   5.387  1.00  0.00    -0.165 F 
HETATM   26  F   UNL     1      43.271 -19.084   5.353  1.00  0.00    -0.165 F 
ENDBRANCH  20  23
ENDBRANCH   3  15
TORSDOF 6
ENDMDL
MODEL 9
REMARK VINA RESULT:      -7.7      3.196      3.911
REMARK  6 active torsions:
REMARK  status: ('A' for Active; 'I' for Inactive)
REMARK    1  A    between atoms: C_3  and  C_4 
REMARK    2  A    between atoms: C_9  and  C_10 
REMARK    3  A    between atoms: C_10  and  N_11 
REMARK    4  A    between atoms: C_13  and  C_14 
REMARK    5  A    between atoms: C_15  and  O_16 
REMARK    6  A    between atoms: C_20  and  C_21 
ROOT
HETATM    1  N   UNL     1      42.045 -16.318   6.098  1.00  0.00    -0.394 N 
HETATM    2  H   UNL     1      42.786 -15.758   5.659  1.00  0.00     0.159 HD
HETATM    3  C   UNL     1      40.822 -15.958   5.936  1.00  0.00     0.101 C 
ENDROOT
BRANCH   1   4
HETATM    4  C   UNL     1      42.528 -17.518   6.812  1.00  0.00     0.157 C 
BRANCH   4   5
HETATM    5  C   UNL     1      43.183 -18.465   5.845  1.00  0.00    -0.040 A 
HETATM    6  C   UNL     1      43.044 -18.281   4.459  1.00  0.00     0.025 A 
HETATM    7  C   UNL     1      43.681 -19.138   3.544  1.00  0.00     0.048 A 
HETATM    8  C   UNL     1      44.465 -20.190   4.035  1.00  0.00     0.016 A 
HETATM    9  C   UNL     1      44.609 -20.382   5.408  1.00  0.00     0.001 A 
HETATM   10  C   UNL     1      43.974 -19.527   6.310  1.00  0.00     0.009 A 
BRANCH   7  11
HETATM   11  C   UNL     1      43.502 -18.921   2.057  1.00  0.00     0.417 C 
HETATM   12  F   UNL     1      44.369 -18.023   1.522  1.00  0.00    -0.166 F 
HETATM   13  F   UNL     1      43.652 -20.074   1.353  1.00  0.00    -0.166 F 
HETATM   14  F   UNL     1      42.251 -18.466   1.768  1.00  0.00    -0.166 F 
ENDBRANCH   7  11
ENDBRANCH   4   5
ENDBRANCH   1   4
BRANCH   3  15
HETATM   15  C   UNL     1      40.320 -14.799   5.230  1.00  0.00     0.066 A 
HETATM   16  C   UNL     1      39.760 -13.629   5.791  1.00  0.00     0.195 A 
HETATM   17  N   UNL     1      39.416 -12.724   4.893  1.00  0.00    -0.148 NA
HETATM   18  N   UNL     1      39.734 -13.283   3.725  1.00  0.00    -0.270 N 
HETATM   19  H   UNL     1      39.549 -12.752   2.874  1.00  0.00     0.189 HD
HETATM   20  C   UNL     1      40.285 -14.530   3.863  1.00  0.00     0.150 A 
BRANCH  16  21
HETATM   21  O   UNL     1      39.523 -13.285   7.057  1.00  0.00    -0.343 OA
HETATM   22  H   UNL     1      39.357 -12.343   7.185  1.00  0.00     0.219 HD
ENDBRANCH  16  21
BRANCH  20  23
HETATM   23  C   UNL     1      40.711 -15.241   2.646  1.00  0.00     0.435 C 
HETATM   24  F   UNL     1      39.966 -16.372   2.495  1.00  0.00    -0.165 F 
HETATM   25  F   UNL     1      40.555 -14.501   1.532  1.00  0.00    -0.165 F 
HETATM   26  F   UNL     1      41.999 -15.632   2.724  1.00  0.00    -0.165 F 
ENDBRANCH  20  23
ENDBRANCH   3  15
TORSDOF 6
ENDMDL
MODEL 10
REMARK VINA RESULT:      -7.6      5.566      6.695
REMARK  6 active torsions:
REMARK  status: ('A' for Active; 'I' for Inactive)
REMARK    1  A    between atoms: C_3  and  C_4 
REMARK    2  A    between atoms: C_9  and  C_10 
REMARK    3  A    between atoms: C_10  and  N_11 
REMARK    4  A    between atoms: C_13  and  C_14 
REMARK    5  A    between atoms: C_15  and  O_16 
REMARK    6  A    between atoms: C_20  and  C_21 
ROOT
HETATM    1  N   UNL     1      40.367 -15.539   0.534  1.00  0.00    -0.394 N 
HETATM    2  H   UNL     1      40.374 -16.451   0.062  1.00  0.00     0.159 HD
HETATM    3  C   UNL     1      40.648 -14.488  -0.152  1.00  0.00     0.101 C 
ENDROOT
BRANCH   1   4
HETATM    4  C   UNL     1      39.962 -15.587   1.954  1.00  0.00     0.157 C 
BRANCH   4   5
HETATM    5  C   UNL     1      40.871 -16.508   2.718  1.00  0.00    -0.040 A 
HETATM    6  C   UNL     1      41.684 -17.433   2.042  1.00  0.00     0.025 A 
HETATM    7  C   UNL     1      42.566 -18.275   2.744  1.00  0.00     0.048 A 
HETATM    8  C   UNL     1      42.626 -18.182   4.140  1.00  0.00     0.016 A 
HETATM    9  C   UNL     1      41.823 -17.267   4.820  1.00  0.00     0.001 A 
HETATM   10  C   UNL     1      40.951 -16.435   4.117  1.00  0.00     0.009 A 
BRANCH   7  11
HETATM   11  C   UNL     1      43.421 -19.270   1.987  1.00  0.00     0.417 C 
HETATM   12  F   UNL     1      42.802 -20.452   1.739  1.00  0.00    -0.166 F 
HETATM   13  F   UNL     1      43.825 -18.782   0.785  1.00  0.00    -0.166 F 
HETATM   14  F   UNL     1      44.560 -19.569   2.673  1.00  0.00    -0.166 F 
ENDBRANCH   7  11
ENDBRANCH   4   5
ENDBRANCH   1   4
BRANCH   3  15
HETATM   15  C   UNL     1      41.032 -14.410  -1.545  1.00  0.00     0.066 A 
HETATM   16  C   UNL     1      40.811 -15.378  -2.551  1.00  0.00     0.195 A 
HETATM   17  N   UNL     1      41.250 -15.013  -3.742  1.00  0.00    -0.148 NA
HETATM   18  N   UNL     1      41.776 -13.804  -3.542  1.00  0.00    -0.270 N 
HETATM   19  H   UNL     1      42.186 -13.323  -4.341  1.00  0.00     0.189 HD
HETATM   20  C   UNL     1      41.673 -13.386  -2.240  1.00  0.00     0.150 A 
BRANCH  16  21
HETATM   21  O   UNL     1      40.240 -16.581  -2.505  1.00  0.00    -0.343 OA
HETATM   22  H   UNL     1      39.380 -16.593  -2.067  1.00  0.00     0.219 HD
ENDBRANCH  16  21
BRANCH  20  23
HETATM   23  C   UNL     1      42.187 -12.051  -1.896  1.00  0.00     0.435 C 
HETATM   24  F   UNL     1      42.775 -11.493  -2.991  1.00  0.00    -0.165 F 
HETATM   25  F   UNL     1      41.217 -11.212  -1.485  1.00  0.00    -0.165 F 
HETATM   26  F   UNL     1      43.133 -12.115  -0.937  1.00  0.00    -0.165 F 
ENDBRANCH  20  23
ENDBRANCH   3  15
TORSDOF 6
ENDMDL
