MODEL 1
REMARK VINA RESULT:      -8.8      0.000      0.000
REMARK  5 active torsions:
REMARK  status: ('A' for Active; 'I' for Inactive)
REMARK    1  A    between atoms: C_12  and  C_13 
REMARK    2  A    between atoms: C_13  and  N_14 
REMARK    3  A    between atoms: N_14  and  C_15 
REMARK    4  A    between atoms: C_16  and  O_17 
REMARK    5  A    between atoms: C_19  and  O_20 
ROOT
HETATM    1  C   UNL     1      44.478 -21.912   1.896  1.00  0.00     0.049 C 
HETATM    2  C   UNL     1      44.005 -20.625   2.516  1.00  0.00    -0.055 A 
HETATM    3  C   UNL     1      44.317 -20.289   3.850  1.00  0.00    -0.054 A 
HETATM    4  C   UNL     1      45.170 -21.184   4.708  1.00  0.00     0.049 C 
HETATM    5  C   UNL     1      43.855 -19.073   4.381  1.00  0.00     0.037 A 
HETATM    6  C   UNL     1      43.070 -18.222   3.607  1.00  0.00     0.045 A 
HETATM    7  C   UNL     1      42.735 -18.558   2.294  1.00  0.00    -0.008 A 
HETATM    8  C   UNL     1      43.202 -19.757   1.754  1.00  0.00     0.021 A 
HETATM    9  N   UNL     1      42.606 -17.013   4.143  1.00  0.00    -0.322 N 
HETATM   10  C   UNL     1      41.834 -16.122   3.448  1.00  0.00     0.253 A 
HETATM   11  O   UNL     1      41.462 -15.067   3.956  1.00  0.00    -0.268 OA
HETATM   12  C   UNL     1      41.464 -16.486   2.049  1.00  0.00     0.024 A 
HETATM   13  C   UNL     1      41.895 -17.645   1.519  1.00  0.00     0.027 A 
HETATM   14  H   UNL     1      42.848 -16.751   5.089  1.00  0.00     0.169 HD
ENDROOT
BRANCH  12  15
HETATM   15  C   UNL     1      40.569 -15.527   1.325  1.00  0.00     0.136 C 
BRANCH  15  16
HETATM   16  N   UNL     1      40.539 -15.901  -0.090  1.00  0.00    -0.286 NA
HETATM   17  H   UNL     1      41.124 -16.739  -0.204  1.00  0.00     0.128 HD
BRANCH  16  18
HETATM   18  C   UNL     1      41.009 -14.939  -1.013  1.00  0.00     0.042 A 
HETATM   19  C   UNL     1      40.824 -15.220  -2.379  1.00  0.00     0.089 A 
HETATM   20  C   UNL     1      41.314 -14.401  -3.388  1.00  0.00     0.074 A 
HETATM   21  C   UNL     1      42.025 -13.267  -3.023  1.00  0.00     0.068 A 
HETATM   22  C   UNL     1      42.250 -12.966  -1.683  1.00  0.00     0.038 A 
HETATM   23  C   UNL     1      41.756 -13.807  -0.679  1.00  0.00     0.029 A 
BRANCH  19  24
HETATM   24  O   UNL     1      40.108 -16.338  -2.725  1.00  0.00    -0.359 OA
HETATM   25  H   UNL     1      40.174 -16.350  -3.703  1.00  0.00     0.218 HD
ENDBRANCH  19  24
BRANCH  21  26
HETATM   26  O   UNL     1      42.533 -12.414  -3.959  1.00  0.00    -0.361 OA
HETATM   27  H   UNL     1      43.496 -12.539  -3.994  1.00  0.00     0.217 HD
ENDBRANCH  21  26
ENDBRANCH  16  18
ENDBRANCH  15  16
ENDBRANCH  12  15
TORSDOF 5
ENDMDL
MODEL 2
REMARK VINA RESULT:      -8.7      4.760      7.635
REMARK  5 active torsions:
REMARK  status: ('A' for Active; 'I' for Inactive)
REMARK    1  A    between atoms: C_12  and  C_13 
REMARK    2  A    between atoms: C_13  and  N_14 
REMARK    3  A    between atoms: N_14  and  C_15 
REMARK    4  A    between atoms: C_16  and  O_17 
REMARK    5  A    between atoms: C_19  and  O_20 
ROOT
HETATM    1  C   UNL     1      45.061 -22.575   4.656  1.00  0.00     0.049 C 
HETATM    2  C   UNL     1      44.631 -21.170   4.327  1.00  0.00    -0.055 A 
HETATM    3  C   UNL     1      44.276 -20.796   3.013  1.00  0.00    -0.054 A 
HETATM    4  C   UNL     1      44.272 -21.792   1.885  1.00  0.00     0.049 C 
HETATM    5  C   UNL     1      43.878 -19.473   2.758  1.00  0.00     0.037 A 
HETATM    6  C   UNL     1      43.865 -18.532   3.785  1.00  0.00     0.045 A 
HETATM    7  C   UNL     1      44.240 -18.888   5.082  1.00  0.00    -0.008 A 
HETATM    8  C   UNL     1      44.623 -20.204   5.348  1.00  0.00     0.021 A 
HETATM    9  N   UNL     1      43.473 -17.213   3.524  1.00  0.00    -0.322 N 
HETATM   10  C   UNL     1      43.431 -16.231   4.478  1.00  0.00     0.253 A 
HETATM   11  O   UNL     1      43.066 -15.091   4.205  1.00  0.00    -0.268 OA
HETATM   12  C   UNL     1      43.844 -16.607   5.862  1.00  0.00     0.024 A 
HETATM   13  C   UNL     1      44.228 -17.867   6.130  1.00  0.00     0.027 A 
HETATM   14  H   UNL     1      43.190 -16.942   2.593  1.00  0.00     0.169 HD
ENDROOT
BRANCH  12  15
HETATM   15  C   UNL     1      43.848 -15.505   6.878  1.00  0.00     0.136 C 
BRANCH  15  16
HETATM   16  N   UNL     1      45.035 -14.678   6.656  1.00  0.00    -0.286 NA
HETATM   17  H   UNL     1      45.862 -15.269   6.812  1.00  0.00     0.128 HD
BRANCH  16  18
HETATM   18  C   UNL     1      45.180 -13.537   7.478  1.00  0.00     0.042 A 
HETATM   19  C   UNL     1      46.340 -12.762   7.298  1.00  0.00     0.089 A 
HETATM   20  C   UNL     1      46.644 -11.667   8.097  1.00  0.00     0.074 A 
HETATM   21  C   UNL     1      45.768 -11.341   9.122  1.00  0.00     0.068 A 
HETATM   22  C   UNL     1      44.621 -12.098   9.349  1.00  0.00     0.038 A 
HETATM   23  C   UNL     1      44.334 -13.203   8.538  1.00  0.00     0.029 A 
BRANCH  19  24
HETATM   24  O   UNL     1      47.191 -13.088   6.272  1.00  0.00    -0.359 OA
HETATM   25  H   UNL     1      47.579 -13.938   6.568  1.00  0.00     0.218 HD
ENDBRANCH  19  24
BRANCH  21  26
HETATM   26  O   UNL     1      45.999 -10.278   9.944  1.00  0.00    -0.361 OA
HETATM   27  H   UNL     1      45.243  -9.671   9.878  1.00  0.00     0.217 HD
ENDBRANCH  21  26
ENDBRANCH  16  18
ENDBRANCH  15  16
ENDBRANCH  12  15
TORSDOF 5
ENDMDL
MODEL 3
REMARK VINA RESULT:      -8.5      4.393      5.226
REMARK  5 active torsions:
REMARK  status: ('A' for Active; 'I' for Inactive)
REMARK    1  A    between atoms: C_12  and  C_13 
REMARK    2  A    between atoms: C_13  and  N_14 
REMARK    3  A    between atoms: N_14  and  C_15 
REMARK    4  A    between atoms: C_16  and  O_17 
REMARK    5  A    between atoms: C_19  and  O_20 
ROOT
HETATM    1  C   UNL     1      44.562 -22.001   1.959  1.00  0.00     0.049 C 
HETATM    2  C   UNL     1      44.382 -20.879   2.945  1.00  0.00    -0.055 A 
HETATM    3  C   UNL     1      44.675 -21.046   4.315  1.00  0.00    -0.054 A 
HETATM    4  C   UNL     1      45.219 -22.342   4.851  1.00  0.00     0.049 C 
HETATM    5  C   UNL     1      44.493 -19.966   5.195  1.00  0.00     0.037 A 
HETATM    6  C   UNL     1      43.998 -18.751   4.725  1.00  0.00     0.045 A 
HETATM    7  C   UNL     1      43.681 -18.586   3.375  1.00  0.00    -0.008 A 
HETATM    8  C   UNL     1      43.873 -19.649   2.491  1.00  0.00     0.021 A 
HETATM    9  N   UNL     1      43.813 -17.680   5.607  1.00  0.00    -0.322 N 
HETATM   10  C   UNL     1      43.334 -16.455   5.224  1.00  0.00     0.253 A 
HETATM   11  O   UNL     1      43.203 -15.539   6.032  1.00  0.00    -0.268 OA
HETATM   12  C   UNL     1      42.983 -16.281   3.784  1.00  0.00     0.024 A 
HETATM   13  C   UNL     1      43.149 -17.300   2.923  1.00  0.00     0.027 A 
HETATM   14  H   UNL     1      44.047 -17.780   6.586  1.00  0.00     0.169 HD
ENDROOT
BRANCH  12  15
HETATM   15  C   UNL     1      42.405 -14.954   3.396  1.00  0.00     0.136 C 
BRANCH  15  16
HETATM   16  N   UNL     1      41.006 -14.916   3.827  1.00  0.00    -0.286 NA
HETATM   17  H   UNL     1      40.419 -15.077   2.998  1.00  0.00     0.128 HD
BRANCH  16  18
HETATM   18  C   UNL     1      40.557 -13.718   4.427  1.00  0.00     0.042 A 
HETATM   19  C   UNL     1      40.125 -13.795   5.764  1.00  0.00     0.089 A 
HETATM   20  C   UNL     1      39.581 -12.712   6.442  1.00  0.00     0.074 A 
HETATM   21  C   UNL     1      39.450 -11.511   5.759  1.00  0.00     0.068 A 
HETATM   22  C   UNL     1      39.843 -11.400   4.428  1.00  0.00     0.038 A 
HETATM   23  C   UNL     1      40.382 -12.504   3.758  1.00  0.00     0.029 A 
BRANCH  19  24
HETATM   24  O   UNL     1      40.273 -14.985   6.430  1.00  0.00    -0.359 OA
HETATM   25  H   UNL     1      40.519 -14.702   7.337  1.00  0.00     0.218 HD
ENDBRANCH  19  24
BRANCH  21  26
HETATM   26  O   UNL     1      38.928 -10.404   6.361  1.00  0.00    -0.361 OA
HETATM   27  H   UNL     1      38.324 -10.696   7.064  1.00  0.00     0.217 HD
ENDBRANCH  21  26
ENDBRANCH  16  18
ENDBRANCH  15  16
ENDBRANCH  12  15
TORSDOF 5
ENDMDL
MODEL 4
REMARK VINA RESULT:      -8.5      3.308      3.434
REMARK  5 active torsions:
REMARK  status: ('A' for Active; 'I' for Inactive)
REMARK    1  A    between atoms: C_12  and  C_13 
REMARK    2  A    between atoms: C_13  and  N_14 
REMARK    3  A    between atoms: N_14  and  C_15 
REMARK    4  A    between atoms: C_16  and  O_17 
REMARK    5  A    between atoms: C_19  and  O_20 
ROOT
HETATM    1  C   UNL     1      44.423 -21.919   1.811  1.00  0.00     0.049 C 
HETATM    2  C   UNL     1      44.249 -20.770   2.768  1.00  0.00    -0.055 A 
HETATM    3  C   UNL     1      44.599 -20.884   4.130  1.00  0.00    -0.054 A 
HETATM    4  C   UNL     1      45.201 -22.147   4.685  1.00  0.00     0.049 C 
HETATM    5  C   UNL     1      44.420 -19.781   4.982  1.00  0.00     0.037 A 
HETATM    6  C   UNL     1      43.873 -18.597   4.494  1.00  0.00     0.045 A 
HETATM    7  C   UNL     1      43.499 -18.484   3.153  1.00  0.00    -0.008 A 
HETATM    8  C   UNL     1      43.687 -19.570   2.296  1.00  0.00     0.021 A 
HETATM    9  N   UNL     1      43.691 -17.502   5.348  1.00  0.00    -0.322 N 
HETATM   10  C   UNL     1      43.163 -16.305   4.946  1.00  0.00     0.253 A 
HETATM   11  O   UNL     1      43.035 -15.367   5.729  1.00  0.00    -0.268 OA
HETATM   12  C   UNL     1      42.751 -16.187   3.517  1.00  0.00     0.024 A 
HETATM   13  C   UNL     1      42.913 -17.229   2.682  1.00  0.00     0.027 A 
HETATM   14  H   UNL     1      43.965 -17.565   6.320  1.00  0.00     0.169 HD
ENDROOT
BRANCH  12  15
HETATM   15  C   UNL     1      42.120 -14.890   3.110  1.00  0.00     0.136 C 
BRANCH  15  16
HETATM   16  N   UNL     1      40.776 -14.830   3.685  1.00  0.00    -0.286 NA
HETATM   17  H   UNL     1      40.456 -15.796   3.834  1.00  0.00     0.128 HD
BRANCH  16  18
HETATM   18  C   UNL     1      39.782 -14.178   2.919  1.00  0.00     0.042 A 
HETATM   19  C   UNL     1      39.040 -14.971   2.026  1.00  0.00     0.089 A 
HETATM   20  C   UNL     1      38.096 -14.441   1.156  1.00  0.00     0.074 A 
HETATM   21  C   UNL     1      37.893 -13.069   1.168  1.00  0.00     0.068 A 
HETATM   22  C   UNL     1      38.625 -12.246   2.020  1.00  0.00     0.038 A 
HETATM   23  C   UNL     1      39.578 -12.797   2.884  1.00  0.00     0.029 A 
BRANCH  19  24
HETATM   24  O   UNL     1      39.241 -16.329   2.036  1.00  0.00    -0.359 OA
HETATM   25  H   UNL     1      39.116 -16.565   2.979  1.00  0.00     0.218 HD
ENDBRANCH  19  24
BRANCH  21  26
HETATM   26  O   UNL     1      36.981 -12.478   0.344  1.00  0.00    -0.361 OA
HETATM   27  H   UNL     1      37.328 -12.502  -0.563  1.00  0.00     0.217 HD
ENDBRANCH  21  26
ENDBRANCH  16  18
ENDBRANCH  15  16
ENDBRANCH  12  15
TORSDOF 5
ENDMDL
MODEL 5
REMARK VINA RESULT:      -8.3      3.079      7.893
REMARK  5 active torsions:
REMARK  status: ('A' for Active; 'I' for Inactive)
REMARK    1  A    between atoms: C_12  and  C_13 
REMARK    2  A    between atoms: C_13  and  N_14 
REMARK    3  A    between atoms: N_14  and  C_15 
REMARK    4  A    between atoms: C_16  and  O_17 
REMARK    5  A    between atoms: C_19  and  O_20 
ROOT
HETATM    1  C   UNL     1      39.241 -13.429  -1.694  1.00  0.00     0.049 C 
HETATM    2  C   UNL     1      39.552 -14.258  -0.476  1.00  0.00    -0.055 A 
HETATM    3  C   UNL     1      38.682 -14.293   0.634  1.00  0.00    -0.054 A 
HETATM    4  C   UNL     1      37.382 -13.535   0.640  1.00  0.00     0.049 C 
HETATM    5  C   UNL     1      39.015 -15.085   1.745  1.00  0.00     0.037 A 
HETATM    6  C   UNL     1      40.209 -15.804   1.764  1.00  0.00     0.045 A 
HETATM    7  C   UNL     1      41.088 -15.754   0.681  1.00  0.00    -0.008 A 
HETATM    8  C   UNL     1      40.757 -14.981  -0.434  1.00  0.00     0.021 A 
HETATM    9  N   UNL     1      40.539 -16.587   2.877  1.00  0.00    -0.322 N 
HETATM   10  C   UNL     1      41.690 -17.324   2.972  1.00  0.00     0.253 A 
HETATM   11  O   UNL     1      41.930 -18.008   3.963  1.00  0.00    -0.268 OA
HETATM   12  C   UNL     1      42.636 -17.261   1.820  1.00  0.00     0.024 A 
HETATM   13  C   UNL     1      42.338 -16.510   0.745  1.00  0.00     0.027 A 
HETATM   14  H   UNL     1      39.909 -16.641   3.666  1.00  0.00     0.169 HD
ENDROOT
BRANCH  12  15
HETATM   15  C   UNL     1      43.916 -18.026   1.967  1.00  0.00     0.136 C 
BRANCH  15  16
HETATM   16  N   UNL     1      43.625 -19.451   1.805  1.00  0.00    -0.286 NA
HETATM   17  H   UNL     1      42.604 -19.567   1.836  1.00  0.00     0.128 HD
BRANCH  16  18
HETATM   18  C   UNL     1      44.170 -20.327   2.771  1.00  0.00     0.042 A 
HETATM   19  C   UNL     1      44.228 -21.692   2.436  1.00  0.00     0.089 A 
HETATM   20  C   UNL     1      44.661 -22.667   3.326  1.00  0.00     0.074 A 
HETATM   21  C   UNL     1      45.037 -22.269   4.601  1.00  0.00     0.068 A 
HETATM   22  C   UNL     1      44.972 -20.930   4.979  1.00  0.00     0.038 A 
HETATM   23  C   UNL     1      44.525 -19.963   4.072  1.00  0.00     0.029 A 
BRANCH  19  24
HETATM   24  O   UNL     1      43.866 -22.069   1.168  1.00  0.00    -0.359 OA
HETATM   25  H   UNL     1      44.060 -23.031   1.159  1.00  0.00     0.218 HD
ENDBRANCH  19  24
BRANCH  21  26
HETATM   26  O   UNL     1      45.476 -23.169   5.526  1.00  0.00    -0.361 OA
HETATM   27  H   UNL     1      46.294 -22.824   5.923  1.00  0.00     0.217 HD
ENDBRANCH  21  26
ENDBRANCH  16  18
ENDBRANCH  15  16
ENDBRANCH  12  15
TORSDOF 5
ENDMDL
MODEL 6
REMARK VINA RESULT:      -8.2      3.083      3.754
REMARK  5 active torsions:
REMARK  status: ('A' for Active; 'I' for Inactive)
REMARK    1  A    between atoms: C_12  and  C_13 
REMARK    2  A    between atoms: C_13  and  N_14 
REMARK    3  A    between atoms: N_14  and  C_15 
REMARK    4  A    between atoms: C_16  and  O_17 
REMARK    5  A    between atoms: C_19  and  O_20 
ROOT
HETATM    1  C   UNL     1      44.953 -21.500   5.018  1.00  0.00     0.049 C 
HETATM    2  C   UNL     1      44.379 -20.553   3.998  1.00  0.00    -0.055 A 
HETATM    3  C   UNL     1      44.300 -20.899   2.633  1.00  0.00    -0.054 A 
HETATM    4  C   UNL     1      44.750 -22.246   2.135  1.00  0.00     0.049 C 
HETATM    5  C   UNL     1      43.752 -19.982   1.720  1.00  0.00     0.037 A 
HETATM    6  C   UNL     1      43.320 -18.731   2.155  1.00  0.00     0.045 A 
HETATM    7  C   UNL     1      43.418 -18.371   3.500  1.00  0.00    -0.008 A 
HETATM    8  C   UNL     1      43.948 -19.282   4.416  1.00  0.00     0.021 A 
HETATM    9  N   UNL     1      42.780 -17.818   1.240  1.00  0.00    -0.322 N 
HETATM   10  C   UNL     1      42.331 -16.572   1.587  1.00  0.00     0.253 A 
HETATM   11  O   UNL     1      41.851 -15.810   0.752  1.00  0.00    -0.268 OA
HETATM   12  C   UNL     1      42.447 -16.181   3.022  1.00  0.00     0.024 A 
HETATM   13  C   UNL     1      42.968 -17.042   3.915  1.00  0.00     0.027 A 
HETATM   14  H   UNL     1      42.693 -18.067   0.264  1.00  0.00     0.169 HD
ENDROOT
BRANCH  12  15
HETATM   15  C   UNL     1      42.006 -14.792   3.372  1.00  0.00     0.136 C 
BRANCH  15  16
HETATM   16  N   UNL     1      40.600 -14.842   3.775  1.00  0.00    -0.286 NA
HETATM   17  H   UNL     1      40.303 -15.826   3.756  1.00  0.00     0.128 HD
BRANCH  16  18
HETATM   18  C   UNL     1      39.683 -14.117   2.980  1.00  0.00     0.042 A 
HETATM   19  C   UNL     1      38.929 -14.849   2.045  1.00  0.00     0.089 A 
HETATM   20  C   UNL     1      38.057 -14.248   1.147  1.00  0.00     0.074 A 
HETATM   21  C   UNL     1      37.942 -12.865   1.171  1.00  0.00     0.068 A 
HETATM   22  C   UNL     1      38.689 -12.102   2.065  1.00  0.00     0.038 A 
HETATM   23  C   UNL     1      39.569 -12.725   2.959  1.00  0.00     0.029 A 
BRANCH  19  24
HETATM   24  O   UNL     1      39.042 -16.216   2.042  1.00  0.00    -0.359 OA
HETATM   25  H   UNL     1      38.188 -16.508   1.657  1.00  0.00     0.218 HD
ENDBRANCH  19  24
BRANCH  21  26
HETATM   26  O   UNL     1      37.104 -12.206   0.321  1.00  0.00    -0.361 OA
HETATM   27  H   UNL     1      37.554 -11.402   0.013  1.00  0.00     0.217 HD
ENDBRANCH  21  26
ENDBRANCH  16  18
ENDBRANCH  15  16
ENDBRANCH  12  15
TORSDOF 5
ENDMDL
MODEL 7
REMARK VINA RESULT:      -8.2      2.907      8.126
REMARK  5 active torsions:
REMARK  status: ('A' for Active; 'I' for Inactive)
REMARK    1  A    between atoms: C_12  and  C_13 
REMARK    2  A    between atoms: C_13  and  N_14 
REMARK    3  A    between atoms: N_14  and  C_15 
REMARK    4  A    between atoms: C_16  and  O_17 
REMARK    5  A    between atoms: C_19  and  O_20 
ROOT
HETATM    1  C   UNL     1      37.488 -13.567   0.968  1.00  0.00     0.049 C 
HETATM    2  C   UNL     1      38.804 -14.260   0.742  1.00  0.00    -0.055 A 
HETATM    3  C   UNL     1      39.585 -14.006  -0.406  1.00  0.00    -0.054 A 
HETATM    4  C   UNL     1      39.159 -13.001  -1.441  1.00  0.00     0.049 C 
HETATM    5  C   UNL     1      40.809 -14.677  -0.568  1.00  0.00     0.037 A 
HETATM    6  C   UNL     1      41.232 -15.607   0.379  1.00  0.00     0.045 A 
HETATM    7  C   UNL     1      40.453 -15.884   1.504  1.00  0.00    -0.008 A 
HETATM    8  C   UNL     1      39.243 -15.211   1.681  1.00  0.00     0.021 A 
HETATM    9  N   UNL     1      42.450 -16.278   0.209  1.00  0.00    -0.322 N 
HETATM   10  C   UNL     1      42.937 -17.202   1.093  1.00  0.00     0.253 A 
HETATM   11  O   UNL     1      44.019 -17.755   0.909  1.00  0.00    -0.268 OA
HETATM   12  C   UNL     1      42.100 -17.508   2.290  1.00  0.00     0.024 A 
HETATM   13  C   UNL     1      40.925 -16.878   2.467  1.00  0.00     0.027 A 
HETATM   14  H   UNL     1      43.030 -16.082  -0.596  1.00  0.00     0.169 HD
ENDROOT
BRANCH  12  15
HETATM   15  C   UNL     1      42.621 -18.566   3.215  1.00  0.00     0.136 C 
BRANCH  15  16
HETATM   16  N   UNL     1      43.853 -18.073   3.832  1.00  0.00    -0.286 NA
HETATM   17  H   UNL     1      44.578 -18.790   3.698  1.00  0.00     0.128 HD
BRANCH  16  18
HETATM   18  C   UNL     1      43.804 -17.787   5.216  1.00  0.00     0.042 A 
HETATM   19  C   UNL     1      44.205 -18.809   6.094  1.00  0.00     0.089 A 
HETATM   20  C   UNL     1      44.124 -18.688   7.475  1.00  0.00     0.074 A 
HETATM   21  C   UNL     1      43.612 -17.510   8.000  1.00  0.00     0.068 A 
HETATM   22  C   UNL     1      43.181 -16.484   7.164  1.00  0.00     0.038 A 
HETATM   23  C   UNL     1      43.264 -16.627   5.773  1.00  0.00     0.029 A 
BRANCH  19  24
HETATM   24  O   UNL     1      44.723 -19.963   5.562  1.00  0.00    -0.359 OA
HETATM   25  H   UNL     1      44.083 -20.648   5.853  1.00  0.00     0.218 HD
ENDBRANCH  19  24
BRANCH  21  26
HETATM   26  O   UNL     1      43.505 -17.318   9.346  1.00  0.00    -0.361 OA
HETATM   27  H   UNL     1      43.149 -16.427   9.499  1.00  0.00     0.217 HD
ENDBRANCH  21  26
ENDBRANCH  16  18
ENDBRANCH  15  16
ENDBRANCH  12  15
TORSDOF 5
ENDMDL
MODEL 8
REMARK VINA RESULT:      -8.1      4.109      5.146
REMARK  5 active torsions:
REMARK  status: ('A' for Active; 'I' for Inactive)
REMARK    1  A    between atoms: C_12  and  C_13 
REMARK    2  A    between atoms: C_13  and  N_14 
REMARK    3  A    between atoms: N_14  and  C_15 
REMARK    4  A    between atoms: C_16  and  O_17 
REMARK    5  A    between atoms: C_19  and  O_20 
ROOT
HETATM    1  C   UNL     1      45.091 -22.204   5.016  1.00  0.00     0.049 C 
HETATM    2  C   UNL     1      44.635 -20.913   4.389  1.00  0.00    -0.055 A 
HETATM    3  C   UNL     1      44.425 -20.802   2.999  1.00  0.00    -0.054 A 
HETATM    4  C   UNL     1      44.608 -21.978   2.078  1.00  0.00     0.049 C 
HETATM    5  C   UNL     1      43.995 -19.576   2.463  1.00  0.00     0.037 A 
HETATM    6  C   UNL     1      43.810 -18.472   3.293  1.00  0.00     0.045 A 
HETATM    7  C   UNL     1      44.041 -18.567   4.666  1.00  0.00    -0.008 A 
HETATM    8  C   UNL     1      44.454 -19.785   5.209  1.00  0.00     0.021 A 
HETATM    9  N   UNL     1      43.388 -17.251   2.753  1.00  0.00    -0.322 N 
HETATM   10  C   UNL     1      43.180 -16.123   3.500  1.00  0.00     0.253 A 
HETATM   11  O   UNL     1      42.795 -15.076   2.984  1.00  0.00    -0.268 OA
HETATM   12  C   UNL     1      43.439 -16.219   4.966  1.00  0.00     0.024 A 
HETATM   13  C   UNL     1      43.850 -17.382   5.502  1.00  0.00     0.027 A 
HETATM   14  H   UNL     1      43.207 -17.169   1.762  1.00  0.00     0.169 HD
ENDROOT
BRANCH  12  15
HETATM   15  C   UNL     1      43.265 -14.958   5.758  1.00  0.00     0.136 C 
BRANCH  15  16
HETATM   16  N   UNL     1      41.849 -14.822   6.103  1.00  0.00    -0.286 NA
HETATM   17  H   UNL     1      41.350 -15.625   5.700  1.00  0.00     0.128 HD
BRANCH  16  18
HETATM   18  C   UNL     1      41.191 -13.656   5.649  1.00  0.00     0.042 A 
HETATM   19  C   UNL     1      40.218 -13.819   4.646  1.00  0.00     0.089 A 
HETATM   20  C   UNL     1      39.562 -12.748   4.054  1.00  0.00     0.074 A 
HETATM   21  C   UNL     1      39.895 -11.466   4.467  1.00  0.00     0.068 A 
HETATM   22  C   UNL     1      40.870 -11.261   5.440  1.00  0.00     0.038 A 
HETATM   23  C   UNL     1      41.527 -12.352   6.020  1.00  0.00     0.029 A 
BRANCH  19  24
HETATM   24  O   UNL     1      39.889 -15.093   4.257  1.00  0.00    -0.359 OA
HETATM   25  H   UNL     1      39.697 -15.542   5.108  1.00  0.00     0.218 HD
ENDBRANCH  19  24
BRANCH  21  26
HETATM   26  O   UNL     1      39.290 -10.367   3.934  1.00  0.00    -0.361 OA
HETATM   27  H   UNL     1      38.482 -10.656   3.476  1.00  0.00     0.217 HD
ENDBRANCH  21  26
ENDBRANCH  16  18
ENDBRANCH  15  16
ENDBRANCH  12  15
TORSDOF 5
ENDMDL
MODEL 9
REMARK VINA RESULT:      -7.9      1.548      2.277
REMARK  5 active torsions:
REMARK  status: ('A' for Active; 'I' for Inactive)
REMARK    1  A    between atoms: C_12  and  C_13 
REMARK    2  A    between atoms: C_13  and  N_14 
REMARK    3  A    between atoms: N_14  and  C_15 
REMARK    4  A    between atoms: C_16  and  O_17 
REMARK    5  A    between atoms: C_19  and  O_20 
ROOT
HETATM    1  C   UNL     1      43.940 -20.435   2.077  1.00  0.00     0.049 C 
HETATM    2  C   UNL     1      43.294 -19.215   2.678  1.00  0.00    -0.055 A 
HETATM    3  C   UNL     1      43.646 -18.750   3.962  1.00  0.00    -0.054 A 
HETATM    4  C   UNL     1      44.713 -19.427   4.779  1.00  0.00     0.049 C 
HETATM    5  C   UNL     1      43.016 -17.605   4.477  1.00  0.00     0.037 A 
HETATM    6  C   UNL     1      42.030 -16.953   3.740  1.00  0.00     0.045 A 
HETATM    7  C   UNL     1      41.656 -17.422   2.479  1.00  0.00    -0.008 A 
HETATM    8  C   UNL     1      42.288 -18.551   1.953  1.00  0.00     0.021 A 
HETATM    9  N   UNL     1      41.400 -15.816   4.260  1.00  0.00    -0.322 N 
HETATM   10  C   UNL     1      40.426 -15.118   3.598  1.00  0.00     0.253 A 
HETATM   11  O   UNL     1      39.912 -14.116   4.089  1.00  0.00    -0.268 OA
HETATM   12  C   UNL     1      40.017 -15.625   2.256  1.00  0.00     0.024 A 
HETATM   13  C   UNL     1      40.606 -16.720   1.742  1.00  0.00     0.027 A 
HETATM   14  H   UNL     1      41.666 -15.458   5.168  1.00  0.00     0.169 HD
ENDROOT
BRANCH  12  15
HETATM   15  C   UNL     1      38.907 -14.884   1.573  1.00  0.00     0.136 C 
BRANCH  15  16
HETATM   16  N   UNL     1      39.428 -13.596   1.112  1.00  0.00    -0.286 NA
HETATM   17  H   UNL     1      38.627 -13.024   0.814  1.00  0.00     0.128 HD
BRANCH  16  18
HETATM   18  C   UNL     1      40.340 -13.627   0.032  1.00  0.00     0.042 A 
HETATM   19  C   UNL     1      41.480 -12.809   0.135  1.00  0.00     0.089 A 
HETATM   20  C   UNL     1      42.409 -12.682  -0.889  1.00  0.00     0.074 A 
HETATM   21  C   UNL     1      42.187 -13.385  -2.065  1.00  0.00     0.068 A 
HETATM   22  C   UNL     1      41.058 -14.186  -2.216  1.00  0.00     0.038 A 
HETATM   23  C   UNL     1      40.128 -14.296  -1.175  1.00  0.00     0.029 A 
BRANCH  19  24
HETATM   24  O   UNL     1      41.694 -12.131   1.309  1.00  0.00    -0.359 OA
HETATM   25  H   UNL     1      42.576 -11.725   1.172  1.00  0.00     0.218 HD
ENDBRANCH  19  24
BRANCH  21  26
HETATM   26  O   UNL     1      43.057 -13.312  -3.113  1.00  0.00    -0.361 OA
HETATM   27  H   UNL     1      42.679 -12.716  -3.781  1.00  0.00     0.217 HD
ENDBRANCH  21  26
ENDBRANCH  16  18
ENDBRANCH  15  16
ENDBRANCH  12  15
TORSDOF 5
ENDMDL
MODEL 10
REMARK VINA RESULT:      -7.9      3.318      5.191
REMARK  5 active torsions:
REMARK  status: ('A' for Active; 'I' for Inactive)
REMARK    1  A    between atoms: C_12  and  C_13 
REMARK    2  A    between atoms: C_13  and  N_14 
REMARK    3  A    between atoms: N_14  and  C_15 
REMARK    4  A    between atoms: C_16  and  O_17 
REMARK    5  A    between atoms: C_19  and  O_20 
ROOT
HETATM    1  C   UNL     1      45.154 -21.724   4.883  1.00  0.00     0.049 C 
HETATM    2  C   UNL     1      44.470 -20.693   4.025  1.00  0.00    -0.055 A 
HETATM    3  C   UNL     1      44.225 -20.919   2.654  1.00  0.00    -0.054 A 
HETATM    4  C   UNL     1      44.601 -22.216   1.991  1.00  0.00     0.049 C 
HETATM    5  C   UNL     1      43.581 -19.926   1.897  1.00  0.00     0.037 A 
HETATM    6  C   UNL     1      43.215 -18.718   2.487  1.00  0.00     0.045 A 
HETATM    7  C   UNL     1      43.477 -18.476   3.837  1.00  0.00    -0.008 A 
HETATM    8  C   UNL     1      44.104 -19.463   4.600  1.00  0.00     0.021 A 
HETATM    9  N   UNL     1      42.578 -17.730   1.726  1.00  0.00    -0.322 N 
HETATM   10  C   UNL     1      42.185 -16.519   2.232  1.00  0.00     0.253 A 
HETATM   11  O   UNL     1      41.616 -15.688   1.529  1.00  0.00    -0.268 OA
HETATM   12  C   UNL     1      42.476 -16.255   3.671  1.00  0.00     0.024 A 
HETATM   13  C   UNL     1      43.092 -17.190   4.416  1.00  0.00     0.027 A 
HETATM   14  H   UNL     1      42.373 -17.893   0.750  1.00  0.00     0.169 HD
ENDROOT
BRANCH  12  15
HETATM   15  C   UNL     1      42.093 -14.902   4.190  1.00  0.00     0.136 C 
BRANCH  15  16
HETATM   16  N   UNL     1      40.643 -14.878   4.392  1.00  0.00    -0.286 NA
HETATM   17  H   UNL     1      40.216 -15.460   3.660  1.00  0.00     0.128 HD
BRANCH  16  18
HETATM   18  C   UNL     1      40.012 -13.614   4.337  1.00  0.00     0.042 A 
HETATM   19  C   UNL     1      39.585 -13.060   5.557  1.00  0.00     0.089 A 
HETATM   20  C   UNL     1      38.878 -11.867   5.634  1.00  0.00     0.074 A 
HETATM   21  C   UNL     1      38.574 -11.209   4.451  1.00  0.00     0.068 A 
HETATM   22  C   UNL     1      38.958 -11.737   3.221  1.00  0.00     0.038 A 
HETATM   23  C   UNL     1      39.663 -12.945   3.162  1.00  0.00     0.029 A 
BRANCH  19  24
HETATM   24  O   UNL     1      39.905 -13.714   6.720  1.00  0.00    -0.359 OA
HETATM   25  H   UNL     1      40.578 -14.365   6.430  1.00  0.00     0.218 HD
ENDBRANCH  19  24
BRANCH  21  26
HETATM   26  O   UNL     1      37.885 -10.032   4.448  1.00  0.00    -0.361 OA
HETATM   27  H   UNL     1      38.522  -9.306   4.336  1.00  0.00     0.217 HD
ENDBRANCH  21  26
ENDBRANCH  16  18
ENDBRANCH  15  16
ENDBRANCH  12  15
TORSDOF 5
ENDMDL
