MODEL 1
REMARK VINA RESULT:      -8.6      0.000      0.000
REMARK  6 active torsions:
REMARK  status: ('A' for Active; 'I' for Inactive)
REMARK    1  A    between atoms: C_7  and  C_8 
REMARK    2  A    between atoms: C_8  and  C_9 
REMARK    3  A    between atoms: C_9  and  N_10 
REMARK    4  A    between atoms: C_12  and  C_13 
REMARK    5  A    between atoms: C_13  and  N_14 
REMARK    6  A    between atoms: C_36  and  O_37 
ROOT
HETATM    1  N   UNL     1      40.698 -16.067   5.006  1.00  0.00    -0.054 N 
HETATM    2  H   UNL     1      40.003 -16.839   5.134  1.00  0.00     0.281 HD
HETATM    3  C   UNL     1      41.476 -16.466   3.735  1.00  0.00     0.240 C 
HETATM    4  C   UNL     1      42.465 -17.615   3.951  1.00  0.00    -0.020 A 
HETATM    5  C   UNL     1      42.772 -18.082   5.245  1.00  0.00    -0.048 A 
HETATM    6  C   UNL     1      42.115 -17.500   6.465  1.00  0.00     0.067 C 
HETATM    7  C   UNL     1      41.588 -16.095   6.220  1.00  0.00     0.241 C 
HETATM    8  C   UNL     1      43.134 -18.205   2.861  1.00  0.00     0.010 A 
HETATM    9  C   UNL     1      44.028 -19.261   3.046  1.00  0.00     0.001 A 
HETATM   10  C   UNL     1      44.289 -19.740   4.323  1.00  0.00     0.001 A 
HETATM   11  C   UNL     1      43.666 -19.152   5.419  1.00  0.00     0.008 A 
ENDROOT
BRANCH   1  12
HETATM   12  C   UNL     1      39.893 -14.745   4.931  1.00  0.00     0.319 C 
BRANCH  12  13
HETATM   13  C   UNL     1      40.760 -13.490   4.941  1.00  0.00     0.188 C 
HETATM   14  O   UNL     1      41.112 -13.028   6.029  1.00  0.00    -0.290 OA
BRANCH  13  15
HETATM   15  C   UNL     1      41.159 -12.846   3.689  1.00  0.00     0.046 A 
HETATM   16  C   UNL     1      42.406 -13.044   3.100  1.00  0.00     0.020 A 
HETATM   17  C   UNL     1      43.589 -13.834   3.544  1.00  0.00     0.069 C 
HETATM   18  N   UNL     1      42.431 -12.359   1.914  1.00  0.00    -0.358 N 
HETATM   19  H   UNL     1      43.207 -12.341   1.264  1.00  0.00     0.166 HD
HETATM   20  C   UNL     1      41.239 -11.708   1.713  1.00  0.00     0.043 A 
HETATM   21  C   UNL     1      40.425 -11.966   2.818  1.00  0.00     0.009 A 
HETATM   22  C   UNL     1      40.833 -10.924   0.628  1.00  0.00     0.033 A 
HETATM   23  C   UNL     1      39.139 -11.379   2.819  1.00  0.00     0.051 A 
HETATM   24  C   UNL     1      38.709 -10.587   1.742  1.00  0.00     0.069 A 
HETATM   25  C   UNL     1      39.552 -10.369   0.658  1.00  0.00     0.039 A 
BRANCH  24  26
HETATM   26  O   UNL     1      37.439 -10.095   1.887  1.00  0.00    -0.356 OA
HETATM   27  C   UNL     1      36.397 -10.805   1.222  1.00  0.00     0.210 C 
ENDBRANCH  24  26
ENDBRANCH  13  15
ENDBRANCH  12  13
ENDBRANCH   1  12
BRANCH   3  28
HETATM   28  C   UNL     1      40.522 -16.689   2.524  1.00  0.00     0.173 C 
BRANCH  28  29
HETATM   29  N   UNL     1      40.469 -15.688   1.466  1.00  0.00    -0.278 N 
HETATM   30  C   UNL     1      41.363 -15.508   0.445  1.00  0.00     0.261 A 
HETATM   31  O   UNL     1      42.426 -16.080   0.273  1.00  0.00    -0.267 OA
HETATM   32  C   UNL     1      40.756 -14.580  -0.505  1.00  0.00     0.048 A 
HETATM   33  C   UNL     1      39.478 -14.305  -0.053  1.00  0.00     0.048 A 
HETATM   34  C   UNL     1      41.233 -14.079  -1.699  1.00  0.00     0.018 A 
HETATM   35  C   UNL     1      39.287 -15.046   1.190  1.00  0.00     0.261 A 
HETATM   36  C   UNL     1      38.602 -13.514  -0.769  1.00  0.00     0.018 A 
HETATM   37  O   UNL     1      38.242 -15.114   1.808  1.00  0.00    -0.267 OA
HETATM   38  C   UNL     1      39.063 -12.989  -1.981  1.00  0.00     0.001 A 
HETATM   39  C   UNL     1      40.367 -13.267  -2.441  1.00  0.00     0.001 A 
ENDBRANCH  28  29
ENDBRANCH   3  28
TORSDOF 6
ENDMDL
MODEL 2
REMARK VINA RESULT:      -8.4      2.528      6.780
REMARK  6 active torsions:
REMARK  status: ('A' for Active; 'I' for Inactive)
REMARK    1  A    between atoms: C_7  and  C_8 
REMARK    2  A    between atoms: C_8  and  C_9 
REMARK    3  A    between atoms: C_9  and  N_10 
REMARK    4  A    between atoms: C_12  and  C_13 
REMARK    5  A    between atoms: C_13  and  N_14 
REMARK    6  A    between atoms: C_36  and  O_37 
ROOT
HETATM    1  N   UNL     1      41.832 -15.188   1.419  1.00  0.00    -0.054 N 
HETATM    2  H   UNL     1      42.349 -14.288   1.288  1.00  0.00     0.281 HD
HETATM    3  C   UNL     1      40.776 -15.185   0.294  1.00  0.00     0.240 C 
HETATM    4  C   UNL     1      39.610 -14.225   0.544  1.00  0.00    -0.020 A 
HETATM    5  C   UNL     1      39.435 -13.595   1.793  1.00  0.00    -0.048 A 
HETATM    6  C   UNL     1      40.407 -13.807   2.920  1.00  0.00     0.067 C 
HETATM    7  C   UNL     1      41.182 -15.107   2.775  1.00  0.00     0.241 C 
HETATM    8  C   UNL     1      38.648 -13.983  -0.456  1.00  0.00     0.010 A 
HETATM    9  C   UNL     1      37.587 -13.101  -0.242  1.00  0.00     0.001 A 
HETATM   10  C   UNL     1      37.452 -12.455   0.979  1.00  0.00     0.001 A 
HETATM   11  C   UNL     1      38.370 -12.701   1.994  1.00  0.00     0.008 A 
ENDROOT
BRANCH   1  12
HETATM   12  C   UNL     1      42.885 -16.323   1.368  1.00  0.00     0.319 C 
BRANCH  12  13
HETATM   13  C   UNL     1      42.408 -17.640   1.975  1.00  0.00     0.188 C 
HETATM   14  O   UNL     1      41.360 -18.134   1.553  1.00  0.00    -0.290 OA
BRANCH  13  15
HETATM   15  C   UNL     1      43.172 -18.295   3.036  1.00  0.00     0.046 A 
HETATM   16  C   UNL     1      43.686 -19.584   2.914  1.00  0.00     0.020 A 
HETATM   17  C   UNL     1      43.576 -20.586   1.815  1.00  0.00     0.069 C 
HETATM   18  N   UNL     1      44.402 -19.868   4.046  1.00  0.00    -0.358 N 
HETATM   19  H   UNL     1      44.904 -20.729   4.222  1.00  0.00     0.166 HD
HETATM   20  C   UNL     1      44.365 -18.804   4.913  1.00  0.00     0.043 A 
HETATM   21  C   UNL     1      43.579 -17.809   4.328  1.00  0.00     0.009 A 
HETATM   22  C   UNL     1      44.980 -18.662   6.162  1.00  0.00     0.033 A 
HETATM   23  C   UNL     1      43.403 -16.615   5.064  1.00  0.00     0.051 A 
HETATM   24  C   UNL     1      44.008 -16.448   6.321  1.00  0.00     0.069 A 
HETATM   25  C   UNL     1      44.791 -17.464   6.856  1.00  0.00     0.039 A 
BRANCH  24  26
HETATM   26  O   UNL     1      43.748 -15.238   6.906  1.00  0.00    -0.356 OA
HETATM   27  C   UNL     1      44.801 -14.278   6.888  1.00  0.00     0.210 C 
ENDBRANCH  24  26
ENDBRANCH  13  15
ENDBRANCH  12  13
ENDBRANCH   1  12
BRANCH   3  28
HETATM   28  C   UNL     1      41.433 -15.010  -1.108  1.00  0.00     0.173 C 
BRANCH  28  29
HETATM   29  N   UNL     1      41.572 -13.670  -1.666  1.00  0.00    -0.278 N 
HETATM   30  C   UNL     1      42.128 -12.573  -1.065  1.00  0.00     0.261 A 
HETATM   31  O   UNL     1      42.526 -12.470   0.083  1.00  0.00    -0.267 OA
HETATM   32  C   UNL     1      42.290 -11.550  -2.096  1.00  0.00     0.048 A 
HETATM   33  C   UNL     1      41.900 -12.111  -3.298  1.00  0.00     0.048 A 
HETATM   34  C   UNL     1      42.807 -10.273  -2.017  1.00  0.00     0.018 A 
HETATM   35  C   UNL     1      41.475 -13.480  -3.023  1.00  0.00     0.261 A 
HETATM   36  C   UNL     1      42.004 -11.428  -4.493  1.00  0.00     0.018 A 
HETATM   37  O   UNL     1      41.161 -14.296  -3.867  1.00  0.00    -0.267 OA
HETATM   38  C   UNL     1      42.519 -10.129  -4.441  1.00  0.00     0.001 A 
HETATM   39  C   UNL     1      42.916  -9.556  -3.214  1.00  0.00     0.001 A 
ENDBRANCH  28  29
ENDBRANCH   3  28
TORSDOF 6
ENDMDL
MODEL 3
REMARK VINA RESULT:      -8.3      1.902      2.782
REMARK  6 active torsions:
REMARK  status: ('A' for Active; 'I' for Inactive)
REMARK    1  A    between atoms: C_7  and  C_8 
REMARK    2  A    between atoms: C_8  and  C_9 
REMARK    3  A    between atoms: C_9  and  N_10 
REMARK    4  A    between atoms: C_12  and  C_13 
REMARK    5  A    between atoms: C_13  and  N_14 
REMARK    6  A    between atoms: C_36  and  O_37 
ROOT
HETATM    1  N   UNL     1      42.325 -17.126   5.734  1.00  0.00    -0.054 N 
HETATM    2  H   UNL     1      41.648 -17.872   6.019  1.00  0.00     0.281 HD
HETATM    3  C   UNL     1      42.369 -17.222   4.194  1.00  0.00     0.240 C 
HETATM    4  C   UNL     1      43.146 -18.433   3.672  1.00  0.00    -0.020 A 
HETATM    5  C   UNL     1      43.924 -19.231   4.536  1.00  0.00    -0.048 A 
HETATM    6  C   UNL     1      43.993 -18.951   6.011  1.00  0.00     0.067 C 
HETATM    7  C   UNL     1      43.650 -17.507   6.340  1.00  0.00     0.241 C 
HETATM    8  C   UNL     1      43.144 -18.755   2.301  1.00  0.00     0.010 A 
HETATM    9  C   UNL     1      43.840 -19.864   1.816  1.00  0.00     0.001 A 
HETATM   10  C   UNL     1      44.567 -20.666   2.685  1.00  0.00     0.001 A 
HETATM   11  C   UNL     1      44.612 -20.351   4.039  1.00  0.00     0.008 A 
ENDROOT
BRANCH   1  12
HETATM   12  C   UNL     1      41.801 -15.793   6.324  1.00  0.00     0.319 C 
BRANCH  12  13
HETATM   13  C   UNL     1      42.747 -14.612   6.124  1.00  0.00     0.188 C 
HETATM   14  O   UNL     1      43.826 -14.617   6.720  1.00  0.00    -0.290 OA
BRANCH  13  15
HETATM   15  C   UNL     1      42.377 -13.497   5.252  1.00  0.00     0.046 A 
HETATM   16  C   UNL     1      42.864 -13.359   3.954  1.00  0.00     0.020 A 
HETATM   17  C   UNL     1      43.836 -14.178   3.175  1.00  0.00     0.069 C 
HETATM   18  N   UNL     1      42.273 -12.258   3.392  1.00  0.00    -0.358 N 
HETATM   19  H   UNL     1      42.426 -11.930   2.446  1.00  0.00     0.166 HD
HETATM   20  C   UNL     1      41.421 -11.664   4.288  1.00  0.00     0.043 A 
HETATM   21  C   UNL     1      41.479 -12.395   5.476  1.00  0.00     0.009 A 
HETATM   22  C   UNL     1      40.603 -10.542   4.117  1.00  0.00     0.033 A 
HETATM   23  C   UNL     1      40.672 -11.947   6.546  1.00  0.00     0.051 A 
HETATM   24  C   UNL     1      39.844 -10.822   6.401  1.00  0.00     0.069 A 
HETATM   25  C   UNL     1      39.811 -10.134   5.194  1.00  0.00     0.039 A 
BRANCH  24  26
HETATM   26  O   UNL     1      39.120 -10.516   7.523  1.00  0.00    -0.356 OA
HETATM   27  C   UNL     1      39.026  -9.137   7.868  1.00  0.00     0.210 C 
ENDBRANCH  24  26
ENDBRANCH  13  15
ENDBRANCH  12  13
ENDBRANCH   1  12
BRANCH   3  28
HETATM   28  C   UNL     1      40.948 -17.081   3.571  1.00  0.00     0.173 C 
BRANCH  28  29
HETATM   29  N   UNL     1      40.671 -15.964   2.677  1.00  0.00    -0.278 N 
HETATM   30  C   UNL     1      40.804 -15.934   1.315  1.00  0.00     0.261 A 
HETATM   31  O   UNL     1      41.271 -16.797   0.591  1.00  0.00    -0.267 OA
HETATM   32  C   UNL     1      40.157 -14.713   0.842  1.00  0.00     0.048 A 
HETATM   33  C   UNL     1      39.585 -14.098   1.940  1.00  0.00     0.048 A 
HETATM   34  C   UNL     1      40.004 -14.216  -0.437  1.00  0.00     0.018 A 
HETATM   35  C   UNL     1      39.886 -14.922   3.107  1.00  0.00     0.261 A 
HETATM   36  C   UNL     1      38.825 -12.951   1.825  1.00  0.00     0.018 A 
HETATM   37  O   UNL     1      39.453 -14.730   4.227  1.00  0.00    -0.267 OA
HETATM   38  C   UNL     1      38.660 -12.423   0.540  1.00  0.00     0.001 A 
HETATM   39  C   UNL     1      39.246 -13.050  -0.580  1.00  0.00     0.001 A 
ENDBRANCH  28  29
ENDBRANCH   3  28
TORSDOF 6
ENDMDL
MODEL 4
REMARK VINA RESULT:      -8.2      2.058      7.079
REMARK  6 active torsions:
REMARK  status: ('A' for Active; 'I' for Inactive)
REMARK    1  A    between atoms: C_7  and  C_8 
REMARK    2  A    between atoms: C_8  and  C_9 
REMARK    3  A    between atoms: C_9  and  N_10 
REMARK    4  A    between atoms: C_12  and  C_13 
REMARK    5  A    between atoms: C_13  and  N_14 
REMARK    6  A    between atoms: C_36  and  O_37 
ROOT
HETATM    1  N   UNL     1      41.639 -15.212   3.585  1.00  0.00    -0.054 N 
HETATM    2  H   UNL     1      42.072 -14.976   2.663  1.00  0.00     0.281 HD
HETATM    3  C   UNL     1      40.207 -14.645   3.488  1.00  0.00     0.240 C 
HETATM    4  C   UNL     1      40.138 -13.119   3.598  1.00  0.00    -0.020 A 
HETATM    5  C   UNL     1      41.264 -12.361   3.981  1.00  0.00    -0.048 A 
HETATM    6  C   UNL     1      42.590 -13.014   4.259  1.00  0.00     0.067 C 
HETATM    7  C   UNL     1      42.444 -14.481   4.628  1.00  0.00     0.241 C 
HETATM    8  C   UNL     1      38.931 -12.433   3.367  1.00  0.00     0.010 A 
HETATM    9  C   UNL     1      38.860 -11.041   3.454  1.00  0.00     0.001 A 
HETATM   10  C   UNL     1      39.988 -10.305   3.790  1.00  0.00     0.001 A 
HETATM   11  C   UNL     1      41.185 -10.961   4.055  1.00  0.00     0.008 A 
ENDROOT
BRANCH   1  12
HETATM   12  C   UNL     1      41.758 -16.747   3.759  1.00  0.00     0.319 C 
BRANCH  12  13
HETATM   13  C   UNL     1      43.190 -17.269   3.695  1.00  0.00     0.188 C 
HETATM   14  O   UNL     1      43.943 -16.813   2.832  1.00  0.00    -0.290 OA
BRANCH  13  15
HETATM   15  C   UNL     1      43.655 -18.292   4.632  1.00  0.00     0.046 A 
HETATM   16  C   UNL     1      43.760 -18.071   6.004  1.00  0.00     0.020 A 
HETATM   17  C   UNL     1      43.510 -16.852   6.825  1.00  0.00     0.069 C 
HETATM   18  N   UNL     1      44.154 -19.242   6.596  1.00  0.00    -0.358 N 
HETATM   19  H   UNL     1      44.291 -19.378   7.590  1.00  0.00     0.166 HD
HETATM   20  C   UNL     1      44.322 -20.222   5.650  1.00  0.00     0.043 A 
HETATM   21  C   UNL     1      44.046 -19.658   4.403  1.00  0.00     0.009 A 
HETATM   22  C   UNL     1      44.688 -21.561   5.823  1.00  0.00     0.033 A 
HETATM   23  C   UNL     1      44.165 -20.503   3.276  1.00  0.00     0.051 A 
HETATM   24  C   UNL     1      44.533 -21.851   3.423  1.00  0.00     0.069 A 
HETATM   25  C   UNL     1      44.785 -22.369   4.687  1.00  0.00     0.039 A 
BRANCH  24  26
HETATM   26  O   UNL     1      44.600 -22.540   2.241  1.00  0.00    -0.356 OA
HETATM   27  C   UNL     1      43.944 -21.955   1.120  1.00  0.00     0.210 C 
ENDBRANCH  24  26
ENDBRANCH  13  15
ENDBRANCH  12  13
ENDBRANCH   1  12
BRANCH   3  28
HETATM   28  C   UNL     1      39.449 -15.211   2.250  1.00  0.00     0.173 C 
BRANCH  28  29
HETATM   29  N   UNL     1      39.723 -14.652   0.932  1.00  0.00    -0.278 N 
HETATM   30  C   UNL     1      40.832 -14.854   0.156  1.00  0.00     0.261 A 
HETATM   31  O   UNL     1      41.850 -15.458   0.450  1.00  0.00    -0.267 OA
HETATM   32  C   UNL     1      40.537 -14.320  -1.171  1.00  0.00     0.048 A 
HETATM   33  C   UNL     1      39.222 -13.892  -1.160  1.00  0.00     0.048 A 
HETATM   34  C   UNL     1      41.309 -14.281  -2.314  1.00  0.00     0.018 A 
HETATM   35  C   UNL     1      38.694 -14.139   0.179  1.00  0.00     0.261 A 
HETATM   36  C   UNL     1      38.601 -13.400  -2.291  1.00  0.00     0.018 A 
HETATM   37  O   UNL     1      37.538 -13.974   0.514  1.00  0.00    -0.267 OA
HETATM   38  C   UNL     1      39.364 -13.344  -3.462  1.00  0.00     0.001 A 
HETATM   39  C   UNL     1      40.706 -13.780  -3.473  1.00  0.00     0.001 A 
ENDBRANCH  28  29
ENDBRANCH   3  28
TORSDOF 6
ENDMDL
MODEL 5
REMARK VINA RESULT:      -8.2      1.512      2.296
REMARK  6 active torsions:
REMARK  status: ('A' for Active; 'I' for Inactive)
REMARK    1  A    between atoms: C_7  and  C_8 
REMARK    2  A    between atoms: C_8  and  C_9 
REMARK    3  A    between atoms: C_9  and  N_10 
REMARK    4  A    between atoms: C_12  and  C_13 
REMARK    5  A    between atoms: C_13  and  N_14 
REMARK    6  A    between atoms: C_36  and  O_37 
ROOT
HETATM    1  N   UNL     1      41.508 -16.326   4.870  1.00  0.00    -0.054 N 
HETATM    2  H   UNL     1      40.788 -17.040   5.131  1.00  0.00     0.281 HD
HETATM    3  C   UNL     1      41.940 -16.726   3.444  1.00  0.00     0.240 C 
HETATM    4  C   UNL     1      42.836 -17.967   3.395  1.00  0.00    -0.020 A 
HETATM    5  C   UNL     1      43.379 -18.524   4.571  1.00  0.00    -0.048 A 
HETATM    6  C   UNL     1      43.071 -17.949   5.926  1.00  0.00     0.067 C 
HETATM    7  C   UNL     1      42.641 -16.493   5.849  1.00  0.00     0.241 C 
HETATM    8  C   UNL     1      43.184 -18.557   2.165  1.00  0.00     0.010 A 
HETATM    9  C   UNL     1      43.991 -19.695   2.110  1.00  0.00     0.001 A 
HETATM   10  C   UNL     1      44.483 -20.259   3.280  1.00  0.00     0.001 A 
HETATM   11  C   UNL     1      44.181 -19.676   4.505  1.00  0.00     0.008 A 
ENDROOT
BRANCH   1  12
HETATM   12  C   UNL     1      40.838 -14.937   5.020  1.00  0.00     0.319 C 
BRANCH  12  13
HETATM   13  C   UNL     1      41.613 -13.801   4.359  1.00  0.00     0.188 C 
HETATM   14  O   UNL     1      42.844 -13.811   4.428  1.00  0.00    -0.290 OA
BRANCH  13  15
HETATM   15  C   UNL     1      40.910 -12.721   3.666  1.00  0.00     0.046 A 
HETATM   16  C   UNL     1      39.820 -12.051   4.217  1.00  0.00     0.020 A 
HETATM   17  C   UNL     1      39.094 -12.246   5.505  1.00  0.00     0.069 C 
HETATM   18  N   UNL     1      39.444 -11.060   3.349  1.00  0.00    -0.358 N 
HETATM   19  H   UNL     1      38.690 -10.402   3.502  1.00  0.00     0.166 HD
HETATM   20  C   UNL     1      40.250 -11.068   2.238  1.00  0.00     0.043 A 
HETATM   21  C   UNL     1      41.164 -12.114   2.386  1.00  0.00     0.009 A 
HETATM   22  C   UNL     1      40.231 -10.217   1.128  1.00  0.00     0.033 A 
HETATM   23  C   UNL     1      42.094 -12.306   1.339  1.00  0.00     0.051 A 
HETATM   24  C   UNL     1      42.095 -11.466   0.214  1.00  0.00     0.069 A 
HETATM   25  C   UNL     1      41.173 -10.430   0.118  1.00  0.00     0.039 A 
BRANCH  24  26
HETATM   26  O   UNL     1      43.058 -11.774  -0.710  1.00  0.00    -0.356 OA
HETATM   27  C   UNL     1      42.933 -11.168  -1.993  1.00  0.00     0.210 C 
ENDBRANCH  24  26
ENDBRANCH  13  15
ENDBRANCH  12  13
ENDBRANCH   1  12
BRANCH   3  28
HETATM   28  C   UNL     1      40.721 -16.804   2.477  1.00  0.00     0.173 C 
BRANCH  28  29
HETATM   29  N   UNL     1      40.602 -15.825   1.404  1.00  0.00    -0.278 N 
HETATM   30  C   UNL     1      41.299 -15.790   0.227  1.00  0.00     0.261 A 
HETATM   31  O   UNL     1      42.222 -16.509  -0.116  1.00  0.00    -0.267 OA
HETATM   32  C   UNL     1      40.651 -14.803  -0.633  1.00  0.00     0.048 A 
HETATM   33  C   UNL     1      39.533 -14.343   0.038  1.00  0.00     0.048 A 
HETATM   34  C   UNL     1      40.953 -14.396  -1.917  1.00  0.00     0.018 A 
HETATM   35  C   UNL     1      39.486 -15.027   1.327  1.00  0.00     0.261 A 
HETATM   36  C   UNL     1      38.650 -13.450  -0.535  1.00  0.00     0.018 A 
HETATM   37  O   UNL     1      38.580 -14.936   2.132  1.00  0.00    -0.267 OA
HETATM   38  C   UNL     1      38.936 -13.016  -1.834  1.00  0.00     0.001 A 
HETATM   39  C   UNL     1      40.079 -13.484  -2.518  1.00  0.00     0.001 A 
ENDBRANCH  28  29
ENDBRANCH   3  28
TORSDOF 6
ENDMDL
MODEL 6
REMARK VINA RESULT:      -8.1      2.539      7.184
REMARK  6 active torsions:
REMARK  status: ('A' for Active; 'I' for Inactive)
REMARK    1  A    between atoms: C_7  and  C_8 
REMARK    2  A    between atoms: C_8  and  C_9 
REMARK    3  A    between atoms: C_9  and  N_10 
REMARK    4  A    between atoms: C_12  and  C_13 
REMARK    5  A    between atoms: C_13  and  N_14 
REMARK    6  A    between atoms: C_36  and  O_37 
ROOT
HETATM    1  N   UNL     1      41.080 -15.071   1.730  1.00  0.00    -0.054 N 
HETATM    2  H   UNL     1      41.632 -14.183   1.771  1.00  0.00     0.281 HD
HETATM    3  C   UNL     1      40.410 -15.039   0.341  1.00  0.00     0.240 C 
HETATM    4  C   UNL     1      39.243 -14.052   0.241  1.00  0.00    -0.020 A 
HETATM    5  C   UNL     1      38.716 -13.423   1.387  1.00  0.00    -0.048 A 
HETATM    6  C   UNL     1      39.300 -13.663   2.751  1.00  0.00     0.067 C 
HETATM    7  C   UNL     1      40.055 -14.980   2.831  1.00  0.00     0.241 C 
HETATM    8  C   UNL     1      38.630 -13.784  -0.998  1.00  0.00     0.010 A 
HETATM    9  C   UNL     1      37.573 -12.877  -1.103  1.00  0.00     0.001 A 
HETATM   10  C   UNL     1      37.093 -12.232   0.029  1.00  0.00     0.001 A 
HETATM   11  C   UNL     1      37.659 -12.505   1.269  1.00  0.00     0.008 A 
ENDROOT
BRANCH   1  12
HETATM   12  C   UNL     1      42.075 -16.231   1.985  1.00  0.00     0.319 C 
BRANCH  12  13
HETATM   13  C   UNL     1      43.195 -15.884   2.962  1.00  0.00     0.188 C 
HETATM   14  O   UNL     1      43.835 -14.847   2.778  1.00  0.00    -0.290 OA
BRANCH  13  15
HETATM   15  C   UNL     1      43.505 -16.767   4.087  1.00  0.00     0.046 A 
HETATM   16  C   UNL     1      43.361 -16.377   5.417  1.00  0.00     0.020 A 
HETATM   17  C   UNL     1      42.948 -15.079   6.022  1.00  0.00     0.069 C 
HETATM   18  N   UNL     1      43.666 -17.451   6.212  1.00  0.00    -0.358 N 
HETATM   19  H   UNL     1      43.627 -17.461   7.223  1.00  0.00     0.166 HD
HETATM   20  C   UNL     1      44.015 -18.531   5.441  1.00  0.00     0.043 A 
HETATM   21  C   UNL     1      43.955 -18.134   4.103  1.00  0.00     0.009 A 
HETATM   22  C   UNL     1      44.369 -19.824   5.842  1.00  0.00     0.033 A 
HETATM   23  C   UNL     1      44.287 -19.104   3.130  1.00  0.00     0.051 A 
HETATM   24  C   UNL     1      44.647 -20.408   3.507  1.00  0.00     0.069 A 
HETATM   25  C   UNL     1      44.681 -20.759   4.851  1.00  0.00     0.039 A 
BRANCH  24  26
HETATM   26  O   UNL     1      44.935 -21.232   2.452  1.00  0.00    -0.356 OA
HETATM   27  C   UNL     1      43.825 -21.760   1.730  1.00  0.00     0.210 C 
ENDBRANCH  24  26
ENDBRANCH  13  15
ENDBRANCH  12  13
ENDBRANCH   1  12
BRANCH   3  28
HETATM   28  C   UNL     1      41.459 -14.874  -0.798  1.00  0.00     0.173 C 
BRANCH  28  29
HETATM   29  N   UNL     1      41.627 -13.570  -1.427  1.00  0.00    -0.278 N 
HETATM   30  C   UNL     1      42.154 -12.438  -0.868  1.00  0.00     0.261 A 
HETATM   31  O   UNL     1      42.497 -12.266   0.289  1.00  0.00    -0.267 OA
HETATM   32  C   UNL     1      42.367 -11.478  -1.949  1.00  0.00     0.048 A 
HETATM   33  C   UNL     1      42.033 -12.110  -3.133  1.00  0.00     0.048 A 
HETATM   34  C   UNL     1      42.881 -10.197  -1.923  1.00  0.00     0.018 A 
HETATM   35  C   UNL     1      41.595 -13.462  -2.797  1.00  0.00     0.261 A 
HETATM   36  C   UNL     1      42.195 -11.500  -4.360  1.00  0.00     0.018 A 
HETATM   37  O   UNL     1      41.321 -14.327  -3.605  1.00  0.00    -0.267 OA
HETATM   38  C   UNL     1      42.708 -10.199  -4.362  1.00  0.00     0.001 A 
HETATM   39  C   UNL     1      43.047  -9.553  -3.154  1.00  0.00     0.001 A 
ENDBRANCH  28  29
ENDBRANCH   3  28
TORSDOF 6
ENDMDL
MODEL 7
REMARK VINA RESULT:      -8.0      2.144      6.794
REMARK  6 active torsions:
REMARK  status: ('A' for Active; 'I' for Inactive)
REMARK    1  A    between atoms: C_7  and  C_8 
REMARK    2  A    between atoms: C_8  and  C_9 
REMARK    3  A    between atoms: C_9  and  N_10 
REMARK    4  A    between atoms: C_12  and  C_13 
REMARK    5  A    between atoms: C_13  and  N_14 
REMARK    6  A    between atoms: C_36  and  O_37 
ROOT
HETATM    1  N   UNL     1      40.593 -14.643   3.260  1.00  0.00    -0.054 N 
HETATM    2  H   UNL     1      41.365 -14.022   2.925  1.00  0.00     0.281 HD
HETATM    3  C   UNL     1      39.743 -14.907   2.000  1.00  0.00     0.240 C 
HETATM    4  C   UNL     1      38.889 -13.711   1.569  1.00  0.00    -0.020 A 
HETATM    5  C   UNL     1      38.744 -12.579   2.397  1.00  0.00    -0.048 A 
HETATM    6  C   UNL     1      39.452 -12.480   3.720  1.00  0.00     0.067 C 
HETATM    7  C   UNL     1      39.822 -13.845   4.279  1.00  0.00     0.241 C 
HETATM    8  C   UNL     1      38.183 -13.732   0.351  1.00  0.00     0.010 A 
HETATM    9  C   UNL     1      37.410 -12.642  -0.056  1.00  0.00     0.001 A 
HETATM   10  C   UNL     1      37.311 -11.516   0.750  1.00  0.00     0.001 A 
HETATM   11  C   UNL     1      37.973 -11.485   1.973  1.00  0.00     0.008 A 
ENDROOT
BRANCH   1  12
HETATM   12  C   UNL     1      41.262 -15.882   3.908  1.00  0.00     0.319 C 
BRANCH  12  13
HETATM   13  C   UNL     1      42.705 -15.649   4.346  1.00  0.00     0.188 C 
HETATM   14  O   UNL     1      43.181 -14.518   4.226  1.00  0.00    -0.290 OA
BRANCH  13  15
HETATM   15  C   UNL     1      43.508 -16.746   4.888  1.00  0.00     0.046 A 
HETATM   16  C   UNL     1      44.087 -16.705   6.155  1.00  0.00     0.020 A 
HETATM   17  C   UNL     1      44.106 -15.636   7.194  1.00  0.00     0.069 C 
HETATM   18  N   UNL     1      44.705 -17.907   6.381  1.00  0.00    -0.358 N 
HETATM   19  H   UNL     1      45.191 -18.165   7.230  1.00  0.00     0.166 HD
HETATM   20  C   UNL     1      44.557 -18.731   5.293  1.00  0.00     0.043 A 
HETATM   21  C   UNL     1      43.836 -18.029   4.325  1.00  0.00     0.009 A 
HETATM   22  C   UNL     1      45.005 -20.044   5.114  1.00  0.00     0.033 A 
HETATM   23  C   UNL     1      43.574 -18.699   3.108  1.00  0.00     0.051 A 
HETATM   24  C   UNL     1      44.014 -20.017   2.903  1.00  0.00     0.069 A 
HETATM   25  C   UNL     1      44.718 -20.678   3.903  1.00  0.00     0.039 A 
BRANCH  24  26
HETATM   26  O   UNL     1      43.679 -20.530   1.679  1.00  0.00    -0.356 OA
HETATM   27  C   UNL     1      43.993 -21.901   1.451  1.00  0.00     0.210 C 
ENDBRANCH  24  26
ENDBRANCH  13  15
ENDBRANCH  12  13
ENDBRANCH   1  12
BRANCH   3  28
HETATM   28  C   UNL     1      40.602 -15.503   0.844  1.00  0.00     0.173 C 
BRANCH  28  29
HETATM   29  N   UNL     1      41.202 -14.603  -0.133  1.00  0.00    -0.278 N 
HETATM   30  C   UNL     1      40.890 -14.487  -1.460  1.00  0.00     0.261 A 
HETATM   31  O   UNL     1      40.122 -15.175  -2.110  1.00  0.00    -0.267 OA
HETATM   32  C   UNL     1      41.551 -13.283  -1.958  1.00  0.00     0.048 A 
HETATM   33  C   UNL     1      42.170 -12.677  -0.880  1.00  0.00     0.048 A 
HETATM   34  C   UNL     1      41.553 -12.716  -3.216  1.00  0.00     0.018 A 
HETATM   35  C   UNL     1      41.913 -13.507   0.293  1.00  0.00     0.261 A 
HETATM   36  C   UNL     1      42.824 -11.467  -0.996  1.00  0.00     0.018 A 
HETATM   37  O   UNL     1      42.226 -13.220   1.433  1.00  0.00    -0.267 OA
HETATM   38  C   UNL     1      42.845 -10.873  -2.262  1.00  0.00     0.001 A 
HETATM   39  C   UNL     1      42.216 -11.493  -3.363  1.00  0.00     0.001 A 
ENDBRANCH  28  29
ENDBRANCH   3  28
TORSDOF 6
ENDMDL
MODEL 8
REMARK VINA RESULT:      -8.0      2.457      6.989
REMARK  6 active torsions:
REMARK  status: ('A' for Active; 'I' for Inactive)
REMARK    1  A    between atoms: C_7  and  C_8 
REMARK    2  A    between atoms: C_8  and  C_9 
REMARK    3  A    between atoms: C_9  and  N_10 
REMARK    4  A    between atoms: C_12  and  C_13 
REMARK    5  A    between atoms: C_13  and  N_14 
REMARK    6  A    between atoms: C_36  and  O_37 
ROOT
HETATM    1  N   UNL     1      40.547 -14.636   3.394  1.00  0.00    -0.054 N 
HETATM    2  H   UNL     1      41.374 -14.050   3.135  1.00  0.00     0.281 HD
HETATM    3  C   UNL     1      39.519 -14.357   2.278  1.00  0.00     0.240 C 
HETATM    4  C   UNL     1      38.853 -12.982   2.380  1.00  0.00    -0.020 A 
HETATM    5  C   UNL     1      39.017 -12.173   3.523  1.00  0.00    -0.048 A 
HETATM    6  C   UNL     1      39.883 -12.606   4.672  1.00  0.00     0.067 C 
HETATM    7  C   UNL     1      40.061 -14.115   4.722  1.00  0.00     0.241 C 
HETATM    8  C   UNL     1      38.015 -12.509   1.352  1.00  0.00     0.010 A 
HETATM    9  C   UNL     1      37.412 -11.252   1.430  1.00  0.00     0.001 A 
HETATM   10  C   UNL     1      37.617 -10.447   2.543  1.00  0.00     0.001 A 
HETATM   11  C   UNL     1      38.414 -10.905   3.586  1.00  0.00     0.008 A 
ENDROOT
BRANCH   1  12
HETATM   12  C   UNL     1      41.050 -16.096   3.515  1.00  0.00     0.319 C 
BRANCH  12  13
HETATM   13  C   UNL     1      42.568 -16.237   3.452  1.00  0.00     0.188 C 
HETATM   14  O   UNL     1      43.257 -15.219   3.558  1.00  0.00    -0.290 OA
BRANCH  13  15
HETATM   15  C   UNL     1      43.190 -17.547   3.262  1.00  0.00     0.046 A 
HETATM   16  C   UNL     1      43.585 -18.024   2.014  1.00  0.00     0.020 A 
HETATM   17  C   UNL     1      43.458 -17.435   0.651  1.00  0.00     0.069 C 
HETATM   18  N   UNL     1      44.190 -19.240   2.194  1.00  0.00    -0.358 N 
HETATM   19  H   UNL     1      44.593 -19.808   1.460  1.00  0.00     0.166 HD
HETATM   20  C   UNL     1      44.194 -19.579   3.524  1.00  0.00     0.043 A 
HETATM   21  C   UNL     1      43.550 -18.556   4.223  1.00  0.00     0.009 A 
HETATM   22  C   UNL     1      44.731 -20.712   4.144  1.00  0.00     0.033 A 
HETATM   23  C   UNL     1      43.438 -18.708   5.624  1.00  0.00     0.051 A 
HETATM   24  C   UNL     1      43.967 -19.837   6.270  1.00  0.00     0.069 A 
HETATM   25  C   UNL     1      44.610 -20.824   5.532  1.00  0.00     0.039 A 
BRANCH  24  26
HETATM   26  O   UNL     1      43.783 -19.838   7.627  1.00  0.00    -0.356 OA
HETATM   27  C   UNL     1      43.982 -18.598   8.301  1.00  0.00     0.210 C 
ENDBRANCH  24  26
ENDBRANCH  13  15
ENDBRANCH  12  13
ENDBRANCH   1  12
BRANCH   3  28
HETATM   28  C   UNL     1      40.110 -14.655   0.867  1.00  0.00     0.173 C 
BRANCH  28  29
HETATM   29  N   UNL     1      40.661 -13.558   0.081  1.00  0.00    -0.278 N 
HETATM   30  C   UNL     1      41.737 -12.772   0.389  1.00  0.00     0.261 A 
HETATM   31  O   UNL     1      42.388 -12.766   1.420  1.00  0.00    -0.267 OA
HETATM   32  C   UNL     1      42.072 -12.005  -0.809  1.00  0.00     0.048 A 
HETATM   33  C   UNL     1      41.226 -12.429  -1.818  1.00  0.00     0.048 A 
HETATM   34  C   UNL     1      43.071 -11.080  -1.032  1.00  0.00     0.018 A 
HETATM   35  C   UNL     1      40.349 -13.449  -1.253  1.00  0.00     0.261 A 
HETATM   36  C   UNL     1      41.332 -11.953  -3.110  1.00  0.00     0.018 A 
HETATM   37  O   UNL     1      39.547 -14.108  -1.886  1.00  0.00    -0.267 OA
HETATM   38  C   UNL     1      42.333 -11.010  -3.362  1.00  0.00     0.001 A 
HETATM   39  C   UNL     1      43.195 -10.577  -2.331  1.00  0.00     0.001 A 
ENDBRANCH  28  29
ENDBRANCH   3  28
TORSDOF 6
ENDMDL
MODEL 9
REMARK VINA RESULT:      -7.9      1.829      2.436
REMARK  6 active torsions:
REMARK  status: ('A' for Active; 'I' for Inactive)
REMARK    1  A    between atoms: C_7  and  C_8 
REMARK    2  A    between atoms: C_8  and  C_9 
REMARK    3  A    between atoms: C_9  and  N_10 
REMARK    4  A    between atoms: C_12  and  C_13 
REMARK    5  A    between atoms: C_13  and  N_14 
REMARK    6  A    between atoms: C_36  and  O_37 
ROOT
HETATM    1  N   UNL     1      42.906 -15.557   5.335  1.00  0.00    -0.054 N 
HETATM    2  H   UNL     1      42.088 -16.054   5.756  1.00  0.00     0.281 HD
HETATM    3  C   UNL     1      43.046 -16.179   3.930  1.00  0.00     0.240 C 
HETATM    4  C   UNL     1      43.630 -17.594   3.936  1.00  0.00    -0.020 A 
HETATM    5  C   UNL     1      44.187 -18.151   5.106  1.00  0.00    -0.048 A 
HETATM    6  C   UNL     1      44.196 -17.396   6.405  1.00  0.00     0.067 C 
HETATM    7  C   UNL     1      44.094 -15.893   6.199  1.00  0.00     0.241 C 
HETATM    8  C   UNL     1      43.672 -18.362   2.756  1.00  0.00     0.010 A 
HETATM    9  C   UNL     1      44.192 -19.658   2.754  1.00  0.00     0.001 A 
HETATM   10  C   UNL     1      44.698 -20.209   3.923  1.00  0.00     0.001 A 
HETATM   11  C   UNL     1      44.698 -19.460   5.094  1.00  0.00     0.008 A 
ENDROOT
BRANCH   1  12
HETATM   12  C   UNL     1      42.587 -14.041   5.386  1.00  0.00     0.319 C 
BRANCH  12  13
HETATM   13  C   UNL     1      41.113 -13.726   5.623  1.00  0.00     0.188 C 
HETATM   14  O   UNL     1      40.406 -14.586   6.153  1.00  0.00    -0.290 OA
BRANCH  13  15
HETATM   15  C   UNL     1      40.552 -12.434   5.225  1.00  0.00     0.046 A 
HETATM   16  C   UNL     1      40.819 -11.250   5.908  1.00  0.00     0.020 A 
HETATM   17  C   UNL     1      41.619 -10.983   7.138  1.00  0.00     0.069 C 
HETATM   18  N   UNL     1      40.202 -10.224   5.242  1.00  0.00    -0.358 N 
HETATM   19  H   UNL     1      40.243  -9.247   5.504  1.00  0.00     0.166 HD
HETATM   20  C   UNL     1      39.529 -10.704   4.147  1.00  0.00     0.043 A 
HETATM   21  C   UNL     1      39.700 -12.089   4.118  1.00  0.00     0.009 A 
HETATM   22  C   UNL     1      38.794 -10.001   3.186  1.00  0.00     0.033 A 
HETATM   23  C   UNL     1      39.077 -12.791   3.061  1.00  0.00     0.051 A 
HETATM   24  C   UNL     1      38.332 -12.109   2.084  1.00  0.00     0.069 A 
HETATM   25  C   UNL     1      38.201 -10.727   2.150  1.00  0.00     0.039 A 
BRANCH  24  26
HETATM   26  O   UNL     1      37.796 -12.925   1.124  1.00  0.00    -0.356 OA
HETATM   27  C   UNL     1      38.214 -14.287   1.134  1.00  0.00     0.210 C 
ENDBRANCH  24  26
ENDBRANCH  13  15
ENDBRANCH  12  13
ENDBRANCH   1  12
BRANCH   3  28
HETATM   28  C   UNL     1      41.723 -16.058   3.116  1.00  0.00     0.173 C 
BRANCH  28  29
HETATM   29  N   UNL     1      41.787 -15.694   1.706  1.00  0.00    -0.278 N 
HETATM   30  C   UNL     1      41.329 -16.416   0.637  1.00  0.00     0.261 A 
HETATM   31  O   UNL     1      40.868 -17.545   0.641  1.00  0.00    -0.267 OA
HETATM   32  C   UNL     1      41.365 -15.537  -0.529  1.00  0.00     0.048 A 
HETATM   33  C   UNL     1      41.767 -14.288  -0.091  1.00  0.00     0.048 A 
HETATM   34  C   UNL     1      41.004 -15.772  -1.840  1.00  0.00     0.018 A 
HETATM   35  C   UNL     1      42.001 -14.385   1.347  1.00  0.00     0.261 A 
HETATM   36  C   UNL     1      41.830 -13.200  -0.938  1.00  0.00     0.018 A 
HETATM   37  O   UNL     1      42.271 -13.449   2.074  1.00  0.00    -0.267 OA
HETATM   38  C   UNL     1      41.475 -13.412  -2.275  1.00  0.00     0.001 A 
HETATM   39  C   UNL     1      41.067 -14.687  -2.721  1.00  0.00     0.001 A 
ENDBRANCH  28  29
ENDBRANCH   3  28
TORSDOF 6
ENDMDL
MODEL 10
REMARK VINA RESULT:      -7.8      2.420      6.243
REMARK  6 active torsions:
REMARK  status: ('A' for Active; 'I' for Inactive)
REMARK    1  A    between atoms: C_7  and  C_8 
REMARK    2  A    between atoms: C_8  and  C_9 
REMARK    3  A    between atoms: C_9  and  N_10 
REMARK    4  A    between atoms: C_12  and  C_13 
REMARK    5  A    between atoms: C_13  and  N_14 
REMARK    6  A    between atoms: C_36  and  O_37 
ROOT
HETATM    1  N   UNL     1      39.585 -13.970   1.412  1.00  0.00    -0.054 N 
HETATM    2  H   UNL     1      38.597 -14.270   1.582  1.00  0.00     0.281 HD
HETATM    3  C   UNL     1      40.323 -14.339   2.716  1.00  0.00     0.240 C 
HETATM    4  C   UNL     1      40.010 -13.405   3.889  1.00  0.00    -0.020 A 
HETATM    5  C   UNL     1      39.295 -12.205   3.698  1.00  0.00    -0.048 A 
HETATM    6  C   UNL     1      38.776 -11.809   2.344  1.00  0.00     0.067 C 
HETATM    7  C   UNL     1      39.544 -12.477   1.215  1.00  0.00     0.241 C 
HETATM    8  C   UNL     1      40.473 -13.697   5.186  1.00  0.00     0.010 A 
HETATM    9  C   UNL     1      40.183 -12.858   6.264  1.00  0.00     0.001 A 
HETATM   10  C   UNL     1      39.441 -11.702   6.069  1.00  0.00     0.001 A 
HETATM   11  C   UNL     1      39.000 -11.374   4.791  1.00  0.00     0.008 A 
ENDROOT
BRANCH   1  12
HETATM   12  C   UNL     1      40.061 -14.693   0.127  1.00  0.00     0.319 C 
BRANCH  12  13
HETATM   13  C   UNL     1      41.498 -14.369  -0.272  1.00  0.00     0.188 C 
HETATM   14  O   UNL     1      42.413 -14.783   0.443  1.00  0.00    -0.290 OA
BRANCH  13  15
HETATM   15  C   UNL     1      41.781 -13.579  -1.471  1.00  0.00     0.046 A 
HETATM   16  C   UNL     1      41.557 -14.056  -2.761  1.00  0.00     0.020 A 
HETATM   17  C   UNL     1      41.071 -15.377  -3.251  1.00  0.00     0.069 C 
HETATM   18  N   UNL     1      41.858 -13.053  -3.644  1.00  0.00    -0.358 N 
HETATM   19  H   UNL     1      41.769 -13.112  -4.651  1.00  0.00     0.166 HD
HETATM   20  C   UNL     1      42.283 -11.935  -2.970  1.00  0.00     0.043 A 
HETATM   21  C   UNL     1      42.276 -12.235  -1.606  1.00  0.00     0.009 A 
HETATM   22  C   UNL     1      42.660 -10.688  -3.480  1.00  0.00     0.033 A 
HETATM   23  C   UNL     1      42.689 -11.212  -0.722  1.00  0.00     0.051 A 
HETATM   24  C   UNL     1      43.074  -9.952  -1.209  1.00  0.00     0.069 A 
HETATM   25  C   UNL     1      43.052  -9.698  -2.575  1.00  0.00     0.039 A 
BRANCH  24  26
HETATM   26  O   UNL     1      43.442  -9.068  -0.231  1.00  0.00    -0.356 OA
HETATM   27  C   UNL     1      43.594  -7.706  -0.622  1.00  0.00     0.210 C 
ENDBRANCH  24  26
ENDBRANCH  13  15
ENDBRANCH  12  13
ENDBRANCH   1  12
BRANCH   3  28
HETATM   28  C   UNL     1      40.153 -15.848   3.064  1.00  0.00     0.173 C 
BRANCH  28  29
HETATM   29  N   UNL     1      41.332 -16.705   3.107  1.00  0.00    -0.278 N 
HETATM   30  C   UNL     1      42.122 -16.978   4.190  1.00  0.00     0.261 A 
HETATM   31  O   UNL     1      42.059 -16.488   5.305  1.00  0.00    -0.267 OA
HETATM   32  C   UNL     1      43.001 -18.084   3.817  1.00  0.00     0.048 A 
HETATM   33  C   UNL     1      42.641 -18.486   2.544  1.00  0.00     0.048 A 
HETATM   34  C   UNL     1      43.974 -18.741   4.544  1.00  0.00     0.018 A 
HETATM   35  C   UNL     1      41.547 -17.623   2.108  1.00  0.00     0.261 A 
HETATM   36  C   UNL     1      43.230 -19.569   1.923  1.00  0.00     0.018 A 
HETATM   37  O   UNL     1      40.921 -17.759   1.075  1.00  0.00    -0.267 OA
HETATM   38  C   UNL     1      44.223 -20.249   2.635  1.00  0.00     0.001 A 
HETATM   39  C   UNL     1      44.593 -19.837   3.934  1.00  0.00     0.001 A 
ENDBRANCH  28  29
ENDBRANCH   3  28
TORSDOF 6
ENDMDL
