MODEL 1
REMARK VINA RESULT:      -9.1      0.000      0.000
REMARK  7 active torsions:
REMARK  status: ('A' for Active; 'I' for Inactive)
REMARK    1  A    between atoms: C_5  and  C_6 
REMARK    2  A    between atoms: C_9  and  C_10 
REMARK       I    between atoms: C_10  and  N_11 
REMARK    3  A    between atoms: N_11  and  N_12 
REMARK       I    between atoms: N_12  and  C_13 
REMARK    4  A    between atoms: C_13  and  C_14 
REMARK    5  A    between atoms: C_14  and  N_15 
REMARK    6  A    between atoms: N_15  and  C_16 
REMARK    7  A    between atoms: C_18  and  O_19 
ROOT
HETATM    1  C   UNL     1      43.896 -15.158   7.407  1.00  0.00     0.289 C 
HETATM    2  N   UNL     1      44.237 -13.820   7.477  1.00  0.00    -0.262 N 
HETATM    3  O   UNL     1      43.895 -15.902   8.386  1.00  0.00    -0.264 OA
HETATM    4  H   UNL     1      43.982 -13.214   6.697  1.00  0.00     0.190 HD
ENDROOT
BRANCH   2   5
HETATM    5  N   UNL     1      44.365 -13.238   8.749  1.00  0.00    -0.266 N 
HETATM    6  C   UNL     1      45.425 -12.370   8.954  1.00  0.00     0.253 C 
HETATM    7  O   UNL     1      46.376 -12.270   8.176  1.00  0.00    -0.270 OA
HETATM    8  H   UNL     1      43.487 -13.089   9.242  1.00  0.00     0.190 HD
BRANCH   6   9
HETATM    9  C   UNL     1      45.333 -11.567  10.257  1.00  0.00     0.224 C 
BRANCH   9  10
HETATM   10  N   UNL     1      44.245 -10.595  10.150  1.00  0.00    -0.381 N 
HETATM   11  H   UNL     1      43.904 -10.523   9.189  1.00  0.00     0.160 HD
BRANCH  10  12
HETATM   12  C   UNL     1      43.216 -10.572  11.093  1.00  0.00     0.030 A 
HETATM   13  C   UNL     1      43.527 -10.169  12.403  1.00  0.00     0.065 A 
HETATM   14  C   UNL     1      42.574 -10.203  13.426  1.00  0.00     0.070 A 
HETATM   15  C   UNL     1      41.292 -10.673  13.146  1.00  0.00     0.037 A 
HETATM   16  C   UNL     1      40.971 -11.113  11.864  1.00  0.00     0.005 A 
HETATM   17  C   UNL     1      41.933 -11.074  10.850  1.00  0.00     0.029 A 
BRANCH  14  18
HETATM   18  O   UNL     1      42.772  -9.823  14.726  1.00  0.00    -0.356 OA
HETATM   19  C   UNL     1      41.610  -9.667  15.532  1.00  0.00     0.210 C 
ENDBRANCH  14  18
ENDBRANCH  10  12
ENDBRANCH   9  10
ENDBRANCH   6   9
ENDBRANCH   2   5
BRANCH   1  20
HETATM   20  C   UNL     1      43.544 -15.597   6.057  1.00  0.00     0.134 A 
HETATM   21  C   UNL     1      42.814 -14.835   5.169  1.00  0.00     0.089 A 
HETATM   22  S   UNL     1      42.578 -15.693   3.711  1.00  0.00    -0.079 SA
HETATM   23  C   UNL     1      43.438 -17.045   4.353  1.00  0.00     0.108 A 
HETATM   24  N   UNL     1      43.921 -16.851   5.569  1.00  0.00    -0.235 NA
BRANCH  23  25
HETATM   25  C   UNL     1      43.604 -18.300   3.588  1.00  0.00    -0.000 A 
HETATM   26  C   UNL     1      42.972 -18.545   2.359  1.00  0.00     0.015 A 
HETATM   27  C   UNL     1      43.139 -19.764   1.688  1.00  0.00     0.007 A 
HETATM   28  C   UNL     1      43.936 -20.772   2.234  1.00  0.00    -0.062 A 
HETATM   29  C   UNL     1      44.125 -22.077   1.520  1.00  0.00     0.048 C 
HETATM   30  C   UNL     1      44.580 -20.538   3.452  1.00  0.00     0.007 A 
HETATM   31  C   UNL     1      44.411 -19.320   4.120  1.00  0.00     0.015 A 
ENDBRANCH  23  25
ENDBRANCH   1  20
TORSDOF 7
ENDMDL
MODEL 2
REMARK VINA RESULT:      -9.1      0.985      1.724
REMARK  7 active torsions:
REMARK  status: ('A' for Active; 'I' for Inactive)
REMARK    1  A    between atoms: C_5  and  C_6 
REMARK    2  A    between atoms: C_9  and  C_10 
REMARK       I    between atoms: C_10  and  N_11 
REMARK    3  A    between atoms: N_11  and  N_12 
REMARK       I    between atoms: N_12  and  C_13 
REMARK    4  A    between atoms: C_13  and  C_14 
REMARK    5  A    between atoms: C_14  and  N_15 
REMARK    6  A    between atoms: N_15  and  C_16 
REMARK    7  A    between atoms: C_18  and  O_19 
ROOT
HETATM    1  C   UNL     1      43.887 -15.033   7.277  1.00  0.00     0.289 C 
HETATM    2  N   UNL     1      44.133 -13.672   7.262  1.00  0.00    -0.262 N 
HETATM    3  O   UNL     1      43.972 -15.717   8.295  1.00  0.00    -0.264 OA
HETATM    4  H   UNL     1      43.809 -13.132   6.460  1.00  0.00     0.190 HD
ENDROOT
BRANCH   2   5
HETATM    5  N   UNL     1      44.261 -13.011   8.495  1.00  0.00    -0.266 N 
HETATM    6  C   UNL     1      45.439 -12.324   8.735  1.00  0.00     0.253 C 
HETATM    7  O   UNL     1      46.452 -12.459   8.046  1.00  0.00    -0.270 OA
HETATM    8  H   UNL     1      43.387 -12.670   8.889  1.00  0.00     0.190 HD
BRANCH   6   9
HETATM    9  C   UNL     1      45.388 -11.405   9.962  1.00  0.00     0.224 C 
BRANCH   9  10
HETATM   10  N   UNL     1      44.154 -10.621   9.926  1.00  0.00    -0.381 N 
HETATM   11  H   UNL     1      43.621 -10.804   9.073  1.00  0.00     0.160 HD
BRANCH  10  12
HETATM   12  C   UNL     1      43.344 -10.517  11.059  1.00  0.00     0.030 A 
HETATM   13  C   UNL     1      41.953 -10.626  10.892  1.00  0.00     0.065 A 
HETATM   14  C   UNL     1      41.069 -10.445  11.960  1.00  0.00     0.070 A 
HETATM   15  C   UNL     1      41.579 -10.122  13.217  1.00  0.00     0.037 A 
HETATM   16  C   UNL     1      42.952  -9.973  13.399  1.00  0.00     0.005 A 
HETATM   17  C   UNL     1      43.824 -10.155  12.323  1.00  0.00     0.029 A 
BRANCH  14  18
HETATM   18  O   UNL     1      39.705 -10.541  11.904  1.00  0.00    -0.356 OA
HETATM   19  C   UNL     1      38.965  -9.398  12.314  1.00  0.00     0.210 C 
ENDBRANCH  14  18
ENDBRANCH  10  12
ENDBRANCH   9  10
ENDBRANCH   6   9
ENDBRANCH   2   5
BRANCH   1  20
HETATM   20  C   UNL     1      43.524 -15.572   5.967  1.00  0.00     0.134 A 
HETATM   21  C   UNL     1      42.746 -14.897   5.049  1.00  0.00     0.089 A 
HETATM   22  S   UNL     1      42.513 -15.856   3.656  1.00  0.00    -0.079 SA
HETATM   23  C   UNL     1      43.437 -17.131   4.363  1.00  0.00     0.108 A 
HETATM   24  N   UNL     1      43.938 -16.840   5.552  1.00  0.00    -0.235 NA
BRANCH  23  25
HETATM   25  C   UNL     1      43.636 -18.426   3.677  1.00  0.00    -0.000 A 
HETATM   26  C   UNL     1      44.425 -19.463   4.199  1.00  0.00     0.015 A 
HETATM   27  C   UNL     1      44.606 -20.661   3.495  1.00  0.00     0.007 A 
HETATM   28  C   UNL     1      44.010 -20.849   2.246  1.00  0.00    -0.062 A 
HETATM   29  C   UNL     1      44.194 -22.129   1.488  1.00  0.00     0.048 C 
HETATM   30  C   UNL     1      43.213 -19.829   1.720  1.00  0.00     0.007 A 
HETATM   31  C   UNL     1      43.034 -18.633   2.424  1.00  0.00     0.015 A 
ENDBRANCH  23  25
ENDBRANCH   1  20
TORSDOF 7
ENDMDL
MODEL 3
REMARK VINA RESULT:      -8.8      2.358      3.639
REMARK  7 active torsions:
REMARK  status: ('A' for Active; 'I' for Inactive)
REMARK    1  A    between atoms: C_5  and  C_6 
REMARK    2  A    between atoms: C_9  and  C_10 
REMARK       I    between atoms: C_10  and  N_11 
REMARK    3  A    between atoms: N_11  and  N_12 
REMARK       I    between atoms: N_12  and  C_13 
REMARK    4  A    between atoms: C_13  and  C_14 
REMARK    5  A    between atoms: C_14  and  N_15 
REMARK    6  A    between atoms: N_15  and  C_16 
REMARK    7  A    between atoms: C_18  and  O_19 
ROOT
HETATM    1  C   UNL     1      42.300 -13.737   5.598  1.00  0.00     0.289 C 
HETATM    2  N   UNL     1      41.245 -12.860   5.773  1.00  0.00    -0.262 N 
HETATM    3  O   UNL     1      43.371 -13.621   6.192  1.00  0.00    -0.264 OA
HETATM    4  H   UNL     1      40.321 -13.146   5.450  1.00  0.00     0.190 HD
ENDROOT
BRANCH   2   5
HETATM    5  N   UNL     1      41.318 -11.941   6.833  1.00  0.00    -0.266 N 
HETATM    6  C   UNL     1      40.175 -11.222   7.138  1.00  0.00     0.253 C 
HETATM    7  O   UNL     1      39.192 -11.167   6.396  1.00  0.00    -0.270 OA
HETATM    8  H   UNL     1      41.970 -12.194   7.573  1.00  0.00     0.190 HD
BRANCH   6   9
HETATM    9  C   UNL     1      40.251 -10.462   8.469  1.00  0.00     0.224 C 
BRANCH   9  10
HETATM   10  N   UNL     1      40.848 -11.328   9.485  1.00  0.00    -0.381 N 
HETATM   11  H   UNL     1      40.893 -12.299   9.168  1.00  0.00     0.160 HD
BRANCH  10  12
HETATM   12  C   UNL     1      41.994 -10.930  10.175  1.00  0.00     0.030 A 
HETATM   13  C   UNL     1      43.213 -10.903   9.475  1.00  0.00     0.065 A 
HETATM   14  C   UNL     1      44.420 -10.603  10.114  1.00  0.00     0.070 A 
HETATM   15  C   UNL     1      44.418 -10.347  11.485  1.00  0.00     0.037 A 
HETATM   16  C   UNL     1      43.227 -10.404  12.206  1.00  0.00     0.005 A 
HETATM   17  C   UNL     1      42.028 -10.707  11.556  1.00  0.00     0.029 A 
BRANCH  14  18
HETATM   18  O   UNL     1      45.653 -10.539   9.523  1.00  0.00    -0.356 OA
HETATM   19  C   UNL     1      46.063 -11.677   8.775  1.00  0.00     0.210 C 
ENDBRANCH  14  18
ENDBRANCH  10  12
ENDBRANCH   9  10
ENDBRANCH   6   9
ENDBRANCH   2   5
BRANCH   1  20
HETATM   20  C   UNL     1      42.017 -14.803   4.640  1.00  0.00     0.134 A 
HETATM   21  C   UNL     1      40.929 -14.803   3.791  1.00  0.00     0.089 A 
HETATM   22  S   UNL     1      40.918 -16.224   2.845  1.00  0.00    -0.079 SA
HETATM   23  C   UNL     1      42.348 -16.778   3.638  1.00  0.00     0.108 A 
HETATM   24  N   UNL     1      42.839 -15.926   4.524  1.00  0.00    -0.235 NA
BRANCH  23  25
HETATM   25  C   UNL     1      42.951 -18.094   3.335  1.00  0.00    -0.000 A 
HETATM   26  C   UNL     1      43.896 -18.720   4.163  1.00  0.00     0.015 A 
HETATM   27  C   UNL     1      44.460 -19.955   3.815  1.00  0.00     0.007 A 
HETATM   28  C   UNL     1      44.099 -20.591   2.625  1.00  0.00    -0.062 A 
HETATM   29  C   UNL     1      44.694 -21.915   2.248  1.00  0.00     0.048 C 
HETATM   30  C   UNL     1      43.151 -19.985   1.797  1.00  0.00     0.007 A 
HETATM   31  C   UNL     1      42.590 -18.752   2.146  1.00  0.00     0.015 A 
ENDBRANCH  23  25
ENDBRANCH   1  20
TORSDOF 7
ENDMDL
MODEL 4
REMARK VINA RESULT:      -8.8      2.060      2.612
REMARK  7 active torsions:
REMARK  status: ('A' for Active; 'I' for Inactive)
REMARK    1  A    between atoms: C_5  and  C_6 
REMARK    2  A    between atoms: C_9  and  C_10 
REMARK       I    between atoms: C_10  and  N_11 
REMARK    3  A    between atoms: N_11  and  N_12 
REMARK       I    between atoms: N_12  and  C_13 
REMARK    4  A    between atoms: C_13  and  C_14 
REMARK    5  A    between atoms: C_14  and  N_15 
REMARK    6  A    between atoms: N_15  and  C_16 
REMARK    7  A    between atoms: C_18  and  O_19 
ROOT
HETATM    1  C   UNL     1      44.005 -14.789   7.060  1.00  0.00     0.289 C 
HETATM    2  N   UNL     1      42.933 -14.071   6.561  1.00  0.00    -0.262 N 
HETATM    3  O   UNL     1      44.977 -14.257   7.593  1.00  0.00    -0.264 OA
HETATM    4  H   UNL     1      42.067 -14.571   6.363  1.00  0.00     0.190 HD
ENDROOT
BRANCH   2   5
HETATM    5  N   UNL     1      42.848 -12.705   6.881  1.00  0.00    -0.266 N 
HETATM    6  C   UNL     1      41.613 -12.092   6.751  1.00  0.00     0.253 C 
HETATM    7  O   UNL     1      40.664 -12.604   6.155  1.00  0.00    -0.270 OA
HETATM    8  H   UNL     1      43.495 -12.394   7.603  1.00  0.00     0.190 HD
BRANCH   6   9
HETATM    9  C   UNL     1      41.539 -10.696   7.382  1.00  0.00     0.224 C 
BRANCH   9  10
HETATM   10  N   UNL     1      41.092 -10.817   8.770  1.00  0.00    -0.381 N 
HETATM   11  H   UNL     1      40.454 -11.606   8.888  1.00  0.00     0.160 HD
BRANCH  10  12
HETATM   12  C   UNL     1      42.000 -10.691   9.823  1.00  0.00     0.030 A 
HETATM   13  C   UNL     1      41.491 -10.479  11.116  1.00  0.00     0.065 A 
HETATM   14  C   UNL     1      42.333 -10.254  12.208  1.00  0.00     0.070 A 
HETATM   15  C   UNL     1      43.712 -10.216  12.007  1.00  0.00     0.037 A 
HETATM   16  C   UNL     1      44.239 -10.388  10.729  1.00  0.00     0.005 A 
HETATM   17  C   UNL     1      43.385 -10.610   9.645  1.00  0.00     0.029 A 
BRANCH  14  18
HETATM   18  O   UNL     1      41.939 -10.050  13.503  1.00  0.00    -0.356 OA
HETATM   19  C   UNL     1      42.878  -9.421  14.366  1.00  0.00     0.210 C 
ENDBRANCH  14  18
ENDBRANCH  10  12
ENDBRANCH   9  10
ENDBRANCH   6   9
ENDBRANCH   2   5
BRANCH   1  20
HETATM   20  C   UNL     1      43.867 -16.234   6.884  1.00  0.00     0.134 A 
HETATM   21  C   UNL     1      43.693 -17.120   7.926  1.00  0.00     0.089 A 
HETATM   22  S   UNL     1      43.604 -18.719   7.333  1.00  0.00    -0.079 SA
HETATM   23  C   UNL     1      43.831 -18.146   5.720  1.00  0.00     0.108 A 
HETATM   24  N   UNL     1      43.916 -16.829   5.621  1.00  0.00    -0.235 NA
BRANCH  23  25
HETATM   25  C   UNL     1      43.919 -19.069   4.567  1.00  0.00    -0.000 A 
HETATM   26  C   UNL     1      43.323 -18.809   3.323  1.00  0.00     0.015 A 
HETATM   27  C   UNL     1      43.410 -19.730   2.271  1.00  0.00     0.007 A 
HETATM   28  C   UNL     1      44.089 -20.940   2.440  1.00  0.00    -0.062 A 
HETATM   29  C   UNL     1      44.192 -21.929   1.318  1.00  0.00     0.048 C 
HETATM   30  C   UNL     1      44.696 -21.206   3.670  1.00  0.00     0.007 A 
HETATM   31  C   UNL     1      44.607 -20.285   4.719  1.00  0.00     0.015 A 
ENDBRANCH  23  25
ENDBRANCH   1  20
TORSDOF 7
ENDMDL
MODEL 5
REMARK VINA RESULT:      -8.6      2.454      3.318
REMARK  7 active torsions:
REMARK  status: ('A' for Active; 'I' for Inactive)
REMARK    1  A    between atoms: C_5  and  C_6 
REMARK    2  A    between atoms: C_9  and  C_10 
REMARK       I    between atoms: C_10  and  N_11 
REMARK    3  A    between atoms: N_11  and  N_12 
REMARK       I    between atoms: N_12  and  C_13 
REMARK    4  A    between atoms: C_13  and  C_14 
REMARK    5  A    between atoms: C_14  and  N_15 
REMARK    6  A    between atoms: N_15  and  C_16 
REMARK    7  A    between atoms: C_18  and  O_19 
ROOT
HETATM    1  C   UNL     1      42.987 -14.006   5.565  1.00  0.00     0.289 C 
HETATM    2  N   UNL     1      41.903 -13.650   6.346  1.00  0.00    -0.262 N 
HETATM    3  O   UNL     1      43.541 -13.226   4.793  1.00  0.00    -0.264 OA
HETATM    4  H   UNL     1      41.653 -14.252   7.130  1.00  0.00     0.190 HD
ENDROOT
BRANCH   2   5
HETATM    5  N   UNL     1      41.570 -12.287   6.430  1.00  0.00    -0.266 N 
HETATM    6  C   UNL     1      40.255 -11.965   6.721  1.00  0.00     0.253 C 
HETATM    7  O   UNL     1      39.333 -12.781   6.673  1.00  0.00    -0.270 OA
HETATM    8  H   UNL     1      42.323 -11.683   6.753  1.00  0.00     0.190 HD
BRANCH   6   9
HETATM    9  C   UNL     1      40.036 -10.488   7.074  1.00  0.00     0.224 C 
BRANCH   9  10
HETATM   10  N   UNL     1      41.138 -10.025   7.917  1.00  0.00    -0.381 N 
HETATM   11  H   UNL     1      41.391  -9.059   7.702  1.00  0.00     0.160 HD
BRANCH  10  12
HETATM   12  C   UNL     1      41.148 -10.297   9.286  1.00  0.00     0.030 A 
HETATM   13  C   UNL     1      42.352 -10.733   9.867  1.00  0.00     0.065 A 
HETATM   14  C   UNL     1      42.423 -11.111  11.211  1.00  0.00     0.070 A 
HETATM   15  C   UNL     1      41.267 -11.077  11.989  1.00  0.00     0.037 A 
HETATM   16  C   UNL     1      40.055 -10.683  11.427  1.00  0.00     0.005 A 
HETATM   17  C   UNL     1      39.997 -10.310  10.081  1.00  0.00     0.029 A 
BRANCH  14  18
HETATM   18  O   UNL     1      43.544 -11.536  11.872  1.00  0.00    -0.356 OA
HETATM   19  C   UNL     1      44.378 -12.463  11.187  1.00  0.00     0.210 C 
ENDBRANCH  14  18
ENDBRANCH  10  12
ENDBRANCH   9  10
ENDBRANCH   6   9
ENDBRANCH   2   5
BRANCH   1  20
HETATM   20  C   UNL     1      43.398 -15.398   5.744  1.00  0.00     0.134 A 
HETATM   21  C   UNL     1      43.920 -15.898   6.920  1.00  0.00     0.089 A 
HETATM   22  S   UNL     1      44.310 -17.550   6.736  1.00  0.00    -0.079 SA
HETATM   23  C   UNL     1      43.789 -17.503   5.090  1.00  0.00     0.108 A 
HETATM   24  N   UNL     1      43.301 -16.333   4.711  1.00  0.00    -0.235 NA
BRANCH  23  25
HETATM   25  C   UNL     1      43.891 -18.683   4.204  1.00  0.00    -0.000 A 
HETATM   26  C   UNL     1      44.628 -19.832   4.531  1.00  0.00     0.015 A 
HETATM   27  C   UNL     1      44.718 -20.912   3.642  1.00  0.00     0.007 A 
HETATM   28  C   UNL     1      44.080 -20.866   2.401  1.00  0.00    -0.062 A 
HETATM   29  C   UNL     1      44.166 -22.020   1.446  1.00  0.00     0.048 C 
HETATM   30  C   UNL     1      43.334 -19.733   2.068  1.00  0.00     0.007 A 
HETATM   31  C   UNL     1      43.246 -18.656   2.956  1.00  0.00     0.015 A 
ENDBRANCH  23  25
ENDBRANCH   1  20
TORSDOF 7
ENDMDL
MODEL 6
REMARK VINA RESULT:      -8.4      2.246      2.965
REMARK  7 active torsions:
REMARK  status: ('A' for Active; 'I' for Inactive)
REMARK    1  A    between atoms: C_5  and  C_6 
REMARK    2  A    between atoms: C_9  and  C_10 
REMARK       I    between atoms: C_10  and  N_11 
REMARK    3  A    between atoms: N_11  and  N_12 
REMARK       I    between atoms: N_12  and  C_13 
REMARK    4  A    between atoms: C_13  and  C_14 
REMARK    5  A    between atoms: C_14  and  N_15 
REMARK    6  A    between atoms: N_15  and  C_16 
REMARK    7  A    between atoms: C_18  and  O_19 
ROOT
HETATM    1  C   UNL     1      42.356 -13.780   5.541  1.00  0.00     0.289 C 
HETATM    2  N   UNL     1      41.322 -12.871   5.675  1.00  0.00    -0.262 N 
HETATM    3  O   UNL     1      43.414 -13.686   6.161  1.00  0.00    -0.264 OA
HETATM    4  H   UNL     1      40.399 -13.136   5.333  1.00  0.00     0.190 HD
ENDROOT
BRANCH   2   5
HETATM    5  N   UNL     1      41.395 -11.939   6.724  1.00  0.00    -0.266 N 
HETATM    6  C   UNL     1      40.202 -11.486   7.262  1.00  0.00     0.253 C 
HETATM    7  O   UNL     1      39.107 -11.664   6.725  1.00  0.00    -0.270 OA
HETATM    8  H   UNL     1      42.217 -12.027   7.318  1.00  0.00     0.190 HD
BRANCH   6   9
HETATM    9  C   UNL     1      40.364 -10.703   8.572  1.00  0.00     0.224 C 
BRANCH   9  10
HETATM   10  N   UNL     1      41.756 -10.276   8.709  1.00  0.00    -0.381 N 
HETATM   11  H   UNL     1      41.934  -9.414   8.191  1.00  0.00     0.160 HD
BRANCH  10  12
HETATM   12  C   UNL     1      42.389 -10.301   9.953  1.00  0.00     0.030 A 
HETATM   13  C   UNL     1      41.674  -9.834  11.070  1.00  0.00     0.065 A 
HETATM   14  C   UNL     1      42.265  -9.743  12.334  1.00  0.00     0.070 A 
HETATM   15  C   UNL     1      43.604 -10.100  12.485  1.00  0.00     0.037 A 
HETATM   16  C   UNL     1      44.343 -10.532  11.386  1.00  0.00     0.005 A 
HETATM   17  C   UNL     1      43.741 -10.617  10.128  1.00  0.00     0.029 A 
BRANCH  14  18
HETATM   18  O   UNL     1      41.655  -9.314  13.481  1.00  0.00    -0.356 OA
HETATM   19  C   UNL     1      41.948 -10.036  14.671  1.00  0.00     0.210 C 
ENDBRANCH  14  18
ENDBRANCH  10  12
ENDBRANCH   9  10
ENDBRANCH   6   9
ENDBRANCH   2   5
BRANCH   1  20
HETATM   20  C   UNL     1      42.067 -14.852   4.590  1.00  0.00     0.134 A 
HETATM   21  C   UNL     1      40.975 -14.855   3.747  1.00  0.00     0.089 A 
HETATM   22  S   UNL     1      40.959 -16.282   2.809  1.00  0.00    -0.079 SA
HETATM   23  C   UNL     1      42.392 -16.833   3.599  1.00  0.00     0.108 A 
HETATM   24  N   UNL     1      42.888 -15.976   4.477  1.00  0.00    -0.235 NA
BRANCH  23  25
HETATM   25  C   UNL     1      42.992 -18.151   3.300  1.00  0.00    -0.000 A 
HETATM   26  C   UNL     1      43.921 -18.785   4.140  1.00  0.00     0.015 A 
HETATM   27  C   UNL     1      44.484 -20.021   3.797  1.00  0.00     0.007 A 
HETATM   28  C   UNL     1      44.138 -20.651   2.599  1.00  0.00    -0.062 A 
HETATM   29  C   UNL     1      44.731 -21.977   2.226  1.00  0.00     0.048 C 
HETATM   30  C   UNL     1      43.206 -20.037   1.758  1.00  0.00     0.007 A 
HETATM   31  C   UNL     1      42.646 -18.802   2.103  1.00  0.00     0.015 A 
ENDBRANCH  23  25
ENDBRANCH   1  20
TORSDOF 7
ENDMDL
MODEL 7
REMARK VINA RESULT:      -7.9      5.714      9.675
REMARK  7 active torsions:
REMARK  status: ('A' for Active; 'I' for Inactive)
REMARK    1  A    between atoms: C_5  and  C_6 
REMARK    2  A    between atoms: C_9  and  C_10 
REMARK       I    between atoms: C_10  and  N_11 
REMARK    3  A    between atoms: N_11  and  N_12 
REMARK       I    between atoms: N_12  and  C_13 
REMARK    4  A    between atoms: C_13  and  C_14 
REMARK    5  A    between atoms: C_14  and  N_15 
REMARK    6  A    between atoms: N_15  and  C_16 
REMARK    7  A    between atoms: C_18  and  O_19 
ROOT
HETATM    1  C   UNL     1      42.660 -13.472   3.952  1.00  0.00     0.289 C 
HETATM    2  N   UNL     1      42.692 -13.434   2.570  1.00  0.00    -0.262 N 
HETATM    3  O   UNL     1      42.385 -12.492   4.642  1.00  0.00    -0.264 OA
HETATM    4  H   UNL     1      42.681 -14.318   2.062  1.00  0.00     0.190 HD
ENDROOT
BRANCH   2   5
HETATM    5  N   UNL     1      42.169 -12.298   1.929  1.00  0.00    -0.266 N 
HETATM    6  C   UNL     1      40.855 -12.355   1.494  1.00  0.00     0.253 C 
HETATM    7  O   UNL     1      40.212 -13.404   1.422  1.00  0.00    -0.270 OA
HETATM    8  H   UNL     1      42.561 -11.412   2.242  1.00  0.00     0.190 HD
BRANCH   6   9
HETATM    9  C   UNL     1      40.278 -10.999   1.069  1.00  0.00     0.224 C 
BRANCH   9  10
HETATM   10  N   UNL     1      39.777 -11.096  -0.302  1.00  0.00    -0.381 N 
HETATM   11  H   UNL     1      39.148 -10.322  -0.525  1.00  0.00     0.160 HD
BRANCH  10  12
HETATM   12  C   UNL     1      40.638 -11.416  -1.353  1.00  0.00     0.030 A 
HETATM   13  C   UNL     1      40.436 -12.631  -2.031  1.00  0.00     0.065 A 
HETATM   14  C   UNL     1      41.307 -13.065  -3.034  1.00  0.00     0.070 A 
HETATM   15  C   UNL     1      42.417 -12.286  -3.355  1.00  0.00     0.037 A 
HETATM   16  C   UNL     1      42.659 -11.096  -2.672  1.00  0.00     0.005 A 
HETATM   17  C   UNL     1      41.781 -10.674  -1.670  1.00  0.00     0.029 A 
BRANCH  14  18
HETATM   18  O   UNL     1      41.192 -14.221  -3.758  1.00  0.00    -0.356 OA
HETATM   19  C   UNL     1      41.063 -15.429  -3.020  1.00  0.00     0.210 C 
ENDBRANCH  14  18
ENDBRANCH  10  12
ENDBRANCH   9  10
ENDBRANCH   6   9
ENDBRANCH   2   5
BRANCH   1  20
HETATM   20  C   UNL     1      42.990 -14.785   4.504  1.00  0.00     0.134 A 
HETATM   21  C   UNL     1      43.232 -15.015   5.842  1.00  0.00     0.089 A 
HETATM   22  S   UNL     1      43.614 -16.660   6.098  1.00  0.00    -0.079 SA
HETATM   23  C   UNL     1      43.464 -16.971   4.406  1.00  0.00     0.108 A 
HETATM   24  N   UNL     1      43.098 -15.918   3.694  1.00  0.00    -0.235 NA
BRANCH  23  25
HETATM   25  C   UNL     1      43.728 -18.307   3.830  1.00  0.00    -0.000 A 
HETATM   26  C   UNL     1      44.469 -19.300   4.491  1.00  0.00     0.015 A 
HETATM   27  C   UNL     1      44.717 -20.541   3.889  1.00  0.00     0.007 A 
HETATM   28  C   UNL     1      44.237 -20.817   2.607  1.00  0.00    -0.062 A 
HETATM   29  C   UNL     1      44.494 -22.144   1.957  1.00  0.00     0.048 C 
HETATM   30  C   UNL     1      43.490 -19.841   1.942  1.00  0.00     0.007 A 
HETATM   31  C   UNL     1      43.244 -18.603   2.545  1.00  0.00     0.015 A 
ENDBRANCH  23  25
ENDBRANCH   1  20
TORSDOF 7
ENDMDL
MODEL 8
REMARK VINA RESULT:      -7.9      3.273     10.920
REMARK  7 active torsions:
REMARK  status: ('A' for Active; 'I' for Inactive)
REMARK    1  A    between atoms: C_5  and  C_6 
REMARK    2  A    between atoms: C_9  and  C_10 
REMARK       I    between atoms: C_10  and  N_11 
REMARK    3  A    between atoms: N_11  and  N_12 
REMARK       I    between atoms: N_12  and  C_13 
REMARK    4  A    between atoms: C_13  and  C_14 
REMARK    5  A    between atoms: C_14  and  N_15 
REMARK    6  A    between atoms: N_15  and  C_16 
REMARK    7  A    between atoms: C_18  and  O_19 
ROOT
HETATM    1  C   UNL     1      41.616 -12.295   5.006  1.00  0.00     0.289 C 
HETATM    2  N   UNL     1      42.051 -13.488   5.553  1.00  0.00    -0.262 N 
HETATM    3  O   UNL     1      41.299 -12.176   3.824  1.00  0.00    -0.264 OA
HETATM    4  H   UNL     1      42.058 -13.581   6.569  1.00  0.00     0.190 HD
ENDROOT
BRANCH   2   5
HETATM    5  N   UNL     1      41.908 -14.656   4.786  1.00  0.00    -0.266 N 
HETATM    6  C   UNL     1      41.913 -15.869   5.456  1.00  0.00     0.253 C 
HETATM    7  O   UNL     1      42.270 -15.990   6.629  1.00  0.00    -0.270 OA
HETATM    8  H   UNL     1      41.351 -14.547   3.941  1.00  0.00     0.190 HD
BRANCH   6   9
HETATM    9  C   UNL     1      41.472 -17.060   4.597  1.00  0.00     0.224 C 
BRANCH   9  10
HETATM   10  N   UNL     1      42.429 -17.250   3.507  1.00  0.00    -0.381 N 
HETATM   11  H   UNL     1      43.113 -16.490   3.475  1.00  0.00     0.160 HD
BRANCH  10  12
HETATM   12  C   UNL     1      43.000 -18.502   3.272  1.00  0.00     0.030 A 
HETATM   13  C   UNL     1      43.771 -19.082   4.293  1.00  0.00     0.065 A 
HETATM   14  C   UNL     1      44.449 -20.291   4.105  1.00  0.00     0.070 A 
HETATM   15  C   UNL     1      44.378 -20.924   2.865  1.00  0.00     0.037 A 
HETATM   16  C   UNL     1      43.649 -20.350   1.826  1.00  0.00     0.005 A 
HETATM   17  C   UNL     1      42.978 -19.141   2.027  1.00  0.00     0.029 A 
BRANCH  14  18
HETATM   18  O   UNL     1      45.213 -20.941   5.035  1.00  0.00    -0.356 OA
HETATM   19  C   UNL     1      45.118 -22.360   5.063  1.00  0.00     0.210 C 
ENDBRANCH  14  18
ENDBRANCH  10  12
ENDBRANCH   9  10
ENDBRANCH   6   9
ENDBRANCH   2   5
BRANCH   1  20
HETATM   20  C   UNL     1      41.576 -11.196   5.970  1.00  0.00     0.134 A 
HETATM   21  C   UNL     1      41.149  -9.921   5.662  1.00  0.00     0.089 A 
HETATM   22  S   UNL     1      41.275  -8.909   7.032  1.00  0.00    -0.079 SA
HETATM   23  C   UNL     1      41.921 -10.218   7.955  1.00  0.00     0.108 A 
HETATM   24  N   UNL     1      41.989 -11.362   7.294  1.00  0.00    -0.235 NA
BRANCH  23  25
HETATM   25  C   UNL     1      42.351 -10.047   9.359  1.00  0.00    -0.000 A 
HETATM   26  C   UNL     1      43.469 -10.696   9.908  1.00  0.00     0.015 A 
HETATM   27  C   UNL     1      43.817 -10.524  11.254  1.00  0.00     0.007 A 
HETATM   28  C   UNL     1      43.052  -9.705  12.088  1.00  0.00    -0.062 A 
HETATM   29  C   UNL     1      43.420  -9.511  13.529  1.00  0.00     0.048 C 
HETATM   30  C   UNL     1      41.943  -9.046  11.552  1.00  0.00     0.007 A 
HETATM   31  C   UNL     1      41.596  -9.219  10.207  1.00  0.00     0.015 A 
ENDBRANCH  23  25
ENDBRANCH   1  20
TORSDOF 7
ENDMDL
MODEL 9
REMARK VINA RESULT:      -7.9      7.828     11.693
REMARK  7 active torsions:
REMARK  status: ('A' for Active; 'I' for Inactive)
REMARK    1  A    between atoms: C_5  and  C_6 
REMARK    2  A    between atoms: C_9  and  C_10 
REMARK       I    between atoms: C_10  and  N_11 
REMARK    3  A    between atoms: N_11  and  N_12 
REMARK       I    between atoms: N_12  and  C_13 
REMARK    4  A    between atoms: C_13  and  C_14 
REMARK    5  A    between atoms: C_14  and  N_15 
REMARK    6  A    between atoms: N_15  and  C_16 
REMARK    7  A    between atoms: C_18  and  O_19 
ROOT
HETATM    1  C   UNL     1      40.628 -14.984   0.394  1.00  0.00     0.289 C 
HETATM    2  N   UNL     1      40.932 -15.521  -0.844  1.00  0.00    -0.262 N 
HETATM    3  O   UNL     1      39.620 -14.312   0.603  1.00  0.00    -0.264 OA
HETATM    4  H   UNL     1      41.634 -16.259  -0.892  1.00  0.00     0.190 HD
ENDROOT
BRANCH   2   5
HETATM    5  N   UNL     1      39.940 -15.489  -1.838  1.00  0.00    -0.266 N 
HETATM    6  C   UNL     1      40.351 -15.572  -3.158  1.00  0.00     0.253 C 
HETATM    7  O   UNL     1      41.524 -15.432  -3.510  1.00  0.00    -0.270 OA
HETATM    8  H   UNL     1      39.044 -15.885  -1.561  1.00  0.00     0.190 HD
BRANCH   6   9
HETATM    9  C   UNL     1      39.211 -15.816  -4.155  1.00  0.00     0.224 C 
BRANCH   9  10
HETATM   10  N   UNL     1      37.932 -15.534  -3.502  1.00  0.00    -0.381 N 
HETATM   11  H   UNL     1      37.989 -15.682  -2.493  1.00  0.00     0.160 HD
BRANCH  10  12
HETATM   12  C   UNL     1      37.194 -14.400  -3.844  1.00  0.00     0.030 A 
HETATM   13  C   UNL     1      37.494 -13.192  -3.190  1.00  0.00     0.065 A 
HETATM   14  C   UNL     1      36.743 -12.033  -3.410  1.00  0.00     0.070 A 
HETATM   15  C   UNL     1      35.655 -12.083  -4.281  1.00  0.00     0.037 A 
HETATM   16  C   UNL     1      35.317 -13.277  -4.912  1.00  0.00     0.005 A 
HETATM   17  C   UNL     1      36.075 -14.429  -4.683  1.00  0.00     0.029 A 
BRANCH  14  18
HETATM   18  O   UNL     1      36.959 -10.810  -2.835  1.00  0.00    -0.356 OA
HETATM   19  C   UNL     1      36.039 -10.404  -1.829  1.00  0.00     0.210 C 
ENDBRANCH  14  18
ENDBRANCH  10  12
ENDBRANCH   9  10
ENDBRANCH   6   9
ENDBRANCH   2   5
BRANCH   1  20
HETATM   20  C   UNL     1      41.624 -15.291   1.419  1.00  0.00     0.134 A 
HETATM   21  C   UNL     1      42.378 -14.335   2.067  1.00  0.00     0.089 A 
HETATM   22  S   UNL     1      43.450 -15.076   3.170  1.00  0.00    -0.079 SA
HETATM   23  C   UNL     1      42.873 -16.635   2.703  1.00  0.00     0.108 A 
HETATM   24  N   UNL     1      41.895 -16.604   1.812  1.00  0.00    -0.235 NA
BRANCH  23  25
HETATM   25  C   UNL     1      43.438 -17.880   3.267  1.00  0.00    -0.000 A 
HETATM   26  C   UNL     1      43.880 -17.995   4.595  1.00  0.00     0.015 A 
HETATM   27  C   UNL     1      44.437 -19.188   5.073  1.00  0.00     0.007 A 
HETATM   28  C   UNL     1      44.574 -20.295   4.232  1.00  0.00    -0.062 A 
HETATM   29  C   UNL     1      45.164 -21.578   4.736  1.00  0.00     0.048 C 
HETATM   30  C   UNL     1      44.129 -20.198   2.911  1.00  0.00     0.007 A 
HETATM   31  C   UNL     1      43.574 -19.005   2.436  1.00  0.00     0.015 A 
ENDBRANCH  23  25
ENDBRANCH   1  20
TORSDOF 7
ENDMDL
MODEL 10
REMARK VINA RESULT:      -7.8      6.191     10.146
REMARK  7 active torsions:
REMARK  status: ('A' for Active; 'I' for Inactive)
REMARK    1  A    between atoms: C_5  and  C_6 
REMARK    2  A    between atoms: C_9  and  C_10 
REMARK       I    between atoms: C_10  and  N_11 
REMARK    3  A    between atoms: N_11  and  N_12 
REMARK       I    between atoms: N_12  and  C_13 
REMARK    4  A    between atoms: C_13  and  C_14 
REMARK    5  A    between atoms: C_14  and  N_15 
REMARK    6  A    between atoms: N_15  and  C_16 
REMARK    7  A    between atoms: C_18  and  O_19 
ROOT
HETATM    1  C   UNL     1      41.501 -12.849   3.258  1.00  0.00     0.289 C 
HETATM    2  N   UNL     1      42.242 -12.256   2.252  1.00  0.00    -0.262 N 
HETATM    3  O   UNL     1      40.402 -12.429   3.617  1.00  0.00    -0.264 OA
HETATM    4  H   UNL     1      43.010 -12.786   1.841  1.00  0.00     0.190 HD
ENDROOT
BRANCH   2   5
HETATM    5  N   UNL     1      41.616 -11.280   1.460  1.00  0.00    -0.266 N 
HETATM    6  C   UNL     1      42.035 -11.155   0.145  1.00  0.00     0.253 C 
HETATM    7  O   UNL     1      43.066 -11.673  -0.287  1.00  0.00    -0.270 OA
HETATM    8  H   UNL     1      40.646 -11.091   1.702  1.00  0.00     0.190 HD
BRANCH   6   9
HETATM    9  C   UNL     1      41.122 -10.279  -0.722  1.00  0.00     0.224 C 
BRANCH   9  10
HETATM   10  N   UNL     1      40.911 -10.933  -2.013  1.00  0.00    -0.381 N 
HETATM   11  H   UNL     1      41.786 -11.025  -2.532  1.00  0.00     0.160 HD
BRANCH  10  12
HETATM   12  C   UNL     1      40.100 -12.066  -2.112  1.00  0.00     0.030 A 
HETATM   13  C   UNL     1      40.494 -13.087  -2.994  1.00  0.00     0.065 A 
HETATM   14  C   UNL     1      39.694 -14.212  -3.218  1.00  0.00     0.070 A 
HETATM   15  C   UNL     1      38.464 -14.311  -2.569  1.00  0.00     0.037 A 
HETATM   16  C   UNL     1      38.036 -13.294  -1.719  1.00  0.00     0.005 A 
HETATM   17  C   UNL     1      38.845 -12.174  -1.505  1.00  0.00     0.029 A 
BRANCH  14  18
HETATM   18  O   UNL     1      39.990 -15.262  -4.044  1.00  0.00    -0.356 OA
HETATM   19  C   UNL     1      38.944 -16.191  -4.300  1.00  0.00     0.210 C 
ENDBRANCH  14  18
ENDBRANCH  10  12
ENDBRANCH   9  10
ENDBRANCH   6   9
ENDBRANCH   2   5
BRANCH   1  20
HETATM   20  C   UNL     1      42.155 -14.014   3.851  1.00  0.00     0.134 A 
HETATM   21  C   UNL     1      42.715 -14.021   5.112  1.00  0.00     0.089 A 
HETATM   22  S   UNL     1      43.410 -15.546   5.440  1.00  0.00    -0.079 SA
HETATM   23  C   UNL     1      42.952 -16.107   3.873  1.00  0.00     0.108 A 
HETATM   24  N   UNL     1      42.271 -15.223   3.161  1.00  0.00    -0.235 NA
BRANCH  23  25
HETATM   25  C   UNL     1      43.303 -17.461   3.393  1.00  0.00    -0.000 A 
HETATM   26  C   UNL     1      42.960 -17.942   2.120  1.00  0.00     0.015 A 
HETATM   27  C   UNL     1      43.290 -19.245   1.724  1.00  0.00     0.007 A 
HETATM   28  C   UNL     1      43.964 -20.103   2.596  1.00  0.00    -0.062 A 
HETATM   29  C   UNL     1      44.325 -21.498   2.179  1.00  0.00     0.048 C 
HETATM   30  C   UNL     1      44.321 -19.634   3.862  1.00  0.00     0.007 A 
HETATM   31  C   UNL     1      43.990 -18.332   4.256  1.00  0.00     0.015 A 
ENDBRANCH  23  25
ENDBRANCH   1  20
TORSDOF 7
ENDMDL
