MODEL 1
REMARK VINA RESULT:      -9.3      0.000      0.000
REMARK  7 active torsions:
REMARK  status: ('A' for Active; 'I' for Inactive)
REMARK    1  A    between atoms: C_4  and  N_5 
REMARK       I    between atoms: N_5  and  C_6 
REMARK    2  A    between atoms: C_6  and  C_7 
REMARK    3  A    between atoms: C_7  and  N_8 
REMARK    4  A    between atoms: N_8  and  C_9 
REMARK    5  A    between atoms: C_10  and  C_11 
REMARK    6  A    between atoms: C_16  and  N_17 
REMARK       I    between atoms: N_17  and  C_18 
REMARK    7  A    between atoms: C_18  and  C_19 
ROOT
HETATM    1  C   UNL     1      42.172 -15.394   3.826  1.00  0.00     0.024 A 
HETATM    2  C   UNL     1      41.961 -15.976   5.095  1.00  0.00     0.071 A 
HETATM    3  C   UNL     1      42.446 -15.344   6.266  1.00  0.00     0.047 A 
HETATM    4  C   UNL     1      43.150 -14.145   6.203  1.00  0.00     0.035 A 
HETATM    5  C   UNL     1      43.383 -13.584   4.952  1.00  0.00     0.031 A 
HETATM    6  C   UNL     1      42.920 -14.209   3.786  1.00  0.00     0.026 A 
ENDROOT
BRANCH   1   7
HETATM    7  N   UNL     1      41.803 -16.077   2.664  1.00  0.00    -0.284 NA
HETATM    8  H   UNL     1      40.840 -15.870   2.376  1.00  0.00     0.128 HD
BRANCH   7   9
HETATM    9  C   UNL     1      42.667 -16.128   1.460  1.00  0.00     0.195 C 
BRANCH   9  10
HETATM   10  C   UNL     1      43.606 -17.345   1.529  1.00  0.00     0.235 C 
HETATM   11  N   UNL     1      43.001 -18.420   2.155  1.00  0.00    -0.326 N 
HETATM   12  H   UNL     1      42.030 -18.244   2.410  1.00  0.00     0.169 HD
HETATM   13  O   UNL     1      44.757 -17.284   1.106  1.00  0.00    -0.272 OA
BRANCH  11  14
HETATM   14  C   UNL     1      43.536 -19.681   2.462  1.00  0.00     0.035 A 
HETATM   15  C   UNL     1      44.038 -20.027   3.717  1.00  0.00     0.036 A 
HETATM   16  C   UNL     1      44.543 -21.317   3.957  1.00  0.00    -0.060 A 
HETATM   17  C   UNL     1      45.107 -21.671   5.301  1.00  0.00     0.048 C 
HETATM   18  C   UNL     1      44.565 -22.249   2.914  1.00  0.00     0.007 A 
HETATM   19  C   UNL     1      44.067 -21.909   1.659  1.00  0.00     0.003 A 
HETATM   20  C   UNL     1      43.552 -20.632   1.435  1.00  0.00     0.029 A 
ENDBRANCH  11  14
ENDBRANCH   9  10
ENDBRANCH   7   9
ENDBRANCH   1   7
BRANCH   2  21
HETATM   21  C   UNL     1      41.264 -17.306   5.266  1.00  0.00     0.419 C 
HETATM   22  F   UNL     1      40.627 -17.730   4.132  1.00  0.00    -0.166 F 
HETATM   23  F   UNL     1      42.124 -18.308   5.598  1.00  0.00    -0.166 F 
HETATM   24  F   UNL     1      40.304 -17.298   6.233  1.00  0.00    -0.166 F 
ENDBRANCH   2  21
BRANCH   4  25
HETATM   25  N   UNL     1      43.657 -13.463   7.321  1.00  0.00    -0.321 N 
HETATM   26  C   UNL     1      44.977 -13.192   7.641  1.00  0.00     0.279 C 
HETATM   27  O   UNL     1      45.950 -13.500   6.961  1.00  0.00    -0.265 OA
HETATM   28  H   UNL     1      42.985 -13.112   7.995  1.00  0.00     0.169 HD
BRANCH  26  29
HETATM   29  C   UNL     1      45.108 -12.481   8.901  1.00  0.00     0.142 A 
HETATM   30  O   UNL     1      44.530 -13.000  10.033  1.00  0.00    -0.317 OA
HETATM   31  C   UNL     1      44.812 -12.148  11.053  1.00  0.00     0.143 A 
HETATM   32  C   UNL     1      45.561 -11.086  10.602  1.00  0.00     0.027 A 
HETATM   33  C   UNL     1      45.751 -11.298   9.215  1.00  0.00     0.045 A 
ENDBRANCH  26  29
ENDBRANCH   4  25
TORSDOF 7
ENDMDL
MODEL 2
REMARK VINA RESULT:      -9.3      2.705      9.638
REMARK  7 active torsions:
REMARK  status: ('A' for Active; 'I' for Inactive)
REMARK    1  A    between atoms: C_4  and  N_5 
REMARK       I    between atoms: N_5  and  C_6 
REMARK    2  A    between atoms: C_6  and  C_7 
REMARK    3  A    between atoms: C_7  and  N_8 
REMARK    4  A    between atoms: N_8  and  C_9 
REMARK    5  A    between atoms: C_10  and  C_11 
REMARK    6  A    between atoms: C_16  and  N_17 
REMARK       I    between atoms: N_17  and  C_18 
REMARK    7  A    between atoms: C_18  and  C_19 
ROOT
HETATM    1  C   UNL     1      43.785 -14.785   6.841  1.00  0.00     0.024 A 
HETATM    2  C   UNL     1      42.956 -14.867   5.700  1.00  0.00     0.071 A 
HETATM    3  C   UNL     1      42.945 -16.037   4.902  1.00  0.00     0.047 A 
HETATM    4  C   UNL     1      43.752 -17.129   5.207  1.00  0.00     0.035 A 
HETATM    5  C   UNL     1      44.589 -17.040   6.314  1.00  0.00     0.031 A 
HETATM    6  C   UNL     1      44.618 -15.882   7.102  1.00  0.00     0.026 A 
ENDROOT
BRANCH   1   7
HETATM    7  N   UNL     1      43.888 -13.588   7.556  1.00  0.00    -0.284 NA
HETATM    8  H   UNL     1      43.202 -13.525   8.316  1.00  0.00     0.128 HD
BRANCH   7   9
HETATM    9  C   UNL     1      45.187 -13.053   8.031  1.00  0.00     0.195 C 
BRANCH   9  10
HETATM   10  C   UNL     1      44.960 -11.816   8.919  1.00  0.00     0.235 C 
HETATM   11  N   UNL     1      43.723 -11.853   9.536  1.00  0.00    -0.326 N 
HETATM   12  H   UNL     1      43.202 -12.707   9.345  1.00  0.00     0.169 HD
HETATM   13  O   UNL     1      45.797 -10.920   8.986  1.00  0.00    -0.272 OA
BRANCH  11  14
HETATM   14  C   UNL     1      43.122 -10.898  10.371  1.00  0.00     0.035 A 
HETATM   15  C   UNL     1      43.574 -10.595  11.657  1.00  0.00     0.036 A 
HETATM   16  C   UNL     1      42.932  -9.612  12.429  1.00  0.00    -0.060 A 
HETATM   17  C   UNL     1      43.406  -9.314  13.821  1.00  0.00     0.048 C 
HETATM   18  C   UNL     1      41.812  -8.954  11.909  1.00  0.00     0.007 A 
HETATM   19  C   UNL     1      41.356  -9.252  10.627  1.00  0.00     0.003 A 
HETATM   20  C   UNL     1      42.010 -10.217   9.861  1.00  0.00     0.029 A 
ENDBRANCH  11  14
ENDBRANCH   9  10
ENDBRANCH   7   9
ENDBRANCH   1   7
BRANCH   2  21
HETATM   21  C   UNL     1      42.092 -13.713   5.248  1.00  0.00     0.419 C 
HETATM   22  F   UNL     1      42.813 -12.643   4.794  1.00  0.00    -0.166 F 
HETATM   23  F   UNL     1      41.260 -14.054   4.224  1.00  0.00    -0.166 F 
HETATM   24  F   UNL     1      41.292 -13.213   6.232  1.00  0.00    -0.166 F 
ENDBRANCH   2  21
BRANCH   4  25
HETATM   25  N   UNL     1      43.790 -18.320   4.463  1.00  0.00    -0.321 N 
HETATM   26  C   UNL     1      43.991 -18.480   3.102  1.00  0.00     0.279 C 
HETATM   27  O   UNL     1      44.195 -17.573   2.303  1.00  0.00    -0.265 OA
HETATM   28  H   UNL     1      43.658 -19.189   4.970  1.00  0.00     0.169 HD
BRANCH  26  29
HETATM   29  C   UNL     1      43.939 -19.873   2.694  1.00  0.00     0.142 A 
HETATM   30  O   UNL     1      44.767 -20.786   3.300  1.00  0.00    -0.317 OA
HETATM   31  C   UNL     1      44.507 -21.996   2.740  1.00  0.00     0.143 A 
HETATM   32  C   UNL     1      43.529 -21.883   1.780  1.00  0.00     0.027 A 
HETATM   33  C   UNL     1      43.163 -20.516   1.747  1.00  0.00     0.045 A 
ENDBRANCH  26  29
ENDBRANCH   4  25
TORSDOF 7
ENDMDL
MODEL 3
REMARK VINA RESULT:      -8.9      2.820      5.022
REMARK  7 active torsions:
REMARK  status: ('A' for Active; 'I' for Inactive)
REMARK    1  A    between atoms: C_4  and  N_5 
REMARK       I    between atoms: N_5  and  C_6 
REMARK    2  A    between atoms: C_6  and  C_7 
REMARK    3  A    between atoms: C_7  and  N_8 
REMARK    4  A    between atoms: N_8  and  C_9 
REMARK    5  A    between atoms: C_10  and  C_11 
REMARK    6  A    between atoms: C_16  and  N_17 
REMARK       I    between atoms: N_17  and  C_18 
REMARK    7  A    between atoms: C_18  and  C_19 
ROOT
HETATM    1  C   UNL     1      43.185 -16.441   4.078  1.00  0.00     0.024 A 
HETATM    2  C   UNL     1      43.641 -17.041   5.273  1.00  0.00     0.071 A 
HETATM    3  C   UNL     1      43.941 -16.247   6.407  1.00  0.00     0.047 A 
HETATM    4  C   UNL     1      43.809 -14.862   6.377  1.00  0.00     0.035 A 
HETATM    5  C   UNL     1      43.387 -14.267   5.192  1.00  0.00     0.031 A 
HETATM    6  C   UNL     1      43.102 -15.042   4.060  1.00  0.00     0.026 A 
ENDROOT
BRANCH   1   7
HETATM    7  N   UNL     1      43.008 -17.209   2.924  1.00  0.00    -0.284 NA
HETATM    8  H   UNL     1      42.117 -17.718   2.924  1.00  0.00     0.128 HD
BRANCH   7   9
HETATM    9  C   UNL     1      43.259 -16.675   1.563  1.00  0.00     0.195 C 
BRANCH   9  10
HETATM   10  C   UNL     1      41.944 -16.606   0.767  1.00  0.00     0.235 C 
HETATM   11  N   UNL     1      41.991 -15.627  -0.209  1.00  0.00    -0.326 N 
HETATM   12  H   UNL     1      42.895 -15.162  -0.271  1.00  0.00     0.169 HD
HETATM   13  O   UNL     1      40.991 -17.327   1.049  1.00  0.00    -0.272 OA
BRANCH  11  14
HETATM   14  C   UNL     1      40.986 -15.216  -1.098  1.00  0.00     0.035 A 
HETATM   15  C   UNL     1      39.980 -14.305  -0.769  1.00  0.00     0.036 A 
HETATM   16  C   UNL     1      39.017 -13.926  -1.719  1.00  0.00    -0.060 A 
HETATM   17  C   UNL     1      37.922 -12.969  -1.346  1.00  0.00     0.048 C 
HETATM   18  C   UNL     1      39.054 -14.492  -2.997  1.00  0.00     0.007 A 
HETATM   19  C   UNL     1      40.053 -15.403  -3.333  1.00  0.00     0.003 A 
HETATM   20  C   UNL     1      41.017 -15.760  -2.388  1.00  0.00     0.029 A 
ENDBRANCH  11  14
ENDBRANCH   9  10
ENDBRANCH   7   9
ENDBRANCH   1   7
BRANCH   2  21
HETATM   21  C   UNL     1      43.877 -18.529   5.388  1.00  0.00     0.419 C 
HETATM   22  F   UNL     1      44.277 -18.916   6.638  1.00  0.00    -0.166 F 
HETATM   23  F   UNL     1      42.759 -19.258   5.119  1.00  0.00    -0.166 F 
HETATM   24  F   UNL     1      44.841 -18.995   4.544  1.00  0.00    -0.166 F 
ENDBRANCH   2  21
BRANCH   4  25
HETATM   25  N   UNL     1      44.086 -14.015   7.462  1.00  0.00    -0.321 N 
HETATM   26  C   UNL     1      45.227 -13.268   7.704  1.00  0.00     0.279 C 
HETATM   27  O   UNL     1      46.207 -13.211   6.969  1.00  0.00    -0.265 OA
HETATM   28  H   UNL     1      43.368 -13.920   8.173  1.00  0.00     0.169 HD
BRANCH  26  29
HETATM   29  C   UNL     1      45.152 -12.529   8.952  1.00  0.00     0.142 A 
HETATM   30  O   UNL     1      44.465 -13.064  10.014  1.00  0.00    -0.317 OA
HETATM   31  C   UNL     1      44.562 -12.179  11.040  1.00  0.00     0.143 A 
HETATM   32  C   UNL     1      45.298 -11.080  10.662  1.00  0.00     0.027 A 
HETATM   33  C   UNL     1      45.678 -11.303   9.317  1.00  0.00     0.045 A 
ENDBRANCH  26  29
ENDBRANCH   4  25
TORSDOF 7
ENDMDL
MODEL 4
REMARK VINA RESULT:      -8.8      3.719      7.538
REMARK  7 active torsions:
REMARK  status: ('A' for Active; 'I' for Inactive)
REMARK    1  A    between atoms: C_4  and  N_5 
REMARK       I    between atoms: N_5  and  C_6 
REMARK    2  A    between atoms: C_6  and  C_7 
REMARK    3  A    between atoms: C_7  and  N_8 
REMARK    4  A    between atoms: N_8  and  C_9 
REMARK    5  A    between atoms: C_10  and  C_11 
REMARK    6  A    between atoms: C_16  and  N_17 
REMARK       I    between atoms: N_17  and  C_18 
REMARK    7  A    between atoms: C_18  and  C_19 
ROOT
HETATM    1  C   UNL     1      42.691 -15.618   3.345  1.00  0.00     0.024 A 
HETATM    2  C   UNL     1      41.484 -14.889   3.255  1.00  0.00     0.071 A 
HETATM    3  C   UNL     1      40.745 -14.869   2.047  1.00  0.00     0.047 A 
HETATM    4  C   UNL     1      41.187 -15.549   0.916  1.00  0.00     0.035 A 
HETATM    5  C   UNL     1      42.389 -16.244   0.994  1.00  0.00     0.031 A 
HETATM    6  C   UNL     1      43.135 -16.260   2.180  1.00  0.00     0.026 A 
ENDROOT
BRANCH   1   7
HETATM    7  N   UNL     1      43.481 -15.539   4.495  1.00  0.00    -0.284 NA
HETATM    8  H   UNL     1      43.638 -14.571   4.798  1.00  0.00     0.128 HD
BRANCH   7   9
HETATM    9  C   UNL     1      43.239 -16.385   5.689  1.00  0.00     0.195 C 
BRANCH   9  10
HETATM   10  C   UNL     1      42.956 -17.837   5.265  1.00  0.00     0.235 C 
HETATM   11  N   UNL     1      44.124 -18.517   4.970  1.00  0.00    -0.326 N 
HETATM   12  H   UNL     1      44.965 -17.966   5.134  1.00  0.00     0.169 HD
HETATM   13  O   UNL     1      41.808 -18.260   5.173  1.00  0.00    -0.272 OA
BRANCH  11  14
HETATM   14  C   UNL     1      44.288 -19.829   4.497  1.00  0.00     0.035 A 
HETATM   15  C   UNL     1      44.155 -20.195   3.157  1.00  0.00     0.036 A 
HETATM   16  C   UNL     1      44.352 -21.526   2.754  1.00  0.00    -0.060 A 
HETATM   17  C   UNL     1      44.178 -21.915   1.315  1.00  0.00     0.048 C 
HETATM   18  C   UNL     1      44.656 -22.496   3.715  1.00  0.00     0.007 A 
HETATM   19  C   UNL     1      44.789 -22.138   5.055  1.00  0.00     0.003 A 
HETATM   20  C   UNL     1      44.609 -20.810   5.443  1.00  0.00     0.029 A 
ENDBRANCH  11  14
ENDBRANCH   9  10
ENDBRANCH   7   9
ENDBRANCH   1   7
BRANCH   2  21
HETATM   21  C   UNL     1      40.953 -14.067   4.405  1.00  0.00     0.419 C 
HETATM   22  F   UNL     1      39.892 -13.276   4.058  1.00  0.00    -0.166 F 
HETATM   23  F   UNL     1      40.511 -14.838   5.438  1.00  0.00    -0.166 F 
HETATM   24  F   UNL     1      41.874 -13.216   4.939  1.00  0.00    -0.166 F 
ENDBRANCH   2  21
BRANCH   4  25
HETATM   25  N   UNL     1      40.505 -15.573  -0.312  1.00  0.00    -0.321 N 
HETATM   26  C   UNL     1      40.712 -14.781  -1.428  1.00  0.00     0.279 C 
HETATM   27  O   UNL     1      41.571 -13.912  -1.533  1.00  0.00    -0.265 OA
HETATM   28  H   UNL     1      39.762 -16.255  -0.417  1.00  0.00     0.169 HD
BRANCH  26  29
HETATM   29  C   UNL     1      39.787 -15.088  -2.506  1.00  0.00     0.142 A 
HETATM   30  O   UNL     1      40.064 -16.128  -3.358  1.00  0.00    -0.317 OA
HETATM   31  C   UNL     1      39.043 -16.196  -4.252  1.00  0.00     0.143 A 
HETATM   32  C   UNL     1      38.112 -15.217  -3.996  1.00  0.00     0.027 A 
HETATM   33  C   UNL     1      38.590 -14.501  -2.872  1.00  0.00     0.045 A 
ENDBRANCH  26  29
ENDBRANCH   4  25
TORSDOF 7
ENDMDL
MODEL 5
REMARK VINA RESULT:      -8.5      3.679      7.513
REMARK  7 active torsions:
REMARK  status: ('A' for Active; 'I' for Inactive)
REMARK    1  A    between atoms: C_4  and  N_5 
REMARK       I    between atoms: N_5  and  C_6 
REMARK    2  A    between atoms: C_6  and  C_7 
REMARK    3  A    between atoms: C_7  and  N_8 
REMARK    4  A    between atoms: N_8  and  C_9 
REMARK    5  A    between atoms: C_10  and  C_11 
REMARK    6  A    between atoms: C_16  and  N_17 
REMARK       I    between atoms: N_17  and  C_18 
REMARK    7  A    between atoms: C_18  and  C_19 
ROOT
HETATM    1  C   UNL     1      42.299 -15.009   3.440  1.00  0.00     0.024 A 
HETATM    2  C   UNL     1      41.014 -14.435   3.318  1.00  0.00     0.071 A 
HETATM    3  C   UNL     1      40.307 -14.507   2.093  1.00  0.00     0.047 A 
HETATM    4  C   UNL     1      40.856 -15.130   0.976  1.00  0.00     0.035 A 
HETATM    5  C   UNL     1      42.133 -15.672   1.086  1.00  0.00     0.031 A 
HETATM    6  C   UNL     1      42.847 -15.593   2.289  1.00  0.00     0.026 A 
ENDROOT
BRANCH   1   7
HETATM    7  N   UNL     1      43.046 -14.831   4.607  1.00  0.00    -0.284 NA
HETATM    8  H   UNL     1      43.038 -13.858   4.934  1.00  0.00     0.128 HD
BRANCH   7   9
HETATM    9  C   UNL     1      42.925 -15.734   5.778  1.00  0.00     0.195 C 
BRANCH   9  10
HETATM   10  C   UNL     1      42.714 -17.185   5.311  1.00  0.00     0.235 C 
HETATM   11  N   UNL     1      43.885 -17.739   4.827  1.00  0.00    -0.326 N 
HETATM   12  H   UNL     1      44.689 -17.119   4.911  1.00  0.00     0.169 HD
HETATM   13  O   UNL     1      41.604 -17.709   5.347  1.00  0.00    -0.272 OA
BRANCH  11  14
HETATM   14  C   UNL     1      44.096 -19.006   4.262  1.00  0.00     0.035 A 
HETATM   15  C   UNL     1      44.568 -20.108   4.978  1.00  0.00     0.036 A 
HETATM   16  C   UNL     1      44.738 -21.353   4.348  1.00  0.00    -0.060 A 
HETATM   17  C   UNL     1      45.273 -22.524   5.119  1.00  0.00     0.048 C 
HETATM   18  C   UNL     1      44.458 -21.475   2.983  1.00  0.00     0.007 A 
HETATM   19  C   UNL     1      43.989 -20.380   2.262  1.00  0.00     0.003 A 
HETATM   20  C   UNL     1      43.806 -19.152   2.900  1.00  0.00     0.029 A 
ENDBRANCH  11  14
ENDBRANCH   9  10
ENDBRANCH   7   9
ENDBRANCH   1   7
BRANCH   2  21
HETATM   21  C   UNL     1      40.358 -13.682   4.452  1.00  0.00     0.419 C 
HETATM   22  F   UNL     1      39.237 -12.998   4.068  1.00  0.00    -0.166 F 
HETATM   23  F   UNL     1      39.957 -14.504   5.461  1.00  0.00    -0.166 F 
HETATM   24  F   UNL     1      41.167 -12.748   5.027  1.00  0.00    -0.166 F 
ENDBRANCH   2  21
BRANCH   4  25
HETATM   25  N   UNL     1      40.212 -15.240  -0.267  1.00  0.00    -0.321 N 
HETATM   26  C   UNL     1      40.382 -14.461  -1.399  1.00  0.00     0.279 C 
HETATM   27  O   UNL     1      41.168 -13.526  -1.505  1.00  0.00    -0.265 OA
HETATM   28  H   UNL     1      39.530 -15.985  -0.373  1.00  0.00     0.169 HD
BRANCH  26  29
HETATM   29  C   UNL     1      39.515 -14.869  -2.490  1.00  0.00     0.142 A 
HETATM   30  O   UNL     1      39.952 -15.819  -3.380  1.00  0.00    -0.317 OA
HETATM   31  C   UNL     1      38.953 -16.014  -4.280  1.00  0.00     0.143 A 
HETATM   32  C   UNL     1      37.878 -15.206  -3.990  1.00  0.00     0.027 A 
HETATM   33  C   UNL     1      38.239 -14.467  -2.839  1.00  0.00     0.045 A 
ENDBRANCH  26  29
ENDBRANCH   4  25
TORSDOF 7
ENDMDL
MODEL 6
REMARK VINA RESULT:      -8.5      2.248      2.938
REMARK  7 active torsions:
REMARK  status: ('A' for Active; 'I' for Inactive)
REMARK    1  A    between atoms: C_4  and  N_5 
REMARK       I    between atoms: N_5  and  C_6 
REMARK    2  A    between atoms: C_6  and  C_7 
REMARK    3  A    between atoms: C_7  and  N_8 
REMARK    4  A    between atoms: N_8  and  C_9 
REMARK    5  A    between atoms: C_10  and  C_11 
REMARK    6  A    between atoms: C_16  and  N_17 
REMARK       I    between atoms: N_17  and  C_18 
REMARK    7  A    between atoms: C_18  and  C_19 
ROOT
HETATM    1  C   UNL     1      41.180 -14.865   3.588  1.00  0.00     0.024 A 
HETATM    2  C   UNL     1      41.503 -13.490   3.541  1.00  0.00     0.071 A 
HETATM    3  C   UNL     1      42.113 -12.856   4.651  1.00  0.00     0.047 A 
HETATM    4  C   UNL     1      42.399 -13.558   5.818  1.00  0.00     0.035 A 
HETATM    5  C   UNL     1      42.056 -14.905   5.877  1.00  0.00     0.031 A 
HETATM    6  C   UNL     1      41.440 -15.538   4.790  1.00  0.00     0.026 A 
ENDROOT
BRANCH   1   7
HETATM    7  N   UNL     1      40.469 -15.460   2.543  1.00  0.00    -0.284 NA
HETATM    8  H   UNL     1      39.607 -14.952   2.315  1.00  0.00     0.128 HD
BRANCH   7   9
HETATM    9  C   UNL     1      41.119 -15.899   1.284  1.00  0.00     0.195 C 
BRANCH   9  10
HETATM   10  C   UNL     1      42.393 -16.703   1.594  1.00  0.00     0.235 C 
HETATM   11  N   UNL     1      42.099 -17.901   2.220  1.00  0.00    -0.326 N 
HETATM   12  H   UNL     1      41.099 -18.070   2.319  1.00  0.00     0.169 HD
HETATM   13  O   UNL     1      43.506 -16.255   1.335  1.00  0.00    -0.272 OA
BRANCH  11  14
HETATM   14  C   UNL     1      42.976 -18.881   2.711  1.00  0.00     0.035 A 
HETATM   15  C   UNL     1      43.331 -20.032   2.005  1.00  0.00     0.036 A 
HETATM   16  C   UNL     1      44.230 -20.961   2.554  1.00  0.00    -0.060 A 
HETATM   17  C   UNL     1      44.582 -22.209   1.799  1.00  0.00     0.048 C 
HETATM   18  C   UNL     1      44.749 -20.740   3.834  1.00  0.00     0.007 A 
HETATM   19  C   UNL     1      44.398 -19.595   4.545  1.00  0.00     0.003 A 
HETATM   20  C   UNL     1      43.518 -18.668   3.984  1.00  0.00     0.029 A 
ENDBRANCH  11  14
ENDBRANCH   9  10
ENDBRANCH   7   9
ENDBRANCH   1   7
BRANCH   2  21
HETATM   21  C   UNL     1      41.176 -12.627   2.345  1.00  0.00     0.419 C 
HETATM   22  F   UNL     1      41.980 -12.873   1.266  1.00  0.00    -0.166 F 
HETATM   23  F   UNL     1      39.902 -12.810   1.901  1.00  0.00    -0.166 F 
HETATM   24  F   UNL     1      41.302 -11.291   2.586  1.00  0.00    -0.166 F 
ENDBRANCH   2  21
BRANCH   4  25
HETATM   25  N   UNL     1      43.003 -12.995   6.954  1.00  0.00    -0.321 N 
HETATM   26  C   UNL     1      44.282 -13.201   7.443  1.00  0.00     0.279 C 
HETATM   27  O   UNL     1      45.131 -13.922   6.930  1.00  0.00    -0.265 OA
HETATM   28  H   UNL     1      42.447 -12.346   7.502  1.00  0.00     0.169 HD
BRANCH  26  29
HETATM   29  C   UNL     1      44.537 -12.455   8.664  1.00  0.00     0.142 A 
HETATM   30  O   UNL     1      45.557 -12.848   9.494  1.00  0.00    -0.317 OA
HETATM   31  C   UNL     1      45.577 -11.983  10.541  1.00  0.00     0.143 A 
HETATM   32  C   UNL     1      44.587 -11.038  10.405  1.00  0.00     0.027 A 
HETATM   33  C   UNL     1      43.915 -11.342   9.197  1.00  0.00     0.045 A 
ENDBRANCH  26  29
ENDBRANCH   4  25
TORSDOF 7
ENDMDL
MODEL 7
REMARK VINA RESULT:      -8.4      3.134      3.314
REMARK  7 active torsions:
REMARK  status: ('A' for Active; 'I' for Inactive)
REMARK    1  A    between atoms: C_4  and  N_5 
REMARK       I    between atoms: N_5  and  C_6 
REMARK    2  A    between atoms: C_6  and  C_7 
REMARK    3  A    between atoms: C_7  and  N_8 
REMARK    4  A    between atoms: N_8  and  C_9 
REMARK    5  A    between atoms: C_10  and  C_11 
REMARK    6  A    between atoms: C_16  and  N_17 
REMARK       I    between atoms: N_17  and  C_18 
REMARK    7  A    between atoms: C_18  and  C_19 
ROOT
HETATM    1  C   UNL     1      40.763 -15.595   3.563  1.00  0.00     0.024 A 
HETATM    2  C   UNL     1      41.000 -15.790   4.942  1.00  0.00     0.071 A 
HETATM    3  C   UNL     1      40.643 -14.793   5.881  1.00  0.00     0.047 A 
HETATM    4  C   UNL     1      40.063 -13.593   5.479  1.00  0.00     0.035 A 
HETATM    5  C   UNL     1      39.854 -13.387   4.119  1.00  0.00     0.031 A 
HETATM    6  C   UNL     1      40.217 -14.362   3.180  1.00  0.00     0.026 A 
ENDROOT
BRANCH   1   7
HETATM    7  N   UNL     1      41.226 -16.524   2.627  1.00  0.00    -0.284 NA
HETATM    8  H   UNL     1      40.464 -16.954   2.091  1.00  0.00     0.128 HD
BRANCH   7   9
HETATM    9  C   UNL     1      42.359 -16.239   1.714  1.00  0.00     0.195 C 
BRANCH   9  10
HETATM   10  C   UNL     1      43.373 -17.395   1.746  1.00  0.00     0.235 C 
HETATM   11  N   UNL     1      42.827 -18.536   2.305  1.00  0.00    -0.326 N 
HETATM   12  H   UNL     1      41.842 -18.435   2.547  1.00  0.00     0.169 HD
HETATM   13  O   UNL     1      44.526 -17.241   1.352  1.00  0.00    -0.272 OA
BRANCH  11  14
HETATM   14  C   UNL     1      43.436 -19.774   2.564  1.00  0.00     0.035 A 
HETATM   15  C   UNL     1      43.950 -20.142   3.809  1.00  0.00     0.036 A 
HETATM   16  C   UNL     1      44.531 -21.408   3.998  1.00  0.00    -0.060 A 
HETATM   17  C   UNL     1      45.107 -21.784   5.331  1.00  0.00     0.048 C 
HETATM   18  C   UNL     1      44.619 -22.291   2.917  1.00  0.00     0.007 A 
HETATM   19  C   UNL     1      44.109 -21.929   1.672  1.00  0.00     0.003 A 
HETATM   20  C   UNL     1      43.518 -20.677   1.498  1.00  0.00     0.029 A 
ENDBRANCH  11  14
ENDBRANCH   9  10
ENDBRANCH   7   9
ENDBRANCH   1   7
BRANCH   2  21
HETATM   21  C   UNL     1      41.681 -17.029   5.474  1.00  0.00     0.419 C 
HETATM   22  F   UNL     1      41.128 -18.191   5.008  1.00  0.00    -0.166 F 
HETATM   23  F   UNL     1      42.998 -17.089   5.134  1.00  0.00    -0.166 F 
HETATM   24  F   UNL     1      41.639 -17.134   6.833  1.00  0.00    -0.166 F 
ENDBRANCH   2  21
BRANCH   4  25
HETATM   25  N   UNL     1      39.683 -12.562   6.354  1.00  0.00    -0.321 N 
HETATM   26  C   UNL     1      40.387 -11.423   6.702  1.00  0.00     0.279 C 
HETATM   27  O   UNL     1      41.491 -11.110   6.268  1.00  0.00    -0.265 OA
HETATM   28  H   UNL     1      38.774 -12.642   6.799  1.00  0.00     0.169 HD
BRANCH  26  29
HETATM   29  C   UNL     1      39.672 -10.598   7.661  1.00  0.00     0.142 A 
HETATM   30  O   UNL     1      39.254 -11.151   8.846  1.00  0.00    -0.317 OA
HETATM   31  C   UNL     1      38.629 -10.169   9.546  1.00  0.00     0.143 A 
HETATM   32  C   UNL     1      38.632  -8.992   8.836  1.00  0.00     0.027 A 
HETATM   33  C   UNL     1      39.303  -9.267   7.620  1.00  0.00     0.045 A 
ENDBRANCH  26  29
ENDBRANCH   4  25
TORSDOF 7
ENDMDL
MODEL 8
REMARK VINA RESULT:      -8.3      2.990      8.862
REMARK  7 active torsions:
REMARK  status: ('A' for Active; 'I' for Inactive)
REMARK    1  A    between atoms: C_4  and  N_5 
REMARK       I    between atoms: N_5  and  C_6 
REMARK    2  A    between atoms: C_6  and  C_7 
REMARK    3  A    between atoms: C_7  and  N_8 
REMARK    4  A    between atoms: N_8  and  C_9 
REMARK    5  A    between atoms: C_10  and  C_11 
REMARK    6  A    between atoms: C_16  and  N_17 
REMARK       I    between atoms: N_17  and  C_18 
REMARK    7  A    between atoms: C_18  and  C_19 
ROOT
HETATM    1  C   UNL     1      41.798 -12.818   4.615  1.00  0.00     0.024 A 
HETATM    2  C   UNL     1      41.014 -13.506   3.663  1.00  0.00     0.071 A 
HETATM    3  C   UNL     1      41.369 -14.813   3.248  1.00  0.00     0.047 A 
HETATM    4  C   UNL     1      42.500 -15.450   3.750  1.00  0.00     0.035 A 
HETATM    5  C   UNL     1      43.289 -14.763   4.667  1.00  0.00     0.031 A 
HETATM    6  C   UNL     1      42.954 -13.465   5.074  1.00  0.00     0.026 A 
ENDROOT
BRANCH   1   7
HETATM    7  N   UNL     1      41.519 -11.486   4.932  1.00  0.00    -0.284 NA
HETATM    8  H   UNL     1      41.119 -10.969   4.141  1.00  0.00     0.128 HD
BRANCH   7   9
HETATM    9  C   UNL     1      40.807 -11.094   6.173  1.00  0.00     0.195 C 
BRANCH   9  10
HETATM   10  C   UNL     1      41.792 -10.470   7.178  1.00  0.00     0.235 C 
HETATM   11  N   UNL     1      42.366 -11.430   7.991  1.00  0.00    -0.326 N 
HETATM   12  H   UNL     1      42.085 -12.381   7.753  1.00  0.00     0.169 HD
HETATM   13  O   UNL     1      41.963  -9.255   7.230  1.00  0.00    -0.272 OA
BRANCH  11  14
HETATM   14  C   UNL     1      43.262 -11.265   9.059  1.00  0.00     0.035 A 
HETATM   15  C   UNL     1      42.935 -10.627  10.256  1.00  0.00     0.036 A 
HETATM   16  C   UNL     1      43.880 -10.514  11.290  1.00  0.00    -0.060 A 
HETATM   17  C   UNL     1      43.528  -9.801  12.563  1.00  0.00     0.048 C 
HETATM   18  C   UNL     1      45.169 -11.023  11.100  1.00  0.00     0.007 A 
HETATM   19  C   UNL     1      45.503 -11.659   9.907  1.00  0.00     0.003 A 
HETATM   20  C   UNL     1      44.552 -11.782   8.892  1.00  0.00     0.029 A 
ENDBRANCH  11  14
ENDBRANCH   9  10
ENDBRANCH   7   9
ENDBRANCH   1   7
BRANCH   2  21
HETATM   21  C   UNL     1      39.805 -12.878   3.011  1.00  0.00     0.419 C 
HETATM   22  F   UNL     1      38.867 -12.452   3.911  1.00  0.00    -0.166 F 
HETATM   23  F   UNL     1      40.122 -11.782   2.267  1.00  0.00    -0.166 F 
HETATM   24  F   UNL     1      39.138 -13.721   2.172  1.00  0.00    -0.166 F 
ENDBRANCH   2  21
BRANCH   4  25
HETATM   25  N   UNL     1      42.910 -16.743   3.385  1.00  0.00    -0.321 N 
HETATM   26  C   UNL     1      42.674 -17.940   4.039  1.00  0.00     0.279 C 
HETATM   27  O   UNL     1      42.025 -18.069   5.071  1.00  0.00    -0.265 OA
HETATM   28  H   UNL     1      43.450 -16.834   2.531  1.00  0.00     0.169 HD
BRANCH  26  29
HETATM   29  C   UNL     1      43.283 -19.072   3.363  1.00  0.00     0.142 A 
HETATM   30  O   UNL     1      44.234 -19.817   4.017  1.00  0.00    -0.317 OA
HETATM   31  C   UNL     1      44.623 -20.803   3.168  1.00  0.00     0.143 A 
HETATM   32  C   UNL     1      43.945 -20.709   1.975  1.00  0.00     0.027 A 
HETATM   33  C   UNL     1      43.083 -19.594   2.098  1.00  0.00     0.045 A 
ENDBRANCH  26  29
ENDBRANCH   4  25
TORSDOF 7
ENDMDL
MODEL 9
REMARK VINA RESULT:      -8.2      3.100      9.675
REMARK  7 active torsions:
REMARK  status: ('A' for Active; 'I' for Inactive)
REMARK    1  A    between atoms: C_4  and  N_5 
REMARK       I    between atoms: N_5  and  C_6 
REMARK    2  A    between atoms: C_6  and  C_7 
REMARK    3  A    between atoms: C_7  and  N_8 
REMARK    4  A    between atoms: N_8  and  C_9 
REMARK    5  A    between atoms: C_10  and  C_11 
REMARK    6  A    between atoms: C_16  and  N_17 
REMARK       I    between atoms: N_17  and  C_18 
REMARK    7  A    between atoms: C_18  and  C_19 
ROOT
HETATM    1  C   UNL     1      43.520 -14.595   6.699  1.00  0.00     0.024 A 
HETATM    2  C   UNL     1      42.668 -15.014   5.653  1.00  0.00     0.071 A 
HETATM    3  C   UNL     1      42.816 -16.299   5.076  1.00  0.00     0.047 A 
HETATM    4  C   UNL     1      43.806 -17.177   5.508  1.00  0.00     0.035 A 
HETATM    5  C   UNL     1      44.664 -16.755   6.519  1.00  0.00     0.031 A 
HETATM    6  C   UNL     1      44.534 -15.481   7.087  1.00  0.00     0.026 A 
ENDROOT
BRANCH   1   7
HETATM    7  N   UNL     1      43.454 -13.286   7.183  1.00  0.00    -0.284 NA
HETATM    8  H   UNL     1      42.488 -12.964   7.317  1.00  0.00     0.128 HD
BRANCH   7   9
HETATM    9  C   UNL     1      44.282 -12.812   8.318  1.00  0.00     0.195 C 
BRANCH   9  10
HETATM   10  C   UNL     1      43.568 -11.667   9.058  1.00  0.00     0.235 C 
HETATM   11  N   UNL     1      43.351 -11.979  10.388  1.00  0.00    -0.326 N 
HETATM   12  H   UNL     1      43.744 -12.878  10.662  1.00  0.00     0.169 HD
HETATM   13  O   UNL     1      43.218 -10.650   8.468  1.00  0.00    -0.272 OA
BRANCH  11  14
HETATM   14  C   UNL     1      42.687 -11.233  11.375  1.00  0.00     0.035 A 
HETATM   15  C   UNL     1      41.332 -10.900  11.318  1.00  0.00     0.036 A 
HETATM   16  C   UNL     1      40.731 -10.164  12.353  1.00  0.00    -0.060 A 
HETATM   17  C   UNL     1      39.281  -9.786  12.269  1.00  0.00     0.048 C 
HETATM   18  C   UNL     1      41.509  -9.739  13.435  1.00  0.00     0.007 A 
HETATM   19  C   UNL     1      42.862 -10.066  13.497  1.00  0.00     0.003 A 
HETATM   20  C   UNL     1      43.446 -10.812  12.473  1.00  0.00     0.029 A 
ENDBRANCH  11  14
ENDBRANCH   9  10
ENDBRANCH   7   9
ENDBRANCH   1   7
BRANCH   2  21
HETATM   21  C   UNL     1      41.605 -14.113   5.070  1.00  0.00     0.419 C 
HETATM   22  F   UNL     1      42.114 -12.981   4.494  1.00  0.00    -0.166 F 
HETATM   23  F   UNL     1      40.879 -14.725   4.093  1.00  0.00    -0.166 F 
HETATM   24  F   UNL     1      40.701 -13.670   5.989  1.00  0.00    -0.166 F 
ENDBRANCH   2  21
BRANCH   4  25
HETATM   25  N   UNL     1      44.009 -18.464   4.983  1.00  0.00    -0.321 N 
HETATM   26  C   UNL     1      44.128 -19.664   5.663  1.00  0.00     0.279 C 
HETATM   27  O   UNL     1      44.052 -19.801   6.879  1.00  0.00    -0.265 OA
HETATM   28  H   UNL     1      44.077 -18.548   3.974  1.00  0.00     0.169 HD
BRANCH  26  29
HETATM   29  C   UNL     1      44.356 -20.787   4.771  1.00  0.00     0.142 A 
HETATM   30  O   UNL     1      44.350 -20.584   3.413  1.00  0.00    -0.317 OA
HETATM   31  C   UNL     1      44.594 -21.785   2.828  1.00  0.00     0.143 A 
HETATM   32  C   UNL     1      44.755 -22.763   3.780  1.00  0.00     0.027 A 
HETATM   33  C   UNL     1      44.601 -22.123   5.033  1.00  0.00     0.045 A 
ENDBRANCH  26  29
ENDBRANCH   4  25
TORSDOF 7
ENDMDL
MODEL 10
REMARK VINA RESULT:      -8.1      4.622      7.187
REMARK  7 active torsions:
REMARK  status: ('A' for Active; 'I' for Inactive)
REMARK    1  A    between atoms: C_4  and  N_5 
REMARK       I    between atoms: N_5  and  C_6 
REMARK    2  A    between atoms: C_6  and  C_7 
REMARK    3  A    between atoms: C_7  and  N_8 
REMARK    4  A    between atoms: N_8  and  C_9 
REMARK    5  A    between atoms: C_10  and  C_11 
REMARK    6  A    between atoms: C_16  and  N_17 
REMARK       I    between atoms: N_17  and  C_18 
REMARK    7  A    between atoms: C_18  and  C_19 
ROOT
HETATM    1  C   UNL     1      42.269 -14.657   2.586  1.00  0.00     0.024 A 
HETATM    2  C   UNL     1      41.586 -15.252   1.502  1.00  0.00     0.071 A 
HETATM    3  C   UNL     1      40.493 -14.591   0.891  1.00  0.00     0.047 A 
HETATM    4  C   UNL     1      40.052 -13.351   1.343  1.00  0.00     0.035 A 
HETATM    5  C   UNL     1      40.705 -12.776   2.428  1.00  0.00     0.031 A 
HETATM    6  C   UNL     1      41.779 -13.427   3.049  1.00  0.00     0.026 A 
ENDROOT
BRANCH   1   7
HETATM    7  N   UNL     1      43.266 -15.361   3.267  1.00  0.00    -0.284 NA
HETATM    8  H   UNL     1      44.192 -14.933   3.160  1.00  0.00     0.128 HD
BRANCH   7   9
HETATM    9  C   UNL     1      43.104 -15.818   4.668  1.00  0.00     0.195 C 
BRANCH   9  10
HETATM   10  C   UNL     1      42.946 -17.348   4.716  1.00  0.00     0.235 C 
HETATM   11  N   UNL     1      44.022 -17.989   4.130  1.00  0.00    -0.326 N 
HETATM   12  H   UNL     1      44.753 -17.350   3.821  1.00  0.00     0.169 HD
HETATM   13  O   UNL     1      41.938 -17.869   5.185  1.00  0.00    -0.272 OA
BRANCH  11  14
HETATM   14  C   UNL     1      44.229 -19.362   3.924  1.00  0.00     0.035 A 
HETATM   15  C   UNL     1      44.019 -20.006   2.704  1.00  0.00     0.036 A 
HETATM   16  C   UNL     1      44.265 -21.383   2.567  1.00  0.00    -0.060 A 
HETATM   17  C   UNL     1      44.008 -22.071   1.259  1.00  0.00     0.048 C 
HETATM   18  C   UNL     1      44.697 -22.116   3.678  1.00  0.00     0.007 A 
HETATM   19  C   UNL     1      44.907 -21.480   4.899  1.00  0.00     0.003 A 
HETATM   20  C   UNL     1      44.677 -20.109   5.020  1.00  0.00     0.029 A 
ENDBRANCH  11  14
ENDBRANCH   9  10
ENDBRANCH   7   9
ENDBRANCH   1   7
BRANCH   2  21
HETATM   21  C   UNL     1      41.946 -16.622   0.979  1.00  0.00     0.419 C 
HETATM   22  F   UNL     1      41.370 -16.907  -0.229  1.00  0.00    -0.166 F 
HETATM   23  F   UNL     1      43.287 -16.774   0.789  1.00  0.00    -0.166 F 
HETATM   24  F   UNL     1      41.566 -17.639   1.804  1.00  0.00    -0.166 F 
ENDBRANCH   2  21
BRANCH   4  25
HETATM   25  N   UNL     1      38.977 -12.639   0.784  1.00  0.00    -0.321 N 
HETATM   26  C   UNL     1      37.664 -13.045   0.626  1.00  0.00     0.279 C 
HETATM   27  O   UNL     1      37.207 -14.127   0.980  1.00  0.00    -0.265 OA
HETATM   28  H   UNL     1      39.166 -11.700   0.449  1.00  0.00     0.169 HD
BRANCH  26  29
HETATM   29  C   UNL     1      36.844 -12.034  -0.020  1.00  0.00     0.142 A 
HETATM   30  O   UNL     1      37.245 -11.508  -1.223  1.00  0.00    -0.317 OA
HETATM   31  C   UNL     1      36.302 -10.604  -1.598  1.00  0.00     0.143 A 
HETATM   32  C   UNL     1      35.300 -10.534  -0.659  1.00  0.00     0.027 A 
HETATM   33  C   UNL     1      35.648 -11.454   0.359  1.00  0.00     0.045 A 
ENDBRANCH  26  29
ENDBRANCH   4  25
TORSDOF 7
ENDMDL
