MODEL 1
REMARK VINA RESULT:      -8.6      0.000      0.000
REMARK  6 active torsions:
REMARK  status: ('A' for Active; 'I' for Inactive)
REMARK    1  A    between atoms: C_3  and  C_4 
REMARK    2  A    between atoms: C_4  and  N_5 
REMARK    3  A    between atoms: N_5  and  C_8 
REMARK    4  A    between atoms: C_8  and  C_9 
REMARK    5  A    between atoms: N_12  and  C_13 
REMARK    6  A    between atoms: C_28  and  O_29 
ROOT
HETATM    1  N   UNL     1      42.782 -13.451   3.552  1.00  0.00    -0.062 N 
HETATM    2  H   UNL     1      43.511 -13.639   2.856  1.00  0.00     0.278 HD
HETATM    3  H   UNL     1      43.175 -12.782   4.223  1.00  0.00     0.278 HD
ENDROOT
BRANCH   1   4
HETATM    4  C   UNL     1      41.668 -12.765   2.861  1.00  0.00     0.290 C 
BRANCH   4   5
HETATM    5  C   UNL     1      41.468 -13.245   1.465  1.00  0.00     0.042 A 
HETATM    6  C   UNL     1      40.785 -14.313   0.879  1.00  0.00    -0.025 A 
HETATM    7  C   UNL     1      39.966 -15.378   1.530  1.00  0.00     0.051 C 
HETATM    8  C   UNL     1      41.018 -14.239  -0.537  1.00  0.00     0.001 A 
HETATM    9  C   UNL     1      41.818 -13.130  -0.776  1.00  0.00     0.043 A 
HETATM   10  C   UNL     1      40.621 -15.022  -1.642  1.00  0.00     0.051 A 
HETATM   11  N   UNL     1      42.068 -12.542   0.436  1.00  0.00    -0.357 N 
HETATM   12  C   UNL     1      42.239 -12.761  -2.059  1.00  0.00     0.033 A 
HETATM   13  H   UNL     1      42.631 -11.707   0.534  1.00  0.00     0.166 HD
HETATM   14  C   UNL     1      41.833 -13.559  -3.136  1.00  0.00     0.039 A 
HETATM   15  C   UNL     1      41.032 -14.681  -2.938  1.00  0.00     0.069 A 
BRANCH  15  16
HETATM   16  O   UNL     1      40.581 -15.530  -3.911  1.00  0.00    -0.356 OA
HETATM   17  C   UNL     1      39.175 -15.732  -3.994  1.00  0.00     0.210 C 
ENDBRANCH  15  16
ENDBRANCH   4   5
ENDBRANCH   1   4
BRANCH   1  18
HETATM   18  C   UNL     1      42.431 -14.710   4.282  1.00  0.00     0.218 C 
HETATM   19  C   UNL     1      42.918 -14.563   5.724  1.00  0.00     0.045 C 
BRANCH  18  20
HETATM   20  C   UNL     1      42.984 -15.930   3.622  1.00  0.00     0.015 C 
HETATM   21  C   UNL     1      42.755 -17.270   3.927  1.00  0.00     0.042 C 
HETATM   22  C   UNL     1      41.833 -17.852   4.942  1.00  0.00     0.071 C 
HETATM   23  N   UNL     1      43.549 -18.023   3.050  1.00  0.00    -0.238 N 
HETATM   24  N   UNL     1      44.083 -17.209   2.101  1.00  0.00    -0.179 NA
HETATM   25  C   UNL     1      43.840 -15.974   2.507  1.00  0.00     0.150 C 
BRANCH  23  26
HETATM   26  C   UNL     1      43.843 -19.419   3.010  1.00  0.00     0.058 A 
HETATM   27  C   UNL     1      43.451 -20.159   1.881  1.00  0.00     0.031 A 
HETATM   28  C   UNL     1      43.721 -21.527   1.795  1.00  0.00     0.002 A 
HETATM   29  C   UNL     1      44.402 -22.168   2.825  1.00  0.00     0.000 A 
HETATM   30  C   UNL     1      44.819 -21.440   3.937  1.00  0.00     0.002 A 
HETATM   31  C   UNL     1      44.547 -20.070   4.030  1.00  0.00     0.031 A 
ENDBRANCH  23  26
ENDBRANCH  18  20
ENDBRANCH   1  18
TORSDOF 6
ENDMDL
MODEL 2
REMARK VINA RESULT:      -8.4      1.763      2.833
REMARK  6 active torsions:
REMARK  status: ('A' for Active; 'I' for Inactive)
REMARK    1  A    between atoms: C_3  and  C_4 
REMARK    2  A    between atoms: C_4  and  N_5 
REMARK    3  A    between atoms: N_5  and  C_8 
REMARK    4  A    between atoms: C_8  and  C_9 
REMARK    5  A    between atoms: N_12  and  C_13 
REMARK    6  A    between atoms: C_28  and  O_29 
ROOT
HETATM    1  N   UNL     1      41.558 -13.792   1.990  1.00  0.00    -0.062 N 
HETATM    2  H   UNL     1      42.413 -13.973   2.526  1.00  0.00     0.278 HD
HETATM    3  H   UNL     1      41.073 -13.018   2.455  1.00  0.00     0.278 HD
ENDROOT
BRANCH   1   4
HETATM    4  C   UNL     1      41.963 -13.307   0.652  1.00  0.00     0.290 C 
BRANCH   4   5
HETATM    5  C   UNL     1      41.017 -13.714  -0.424  1.00  0.00     0.042 A 
HETATM    6  C   UNL     1      39.732 -13.324  -0.805  1.00  0.00    -0.025 A 
HETATM    7  C   UNL     1      38.849 -12.279  -0.208  1.00  0.00     0.051 C 
HETATM    8  C   UNL     1      39.354 -14.144  -1.923  1.00  0.00     0.001 A 
HETATM    9  C   UNL     1      40.415 -14.996  -2.199  1.00  0.00     0.043 A 
HETATM   10  C   UNL     1      38.197 -14.242  -2.726  1.00  0.00     0.051 A 
HETATM   11  N   UNL     1      41.406 -14.715  -1.296  1.00  0.00    -0.357 N 
HETATM   12  C   UNL     1      40.382 -15.936  -3.236  1.00  0.00     0.033 A 
HETATM   13  H   UNL     1      42.293 -15.202  -1.287  1.00  0.00     0.166 HD
HETATM   14  C   UNL     1      39.220 -16.013  -4.014  1.00  0.00     0.039 A 
HETATM   15  C   UNL     1      38.133 -15.178  -3.767  1.00  0.00     0.069 A 
BRANCH  15  16
HETATM   16  O   UNL     1      36.952 -15.168  -4.458  1.00  0.00    -0.356 OA
HETATM   17  C   UNL     1      36.268 -13.925  -4.554  1.00  0.00     0.210 C 
ENDBRANCH  15  16
ENDBRANCH   4   5
ENDBRANCH   1   4
BRANCH   1  18
HETATM   18  C   UNL     1      40.670 -14.997   2.015  1.00  0.00     0.218 C 
HETATM   19  C   UNL     1      39.386 -14.613   2.749  1.00  0.00     0.045 C 
BRANCH  18  20
HETATM   20  C   UNL     1      41.334 -16.187   2.626  1.00  0.00     0.015 C 
HETATM   21  C   UNL     1      42.245 -17.072   2.053  1.00  0.00     0.042 C 
HETATM   22  C   UNL     1      42.866 -17.026   0.700  1.00  0.00     0.071 C 
HETATM   23  N   UNL     1      42.525 -18.044   3.023  1.00  0.00    -0.238 N 
HETATM   24  N   UNL     1      41.989 -17.672   4.215  1.00  0.00    -0.179 NA
HETATM   25  C   UNL     1      41.201 -16.643   3.951  1.00  0.00     0.150 C 
BRANCH  23  26
HETATM   26  C   UNL     1      43.249 -19.272   2.944  1.00  0.00     0.058 A 
HETATM   27  C   UNL     1      44.139 -19.599   3.982  1.00  0.00     0.031 A 
HETATM   28  C   UNL     1      44.866 -20.792   3.951  1.00  0.00     0.002 A 
HETATM   29  C   UNL     1      44.700 -21.679   2.892  1.00  0.00     0.000 A 
HETATM   30  C   UNL     1      43.802 -21.379   1.871  1.00  0.00     0.002 A 
HETATM   31  C   UNL     1      43.074 -20.183   1.896  1.00  0.00     0.031 A 
ENDBRANCH  23  26
ENDBRANCH  18  20
ENDBRANCH   1  18
TORSDOF 6
ENDMDL
MODEL 3
REMARK VINA RESULT:      -8.1      5.402      8.601
REMARK  6 active torsions:
REMARK  status: ('A' for Active; 'I' for Inactive)
REMARK    1  A    between atoms: C_3  and  C_4 
REMARK    2  A    between atoms: C_4  and  N_5 
REMARK    3  A    between atoms: N_5  and  C_8 
REMARK    4  A    between atoms: C_8  and  C_9 
REMARK    5  A    between atoms: N_12  and  C_13 
REMARK    6  A    between atoms: C_28  and  O_29 
ROOT
HETATM    1  N   UNL     1      43.955 -14.787   7.588  1.00  0.00    -0.062 N 
HETATM    2  H   UNL     1      44.456 -15.539   8.072  1.00  0.00     0.278 HD
HETATM    3  H   UNL     1      43.110 -14.591   8.134  1.00  0.00     0.278 HD
ENDROOT
BRANCH   1   4
HETATM    4  C   UNL     1      44.800 -13.574   7.648  1.00  0.00     0.290 C 
BRANCH   4   5
HETATM    5  C   UNL     1      44.193 -12.482   8.458  1.00  0.00     0.042 A 
HETATM    6  C   UNL     1      44.457 -11.921   9.709  1.00  0.00    -0.025 A 
HETATM    7  C   UNL     1      45.530 -12.263  10.688  1.00  0.00     0.051 C 
HETATM    8  C   UNL     1      43.465 -10.906   9.936  1.00  0.00     0.001 A 
HETATM    9  C   UNL     1      42.637 -10.867   8.822  1.00  0.00     0.043 A 
HETATM   10  C   UNL     1      43.192 -10.015  10.997  1.00  0.00     0.051 A 
HETATM   11  N   UNL     1      43.097 -11.812   7.943  1.00  0.00    -0.357 N 
HETATM   12  C   UNL     1      41.556  -9.984   8.710  1.00  0.00     0.033 A 
HETATM   13  H   UNL     1      42.664 -11.982   7.045  1.00  0.00     0.166 HD
HETATM   14  C   UNL     1      41.308  -9.115   9.779  1.00  0.00     0.039 A 
HETATM   15  C   UNL     1      42.113  -9.125  10.916  1.00  0.00     0.069 A 
BRANCH  15  16
HETATM   16  O   UNL     1      41.961  -8.326  12.016  1.00  0.00    -0.356 OA
HETATM   17  C   UNL     1      40.644  -8.178  12.534  1.00  0.00     0.210 C 
ENDBRANCH  15  16
ENDBRANCH   4   5
ENDBRANCH   1   4
BRANCH   1  18
HETATM   18  C   UNL     1      43.546 -15.239   6.220  1.00  0.00     0.218 C 
HETATM   19  C   UNL     1      42.024 -15.121   6.128  1.00  0.00     0.045 C 
BRANCH  18  20
HETATM   20  C   UNL     1      44.024 -16.618   5.905  1.00  0.00     0.015 C 
HETATM   21  C   UNL     1      43.864 -17.353   4.731  1.00  0.00     0.042 C 
HETATM   22  C   UNL     1      43.243 -16.932   3.444  1.00  0.00     0.071 C 
HETATM   23  N   UNL     1      44.448 -18.606   4.959  1.00  0.00    -0.238 N 
HETATM   24  N   UNL     1      45.130 -18.589   6.135  1.00  0.00    -0.179 NA
HETATM   25  C   UNL     1      44.785 -17.461   6.735  1.00  0.00     0.150 C 
BRANCH  23  26
HETATM   26  C   UNL     1      44.437 -19.805   4.184  1.00  0.00     0.058 A 
HETATM   27  C   UNL     1      44.743 -21.022   4.819  1.00  0.00     0.031 A 
HETATM   28  C   UNL     1      44.741 -22.221   4.102  1.00  0.00     0.002 A 
HETATM   29  C   UNL     1      44.417 -22.222   2.749  1.00  0.00     0.000 A 
HETATM   30  C   UNL     1      44.086 -21.027   2.115  1.00  0.00     0.002 A 
HETATM   31  C   UNL     1      44.091 -19.822   2.828  1.00  0.00     0.031 A 
ENDBRANCH  23  26
ENDBRANCH  18  20
ENDBRANCH   1  18
TORSDOF 6
ENDMDL
MODEL 4
REMARK VINA RESULT:      -8.0      2.399      6.729
REMARK  6 active torsions:
REMARK  status: ('A' for Active; 'I' for Inactive)
REMARK    1  A    between atoms: C_3  and  C_4 
REMARK    2  A    between atoms: C_4  and  N_5 
REMARK    3  A    between atoms: N_5  and  C_8 
REMARK    4  A    between atoms: C_8  and  C_9 
REMARK    5  A    between atoms: N_12  and  C_13 
REMARK    6  A    between atoms: C_28  and  O_29 
ROOT
HETATM    1  N   UNL     1      39.818 -14.768   4.927  1.00  0.00    -0.062 N 
HETATM    2  H   UNL     1      39.651 -15.314   4.077  1.00  0.00     0.278 HD
HETATM    3  H   UNL     1      38.905 -14.603   5.361  1.00  0.00     0.278 HD
ENDROOT
BRANCH   1   4
HETATM    4  C   UNL     1      40.594 -15.616   5.859  1.00  0.00     0.290 C 
BRANCH   4   5
HETATM    5  C   UNL     1      41.419 -16.641   5.161  1.00  0.00     0.042 A 
HETATM    6  C   UNL     1      42.394 -17.558   5.559  1.00  0.00    -0.025 A 
HETATM    7  C   UNL     1      42.938 -17.822   6.924  1.00  0.00     0.051 C 
HETATM    8  C   UNL     1      42.838 -18.245   4.377  1.00  0.00     0.001 A 
HETATM    9  C   UNL     1      42.118 -17.742   3.301  1.00  0.00     0.043 A 
HETATM   10  C   UNL     1      43.794 -19.251   4.124  1.00  0.00     0.051 A 
HETATM   11  N   UNL     1      41.266 -16.789   3.794  1.00  0.00    -0.357 N 
HETATM   12  C   UNL     1      42.301 -18.194   1.989  1.00  0.00     0.033 A 
HETATM   13  H   UNL     1      40.625 -16.270   3.207  1.00  0.00     0.166 HD
HETATM   14  C   UNL     1      43.260 -19.190   1.767  1.00  0.00     0.039 A 
HETATM   15  C   UNL     1      44.004 -19.718   2.819  1.00  0.00     0.069 A 
BRANCH  15  16
HETATM   16  O   UNL     1      44.964 -20.688   2.718  1.00  0.00    -0.356 OA
HETATM   17  C   UNL     1      44.576 -21.927   2.137  1.00  0.00     0.210 C 
ENDBRANCH  15  16
ENDBRANCH   4   5
ENDBRANCH   1   4
BRANCH   1  18
HETATM   18  C   UNL     1      40.427 -13.445   4.577  1.00  0.00     0.218 C 
HETATM   19  C   UNL     1      39.356 -12.373   4.777  1.00  0.00     0.045 C 
BRANCH  18  20
HETATM   20  C   UNL     1      40.995 -13.422   3.197  1.00  0.00     0.015 C 
HETATM   21  C   UNL     1      40.389 -13.782   1.994  1.00  0.00     0.042 C 
HETATM   22  C   UNL     1      38.984 -14.212   1.749  1.00  0.00     0.071 C 
HETATM   23  N   UNL     1      41.360 -13.631   0.994  1.00  0.00    -0.238 N 
HETATM   24  N   UNL     1      42.452 -13.002   1.505  1.00  0.00    -0.179 NA
HETATM   25  C   UNL     1      42.277 -12.984   2.816  1.00  0.00     0.150 C 
BRANCH  23  26
HETATM   26  C   UNL     1      41.359 -14.004  -0.383  1.00  0.00     0.058 A 
HETATM   27  C   UNL     1      41.766 -13.058  -1.340  1.00  0.00     0.031 A 
HETATM   28  C   UNL     1      41.786 -13.380  -2.699  1.00  0.00     0.002 A 
HETATM   29  C   UNL     1      41.416 -14.654  -3.118  1.00  0.00     0.000 A 
HETATM   30  C   UNL     1      41.036 -15.608  -2.178  1.00  0.00     0.002 A 
HETATM   31  C   UNL     1      41.011 -15.290  -0.815  1.00  0.00     0.031 A 
ENDBRANCH  23  26
ENDBRANCH  18  20
ENDBRANCH   1  18
TORSDOF 6
ENDMDL
MODEL 5
REMARK VINA RESULT:      -8.0      2.381      7.170
REMARK  6 active torsions:
REMARK  status: ('A' for Active; 'I' for Inactive)
REMARK    1  A    between atoms: C_3  and  C_4 
REMARK    2  A    between atoms: C_4  and  N_5 
REMARK    3  A    between atoms: N_5  and  C_8 
REMARK    4  A    between atoms: C_8  and  C_9 
REMARK    5  A    between atoms: N_12  and  C_13 
REMARK    6  A    between atoms: C_28  and  O_29 
ROOT
HETATM    1  N   UNL     1      41.335 -14.700   4.311  1.00  0.00    -0.062 N 
HETATM    2  H   UNL     1      41.055 -15.435   3.654  1.00  0.00     0.278 HD
HETATM    3  H   UNL     1      40.780 -14.834   5.162  1.00  0.00     0.278 HD
ENDROOT
BRANCH   1   4
HETATM    4  C   UNL     1      42.749 -14.937   4.673  1.00  0.00     0.290 C 
BRANCH   4   5
HETATM    5  C   UNL     1      43.223 -16.300   4.303  1.00  0.00     0.042 A 
HETATM    6  C   UNL     1      43.329 -17.015   3.109  1.00  0.00    -0.025 A 
HETATM    7  C   UNL     1      42.986 -16.586   1.721  1.00  0.00     0.051 C 
HETATM    8  C   UNL     1      43.837 -18.318   3.438  1.00  0.00     0.001 A 
HETATM    9  C   UNL     1      44.038 -18.359   4.812  1.00  0.00     0.043 A 
HETATM   10  C   UNL     1      44.141 -19.475   2.689  1.00  0.00     0.051 A 
HETATM   11  N   UNL     1      43.673 -17.135   5.310  1.00  0.00    -0.357 N 
HETATM   12  C   UNL     1      44.529 -19.490   5.474  1.00  0.00     0.033 A 
HETATM   13  H   UNL     1      43.728 -16.906   6.294  1.00  0.00     0.166 HD
HETATM   14  C   UNL     1      44.819 -20.624   4.705  1.00  0.00     0.039 A 
HETATM   15  C   UNL     1      44.628 -20.625   3.325  1.00  0.00     0.069 A 
BRANCH  15  16
HETATM   16  O   UNL     1      44.874 -21.672   2.480  1.00  0.00    -0.356 OA
HETATM   17  C   UNL     1      43.916 -21.918   1.457  1.00  0.00     0.210 C 
ENDBRANCH  15  16
ENDBRANCH   4   5
ENDBRANCH   1   4
BRANCH   1  18
HETATM   18  C   UNL     1      41.017 -13.352   3.740  1.00  0.00     0.218 C 
HETATM   19  C   UNL     1      39.704 -12.881   4.364  1.00  0.00     0.045 C 
BRANCH  18  20
HETATM   20  C   UNL     1      40.960 -13.359   2.248  1.00  0.00     0.015 C 
HETATM   21  C   UNL     1      40.158 -14.128   1.406  1.00  0.00     0.042 C 
HETATM   22  C   UNL     1      39.083 -15.094   1.767  1.00  0.00     0.071 C 
HETATM   23  N   UNL     1      40.523 -13.799   0.093  1.00  0.00    -0.238 N 
HETATM   24  N   UNL     1      41.356 -12.725   0.103  1.00  0.00    -0.179 NA
HETATM   25  C   UNL     1      41.695 -12.543   1.368  1.00  0.00     0.150 C 
BRANCH  23  26
HETATM   26  C   UNL     1      40.161 -14.382  -1.158  1.00  0.00     0.058 A 
HETATM   27  C   UNL     1      38.985 -13.944  -1.793  1.00  0.00     0.031 A 
HETATM   28  C   UNL     1      38.594 -14.482  -3.021  1.00  0.00     0.002 A 
HETATM   29  C   UNL     1      39.379 -15.450  -3.639  1.00  0.00     0.000 A 
HETATM   30  C   UNL     1      40.559 -15.873  -3.033  1.00  0.00     0.002 A 
HETATM   31  C   UNL     1      40.954 -15.340  -1.800  1.00  0.00     0.031 A 
ENDBRANCH  23  26
ENDBRANCH  18  20
ENDBRANCH   1  18
TORSDOF 6
ENDMDL
MODEL 6
REMARK VINA RESULT:      -8.0      5.731      8.983
REMARK  6 active torsions:
REMARK  status: ('A' for Active; 'I' for Inactive)
REMARK    1  A    between atoms: C_3  and  C_4 
REMARK    2  A    between atoms: C_4  and  N_5 
REMARK    3  A    between atoms: N_5  and  C_8 
REMARK    4  A    between atoms: C_8  and  C_9 
REMARK    5  A    between atoms: N_12  and  C_13 
REMARK    6  A    between atoms: C_28  and  O_29 
ROOT
HETATM    1  N   UNL     1      41.978 -12.876   6.240  1.00  0.00    -0.062 N 
HETATM    2  H   UNL     1      42.959 -12.906   5.946  1.00  0.00     0.278 HD
HETATM    3  H   UNL     1      41.928 -13.331   7.157  1.00  0.00     0.278 HD
ENDROOT
BRANCH   1   4
HETATM    4  C   UNL     1      41.614 -11.456   6.440  1.00  0.00     0.290 C 
BRANCH   4   5
HETATM    5  C   UNL     1      41.921 -10.965   7.812  1.00  0.00     0.042 A 
HETATM    6  C   UNL     1      41.310 -10.078   8.701  1.00  0.00    -0.025 A 
HETATM    7  C   UNL     1      40.047  -9.301   8.537  1.00  0.00     0.051 C 
HETATM    8  C   UNL     1      42.143 -10.009   9.870  1.00  0.00     0.001 A 
HETATM    9  C   UNL     1      43.223 -10.858   9.671  1.00  0.00     0.043 A 
HETATM   10  C   UNL     1      42.077  -9.293  11.085  1.00  0.00     0.051 A 
HETATM   11  N   UNL     1      43.066 -11.429   8.436  1.00  0.00    -0.357 N 
HETATM   12  C   UNL     1      44.237 -11.032  10.620  1.00  0.00     0.033 A 
HETATM   13  H   UNL     1      43.725 -12.095   8.052  1.00  0.00     0.166 HD
HETATM   14  C   UNL     1      44.147 -10.306  11.815  1.00  0.00     0.039 A 
HETATM   15  C   UNL     1      43.081  -9.442  12.052  1.00  0.00     0.069 A 
BRANCH  15  16
HETATM   16  O   UNL     1      42.893  -8.684  13.176  1.00  0.00    -0.356 OA
HETATM   17  C   UNL     1      42.693  -9.379  14.401  1.00  0.00     0.210 C 
ENDBRANCH  15  16
ENDBRANCH   4   5
ENDBRANCH   1   4
BRANCH   1  18
HETATM   18  C   UNL     1      41.128 -13.646   5.277  1.00  0.00     0.218 C 
HETATM   19  C   UNL     1      39.673 -13.493   5.718  1.00  0.00     0.045 C 
BRANCH  18  20
HETATM   20  C   UNL     1      41.537 -15.078   5.168  1.00  0.00     0.015 C 
HETATM   21  C   UNL     1      42.453 -15.663   4.295  1.00  0.00     0.042 C 
HETATM   22  C   UNL     1      43.332 -15.007   3.288  1.00  0.00     0.071 C 
HETATM   23  N   UNL     1      42.436 -17.039   4.560  1.00  0.00    -0.238 N 
HETATM   24  N   UNL     1      41.712 -17.283   5.685  1.00  0.00    -0.179 NA
HETATM   25  C   UNL     1      41.098 -16.147   5.971  1.00  0.00     0.150 C 
BRANCH  23  26
HETATM   26  C   UNL     1      43.038 -18.137   3.874  1.00  0.00     0.058 A 
HETATM   27  C   UNL     1      43.978 -18.928   4.558  1.00  0.00     0.031 A 
HETATM   28  C   UNL     1      44.589 -20.015   3.929  1.00  0.00     0.002 A 
HETATM   29  C   UNL     1      44.256 -20.337   2.617  1.00  0.00     0.000 A 
HETATM   30  C   UNL     1      43.307 -19.577   1.938  1.00  0.00     0.002 A 
HETATM   31  C   UNL     1      42.694 -18.484   2.562  1.00  0.00     0.031 A 
ENDBRANCH  23  26
ENDBRANCH  18  20
ENDBRANCH   1  18
TORSDOF 6
ENDMDL
MODEL 7
REMARK VINA RESULT:      -7.9      2.512      7.054
REMARK  6 active torsions:
REMARK  status: ('A' for Active; 'I' for Inactive)
REMARK    1  A    between atoms: C_3  and  C_4 
REMARK    2  A    between atoms: C_4  and  N_5 
REMARK    3  A    between atoms: N_5  and  C_8 
REMARK    4  A    between atoms: C_8  and  C_9 
REMARK    5  A    between atoms: N_12  and  C_13 
REMARK    6  A    between atoms: C_28  and  O_29 
ROOT
HETATM    1  N   UNL     1      41.596 -14.454   6.086  1.00  0.00    -0.062 N 
HETATM    2  H   UNL     1      41.693 -14.360   7.102  1.00  0.00     0.278 HD
HETATM    3  H   UNL     1      42.541 -14.568   5.706  1.00  0.00     0.278 HD
ENDROOT
BRANCH   1   4
HETATM    4  C   UNL     1      40.867 -15.713   5.820  1.00  0.00     0.290 C 
BRANCH   4   5
HETATM    5  C   UNL     1      41.724 -16.761   5.198  1.00  0.00     0.042 A 
HETATM    6  C   UNL     1      41.817 -17.330   3.926  1.00  0.00    -0.025 A 
HETATM    7  C   UNL     1      41.030 -17.022   2.696  1.00  0.00     0.051 C 
HETATM    8  C   UNL     1      42.843 -18.335   3.986  1.00  0.00     0.001 A 
HETATM    9  C   UNL     1      43.352 -18.343   5.278  1.00  0.00     0.043 A 
HETATM   10  C   UNL     1      43.383 -19.247   3.054  1.00  0.00     0.051 A 
HETATM   11  N   UNL     1      42.675 -17.385   5.985  1.00  0.00    -0.357 N 
HETATM   12  C   UNL     1      44.373 -19.209   5.685  1.00  0.00     0.033 A 
HETATM   13  H   UNL     1      42.863 -17.189   6.960  1.00  0.00     0.166 HD
HETATM   14  C   UNL     1      44.887 -20.106   4.740  1.00  0.00     0.039 A 
HETATM   15  C   UNL     1      44.402 -20.131   3.435  1.00  0.00     0.069 A 
BRANCH  15  16
HETATM   16  O   UNL     1      44.826 -20.962   2.434  1.00  0.00    -0.356 OA
HETATM   17  C   UNL     1      43.829 -21.702   1.739  1.00  0.00     0.210 C 
ENDBRANCH  15  16
ENDBRANCH   4   5
ENDBRANCH   1   4
BRANCH   1  18
HETATM   18  C   UNL     1      40.996 -13.209   5.509  1.00  0.00     0.218 C 
HETATM   19  C   UNL     1      39.719 -12.904   6.292  1.00  0.00     0.045 C 
BRANCH  18  20
HETATM   20  C   UNL     1      40.744 -13.320   4.042  1.00  0.00     0.015 C 
HETATM   21  C   UNL     1      41.662 -13.476   3.004  1.00  0.00     0.042 C 
HETATM   22  C   UNL     1      43.138 -13.655   3.085  1.00  0.00     0.071 C 
HETATM   23  N   UNL     1      40.925 -13.473   1.812  1.00  0.00    -0.238 N 
HETATM   24  N   UNL     1      39.596 -13.531   2.093  1.00  0.00    -0.179 NA
HETATM   25  C   UNL     1      39.493 -13.329   3.396  1.00  0.00     0.150 C 
BRANCH  23  26
HETATM   26  C   UNL     1      41.342 -13.433   0.448  1.00  0.00     0.058 A 
HETATM   27  C   UNL     1      40.969 -14.488  -0.404  1.00  0.00     0.031 A 
HETATM   28  C   UNL     1      41.350 -14.490  -1.748  1.00  0.00     0.002 A 
HETATM   29  C   UNL     1      42.093 -13.432  -2.262  1.00  0.00     0.000 A 
HETATM   30  C   UNL     1      42.446 -12.368  -1.435  1.00  0.00     0.002 A 
HETATM   31  C   UNL     1      42.070 -12.364  -0.086  1.00  0.00     0.031 A 
ENDBRANCH  23  26
ENDBRANCH  18  20
ENDBRANCH   1  18
TORSDOF 6
ENDMDL
MODEL 8
REMARK VINA RESULT:      -7.8      6.203      9.668
REMARK  6 active torsions:
REMARK  status: ('A' for Active; 'I' for Inactive)
REMARK    1  A    between atoms: C_3  and  C_4 
REMARK    2  A    between atoms: C_4  and  N_5 
REMARK    3  A    between atoms: N_5  and  C_8 
REMARK    4  A    between atoms: C_8  and  C_9 
REMARK    5  A    between atoms: N_12  and  C_13 
REMARK    6  A    between atoms: C_28  and  O_29 
ROOT
HETATM    1  N   UNL     1      43.196 -13.056   7.333  1.00  0.00    -0.062 N 
HETATM    2  H   UNL     1      42.428 -13.296   7.969  1.00  0.00     0.278 HD
HETATM    3  H   UNL     1      42.776 -12.864   6.418  1.00  0.00     0.278 HD
ENDROOT
BRANCH   1   4
HETATM    4  C   UNL     1      43.791 -11.788   7.810  1.00  0.00     0.290 C 
BRANCH   4   5
HETATM    5  C   UNL     1      43.412 -11.459   9.212  1.00  0.00     0.042 A 
HETATM    6  C   UNL     1      44.114 -11.264  10.403  1.00  0.00    -0.025 A 
HETATM    7  C   UNL     1      45.586 -11.314  10.648  1.00  0.00     0.051 C 
HETATM    8  C   UNL     1      43.143 -11.006  11.431  1.00  0.00     0.001 A 
HETATM    9  C   UNL     1      41.886 -11.037  10.842  1.00  0.00     0.043 A 
HETATM   10  C   UNL     1      43.221 -10.751  12.817  1.00  0.00     0.051 A 
HETATM   11  N   UNL     1      42.070 -11.300   9.510  1.00  0.00    -0.357 N 
HETATM   12  C   UNL     1      40.705 -10.825  11.563  1.00  0.00     0.033 A 
HETATM   13  H   UNL     1      41.302 -11.372   8.854  1.00  0.00     0.166 HD
HETATM   14  C   UNL     1      40.813 -10.578  12.937  1.00  0.00     0.039 A 
HETATM   15  C   UNL     1      42.055 -10.542  13.566  1.00  0.00     0.069 A 
BRANCH  15  16
HETATM   16  O   UNL     1      42.277 -10.314  14.896  1.00  0.00    -0.356 OA
HETATM   17  C   UNL     1      41.899  -9.041  15.409  1.00  0.00     0.210 C 
ENDBRANCH  15  16
ENDBRANCH   4   5
ENDBRANCH   1   4
BRANCH   1  18
HETATM   18  C   UNL     1      44.133 -14.215   7.197  1.00  0.00     0.218 C 
HETATM   19  C   UNL     1      45.547 -13.654   7.044  1.00  0.00     0.045 C 
BRANCH  18  20
HETATM   20  C   UNL     1      43.763 -15.123   6.071  1.00  0.00     0.015 C 
HETATM   21  C   UNL     1      44.012 -16.487   5.928  1.00  0.00     0.042 C 
HETATM   22  C   UNL     1      44.644 -17.427   6.896  1.00  0.00     0.071 C 
HETATM   23  N   UNL     1      43.511 -16.858   4.673  1.00  0.00    -0.238 N 
HETATM   24  N   UNL     1      42.791 -15.833   4.144  1.00  0.00    -0.179 NA
HETATM   25  C   UNL     1      43.036 -14.786   4.915  1.00  0.00     0.150 C 
BRANCH  23  26
HETATM   26  C   UNL     1      43.631 -18.072   3.933  1.00  0.00     0.058 A 
HETATM   27  C   UNL     1      42.935 -18.193   2.716  1.00  0.00     0.031 A 
HETATM   28  C   UNL     1      43.026 -19.361   1.955  1.00  0.00     0.002 A 
HETATM   29  C   UNL     1      43.824 -20.414   2.389  1.00  0.00     0.000 A 
HETATM   30  C   UNL     1      44.538 -20.297   3.579  1.00  0.00     0.002 A 
HETATM   31  C   UNL     1      44.448 -19.130   4.348  1.00  0.00     0.031 A 
ENDBRANCH  23  26
ENDBRANCH  18  20
ENDBRANCH   1  18
TORSDOF 6
ENDMDL
MODEL 9
REMARK VINA RESULT:      -7.8      2.394      6.676
REMARK  6 active torsions:
REMARK  status: ('A' for Active; 'I' for Inactive)
REMARK    1  A    between atoms: C_3  and  C_4 
REMARK    2  A    between atoms: C_4  and  N_5 
REMARK    3  A    between atoms: N_5  and  C_8 
REMARK    4  A    between atoms: C_8  and  C_9 
REMARK    5  A    between atoms: N_12  and  C_13 
REMARK    6  A    between atoms: C_28  and  O_29 
ROOT
HETATM    1  N   UNL     1      41.368 -13.101   4.811  1.00  0.00    -0.062 N 
HETATM    2  H   UNL     1      40.944 -13.998   5.070  1.00  0.00     0.278 HD
HETATM    3  H   UNL     1      41.394 -12.527   5.660  1.00  0.00     0.278 HD
ENDROOT
BRANCH   1   4
HETATM    4  C   UNL     1      42.772 -13.365   4.424  1.00  0.00     0.290 C 
BRANCH   4   5
HETATM    5  C   UNL     1      43.024 -14.795   4.092  1.00  0.00     0.042 A 
HETATM    6  C   UNL     1      43.117 -15.976   4.831  1.00  0.00    -0.025 A 
HETATM    7  C   UNL     1      42.962 -16.183   6.301  1.00  0.00     0.051 C 
HETATM    8  C   UNL     1      43.420 -17.032   3.905  1.00  0.00     0.001 A 
HETATM    9  C   UNL     1      43.490 -16.474   2.635  1.00  0.00     0.043 A 
HETATM   10  C   UNL     1      43.647 -18.420   4.033  1.00  0.00     0.051 A 
HETATM   11  N   UNL     1      43.239 -15.134   2.768  1.00  0.00    -0.357 N 
HETATM   12  C   UNL     1      43.771 -17.228   1.490  1.00  0.00     0.033 A 
HETATM   13  H   UNL     1      43.229 -14.498   1.981  1.00  0.00     0.166 HD
HETATM   14  C   UNL     1      43.995 -18.601   1.648  1.00  0.00     0.039 A 
HETATM   15  C   UNL     1      43.937 -19.199   2.905  1.00  0.00     0.069 A 
BRANCH  15  16
HETATM   16  O   UNL     1      44.141 -20.524   3.176  1.00  0.00    -0.356 OA
HETATM   17  C   UNL     1      44.153 -21.418   2.070  1.00  0.00     0.210 C 
ENDBRANCH  15  16
ENDBRANCH   4   5
ENDBRANCH   1   4
BRANCH   1  18
HETATM   18  C   UNL     1      40.521 -12.408   3.790  1.00  0.00     0.218 C 
HETATM   19  C   UNL     1      39.252 -11.923   4.490  1.00  0.00     0.045 C 
BRANCH  18  20
HETATM   20  C   UNL     1      40.218 -13.274   2.612  1.00  0.00     0.015 C 
HETATM   21  C   UNL     1      40.655 -13.144   1.294  1.00  0.00     0.042 C 
HETATM   22  C   UNL     1      41.607 -12.153   0.720  1.00  0.00     0.071 C 
HETATM   23  N   UNL     1      40.048 -14.177   0.567  1.00  0.00    -0.238 N 
HETATM   24  N   UNL     1      39.435 -15.041   1.418  1.00  0.00    -0.179 NA
HETATM   25  C   UNL     1      39.443 -14.448   2.601  1.00  0.00     0.150 C 
BRANCH  23  26
HETATM   26  C   UNL     1      39.997 -14.436  -0.836  1.00  0.00     0.058 A 
HETATM   27  C   UNL     1      41.008 -15.223  -1.415  1.00  0.00     0.031 A 
HETATM   28  C   UNL     1      40.996 -15.508  -2.782  1.00  0.00     0.002 A 
HETATM   29  C   UNL     1      39.968 -15.024  -3.585  1.00  0.00     0.000 A 
HETATM   30  C   UNL     1      38.947 -14.265  -3.019  1.00  0.00     0.002 A 
HETATM   31  C   UNL     1      38.955 -13.975  -1.650  1.00  0.00     0.031 A 
ENDBRANCH  23  26
ENDBRANCH  18  20
ENDBRANCH   1  18
TORSDOF 6
ENDMDL
MODEL 10
REMARK VINA RESULT:      -7.7      1.867      2.991
REMARK  6 active torsions:
REMARK  status: ('A' for Active; 'I' for Inactive)
REMARK    1  A    between atoms: C_3  and  C_4 
REMARK    2  A    between atoms: C_4  and  N_5 
REMARK    3  A    between atoms: N_5  and  C_8 
REMARK    4  A    between atoms: C_8  and  C_9 
REMARK    5  A    between atoms: N_12  and  C_13 
REMARK    6  A    between atoms: C_28  and  O_29 
ROOT
HETATM    1  N   UNL     1      41.961 -15.593   6.326  1.00  0.00    -0.062 N 
HETATM    2  H   UNL     1      41.148 -15.610   6.949  1.00  0.00     0.278 HD
HETATM    3  H   UNL     1      41.773 -16.259   5.570  1.00  0.00     0.278 HD
ENDROOT
BRANCH   1   4
HETATM    4  C   UNL     1      42.026 -14.248   5.712  1.00  0.00     0.290 C 
BRANCH   4   5
HETATM    5  C   UNL     1      41.617 -14.243   4.280  1.00  0.00     0.042 A 
HETATM    6  C   UNL     1      42.241 -14.575   3.076  1.00  0.00    -0.025 A 
HETATM    7  C   UNL     1      43.620 -15.097   2.842  1.00  0.00     0.051 C 
HETATM    8  C   UNL     1      41.301 -14.307   2.023  1.00  0.00     0.001 A 
HETATM    9  C   UNL     1      40.134 -13.834   2.608  1.00  0.00     0.043 A 
HETATM   10  C   UNL     1      41.339 -14.420   0.616  1.00  0.00     0.051 A 
HETATM   11  N   UNL     1      40.340 -13.814   3.962  1.00  0.00    -0.357 N 
HETATM   12  C   UNL     1      39.004 -13.473   1.864  1.00  0.00     0.033 A 
HETATM   13  H   UNL     1      39.634 -13.508   4.620  1.00  0.00     0.166 HD
HETATM   14  C   UNL     1      39.073 -13.592   0.471  1.00  0.00     0.039 A 
HETATM   15  C   UNL     1      40.226 -14.059  -0.155  1.00  0.00     0.069 A 
BRANCH  15  16
HETATM   16  O   UNL     1      40.405 -14.212  -1.503  1.00  0.00    -0.356 OA
HETATM   17  C   UNL     1      40.902 -15.467  -1.953  1.00  0.00     0.210 C 
ENDBRANCH  15  16
ENDBRANCH   4   5
ENDBRANCH   1   4
BRANCH   1  18
HETATM   18  C   UNL     1      43.184 -16.041   7.064  1.00  0.00     0.218 C 
HETATM   19  C   UNL     1      44.096 -14.825   7.232  1.00  0.00     0.045 C 
BRANCH  18  20
HETATM   20  C   UNL     1      43.879 -17.176   6.389  1.00  0.00     0.015 C 
HETATM   21  C   UNL     1      43.409 -18.016   5.380  1.00  0.00     0.042 C 
HETATM   22  C   UNL     1      42.114 -17.957   4.646  1.00  0.00     0.071 C 
HETATM   23  N   UNL     1      44.422 -18.951   5.132  1.00  0.00    -0.238 N 
HETATM   24  N   UNL     1      45.554 -18.590   5.792  1.00  0.00    -0.179 NA
HETATM   25  C   UNL     1      45.197 -17.616   6.612  1.00  0.00     0.150 C 
BRANCH  23  26
HETATM   26  C   UNL     1      44.436 -20.134   4.333  1.00  0.00     0.058 A 
HETATM   27  C   UNL     1      44.285 -20.011   2.940  1.00  0.00     0.031 A 
HETATM   28  C   UNL     1      44.297 -21.140   2.118  1.00  0.00     0.002 A 
HETATM   29  C   UNL     1      44.476 -22.403   2.673  1.00  0.00     0.000 A 
HETATM   30  C   UNL     1      44.653 -22.536   4.048  1.00  0.00     0.002 A 
HETATM   31  C   UNL     1      44.639 -21.408   4.877  1.00  0.00     0.031 A 
ENDBRANCH  23  26
ENDBRANCH  18  20
ENDBRANCH   1  18
TORSDOF 6
ENDMDL
