MODEL 1
REMARK VINA RESULT:      -8.5      0.000      0.000
REMARK  4 active torsions:
REMARK  status: ('A' for Active; 'I' for Inactive)
REMARK    1  A    between atoms: C_4  and  O_5 
REMARK    2  A    between atoms: O_5  and  C_6 
REMARK    3  A    between atoms: C_9  and  N_10 
REMARK       I    between atoms: N_10  and  C_11 
REMARK    4  A    between atoms: C_11  and  C_12 
ROOT
HETATM    1  C   UNL     1      43.485 -18.032   2.828  1.00  0.00     0.076 A 
HETATM    2  C   UNL     1      42.159 -17.765   3.149  1.00  0.00     0.039 A 
HETATM    3  C   UNL     1      41.311 -17.194   2.195  1.00  0.00     0.032 A 
HETATM    4  C   UNL     1      41.793 -16.866   0.924  1.00  0.00     0.035 A 
HETATM    5  C   UNL     1      43.144 -17.108   0.627  1.00  0.00     0.032 A 
HETATM    6  C   UNL     1      43.991 -17.684   1.577  1.00  0.00     0.039 A 
ENDROOT
BRANCH   4   7
HETATM    7  N   UNL     1      40.999 -16.314  -0.103  1.00  0.00    -0.323 N 
HETATM    8  C   UNL     1      41.017 -15.014  -0.569  1.00  0.00     0.257 C 
HETATM    9  O   UNL     1      41.790 -14.122  -0.236  1.00  0.00    -0.267 OA
HETATM   10  H   UNL     1      40.363 -16.956  -0.556  1.00  0.00     0.169 HD
BRANCH   8  11
HETATM   11  C   UNL     1      39.978 -14.750  -1.618  1.00  0.00     0.048 A 
HETATM   12  C   UNL     1      38.945 -13.956  -1.284  1.00  0.00     0.108 A 
HETATM   13  N   UNL     1      37.949 -13.684  -2.192  1.00  0.00    -0.333 N 
HETATM   14  C   UNL     1      37.914 -14.190  -3.469  1.00  0.00     0.245 A 
HETATM   15  H   UNL     1      37.177 -13.080  -1.934  1.00  0.00     0.168 HD
HETATM   16  O   UNL     1      37.026 -13.928  -4.270  1.00  0.00    -0.268 OA
HETATM   17  C   UNL     1      39.031 -15.102  -3.830  1.00  0.00     0.075 A 
HETATM   18  C   UNL     1      39.999 -15.361  -2.936  1.00  0.00     0.024 A 
ENDBRANCH   8  11
ENDBRANCH   4   7
BRANCH   1  19
HETATM   19  O   UNL     1      44.289 -18.582   3.796  1.00  0.00    -0.311 OA
BRANCH  19  20
HETATM   20  C   UNL     1      44.438 -19.953   3.797  1.00  0.00     0.076 A 
HETATM   21  C   UNL     1      44.701 -20.535   5.039  1.00  0.00     0.037 A 
HETATM   22  C   UNL     1      44.835 -21.919   5.152  1.00  0.00     0.003 A 
HETATM   23  C   UNL     1      44.695 -22.728   4.024  1.00  0.00     0.000 A 
HETATM   24  C   UNL     1      44.415 -22.151   2.785  1.00  0.00     0.003 A 
HETATM   25  C   UNL     1      44.279 -20.766   2.671  1.00  0.00     0.037 A 
ENDBRANCH  19  20
ENDBRANCH   1  19
TORSDOF 4
ENDMDL
MODEL 2
REMARK VINA RESULT:      -7.9      2.911      3.149
REMARK  4 active torsions:
REMARK  status: ('A' for Active; 'I' for Inactive)
REMARK    1  A    between atoms: C_4  and  O_5 
REMARK    2  A    between atoms: O_5  and  C_6 
REMARK    3  A    between atoms: C_9  and  N_10 
REMARK       I    between atoms: N_10  and  C_11 
REMARK    4  A    between atoms: C_11  and  C_12 
ROOT
HETATM    1  C   UNL     1      43.480 -17.972   4.475  1.00  0.00     0.076 A 
HETATM    2  C   UNL     1      42.168 -18.154   4.900  1.00  0.00     0.039 A 
HETATM    3  C   UNL     1      41.166 -17.278   4.471  1.00  0.00     0.032 A 
HETATM    4  C   UNL     1      41.477 -16.202   3.633  1.00  0.00     0.035 A 
HETATM    5  C   UNL     1      42.811 -16.009   3.242  1.00  0.00     0.032 A 
HETATM    6  C   UNL     1      43.813 -16.887   3.666  1.00  0.00     0.039 A 
ENDROOT
BRANCH   4   7
HETATM    7  N   UNL     1      40.523 -15.291   3.134  1.00  0.00    -0.323 N 
HETATM    8  C   UNL     1      40.114 -15.140   1.823  1.00  0.00     0.257 C 
HETATM    9  O   UNL     1      40.442 -15.831   0.864  1.00  0.00    -0.267 OA
HETATM   10  H   UNL     1      40.079 -14.701   3.825  1.00  0.00     0.169 HD
BRANCH   8  11
HETATM   11  C   UNL     1      39.139 -14.015   1.636  1.00  0.00     0.048 A 
HETATM   12  C   UNL     1      39.292 -12.925   2.409  1.00  0.00     0.108 A 
HETATM   13  N   UNL     1      38.426 -11.863   2.301  1.00  0.00    -0.333 N 
HETATM   14  C   UNL     1      37.359 -11.827   1.436  1.00  0.00     0.245 A 
HETATM   15  H   UNL     1      38.551 -11.043   2.883  1.00  0.00     0.168 HD
HETATM   16  O   UNL     1      36.603 -10.868   1.343  1.00  0.00    -0.268 OA
HETATM   17  C   UNL     1      37.160 -13.047   0.609  1.00  0.00     0.075 A 
HETATM   18  C   UNL     1      38.012 -14.078   0.722  1.00  0.00     0.024 A 
ENDBRANCH   8  11
ENDBRANCH   4   7
BRANCH   1  19
HETATM   19  O   UNL     1      44.437 -18.845   4.929  1.00  0.00    -0.311 OA
BRANCH  19  20
HETATM   20  C   UNL     1      44.511 -20.081   4.320  1.00  0.00     0.076 A 
HETATM   21  C   UNL     1      44.716 -21.166   5.174  1.00  0.00     0.037 A 
HETATM   22  C   UNL     1      44.771 -22.463   4.660  1.00  0.00     0.003 A 
HETATM   23  C   UNL     1      44.612 -22.678   3.291  1.00  0.00     0.000 A 
HETATM   24  C   UNL     1      44.390 -21.597   2.438  1.00  0.00     0.003 A 
HETATM   25  C   UNL     1      44.332 -20.300   2.951  1.00  0.00     0.037 A 
ENDBRANCH  19  20
ENDBRANCH   1  19
TORSDOF 4
ENDMDL
MODEL 3
REMARK VINA RESULT:      -7.8      6.427      8.920
REMARK  4 active torsions:
REMARK  status: ('A' for Active; 'I' for Inactive)
REMARK    1  A    between atoms: C_4  and  O_5 
REMARK    2  A    between atoms: O_5  and  C_6 
REMARK    3  A    between atoms: C_9  and  N_10 
REMARK       I    between atoms: N_10  and  C_11 
REMARK    4  A    between atoms: C_11  and  C_12 
ROOT
HETATM    1  C   UNL     1      42.690 -16.448   3.853  1.00  0.00     0.076 A 
HETATM    2  C   UNL     1      42.230 -16.766   5.126  1.00  0.00     0.039 A 
HETATM    3  C   UNL     1      42.403 -15.861   6.178  1.00  0.00     0.032 A 
HETATM    4  C   UNL     1      43.056 -14.643   5.964  1.00  0.00     0.035 A 
HETATM    5  C   UNL     1      43.547 -14.352   4.682  1.00  0.00     0.032 A 
HETATM    6  C   UNL     1      43.371 -15.253   3.629  1.00  0.00     0.039 A 
ENDROOT
BRANCH   4   7
HETATM    7  N   UNL     1      43.246 -13.665   6.963  1.00  0.00    -0.323 N 
HETATM    8  C   UNL     1      44.438 -13.285   7.548  1.00  0.00     0.257 C 
HETATM    9  O   UNL     1      45.563 -13.668   7.245  1.00  0.00    -0.267 OA
HETATM   10  H   UNL     1      42.412 -13.177   7.260  1.00  0.00     0.169 HD
BRANCH   8  11
HETATM   11  C   UNL     1      44.262 -12.268   8.637  1.00  0.00     0.048 A 
HETATM   12  C   UNL     1      45.148 -12.281   9.649  1.00  0.00     0.108 A 
HETATM   13  N   UNL     1      45.037 -11.386  10.686  1.00  0.00    -0.333 N 
HETATM   14  C   UNL     1      44.042 -10.444  10.786  1.00  0.00     0.245 A 
HETATM   15  H   UNL     1      45.712 -11.399  11.443  1.00  0.00     0.168 HD
HETATM   16  O   UNL     1      43.965  -9.645  11.711  1.00  0.00    -0.268 OA
HETATM   17  C   UNL     1      43.036 -10.453   9.691  1.00  0.00     0.075 A 
HETATM   18  C   UNL     1      43.153 -11.330   8.682  1.00  0.00     0.024 A 
ENDBRANCH   8  11
ENDBRANCH   4   7
BRANCH   1  19
HETATM   19  O   UNL     1      42.513 -17.369   2.850  1.00  0.00    -0.311 OA
BRANCH  19  20
HETATM   20  C   UNL     1      43.191 -18.565   2.957  1.00  0.00     0.076 A 
HETATM   21  C   UNL     1      42.987 -19.474   1.917  1.00  0.00     0.037 A 
HETATM   22  C   UNL     1      43.654 -20.700   1.913  1.00  0.00     0.003 A 
HETATM   23  C   UNL     1      44.536 -21.016   2.947  1.00  0.00     0.000 A 
HETATM   24  C   UNL     1      44.756 -20.103   3.979  1.00  0.00     0.003 A 
HETATM   25  C   UNL     1      44.090 -18.875   3.982  1.00  0.00     0.037 A 
ENDBRANCH  19  20
ENDBRANCH   1  19
TORSDOF 4
ENDMDL
MODEL 4
REMARK VINA RESULT:      -7.6      2.364      9.036
REMARK  4 active torsions:
REMARK  status: ('A' for Active; 'I' for Inactive)
REMARK    1  A    between atoms: C_4  and  O_5 
REMARK    2  A    between atoms: O_5  and  C_6 
REMARK    3  A    between atoms: C_9  and  N_10 
REMARK       I    between atoms: N_10  and  C_11 
REMARK    4  A    between atoms: C_11  and  C_12 
ROOT
HETATM    1  C   UNL     1      40.078 -14.369   0.645  1.00  0.00     0.076 A 
HETATM    2  C   UNL     1      39.532 -15.083   1.706  1.00  0.00     0.039 A 
HETATM    3  C   UNL     1      40.119 -16.284   2.116  1.00  0.00     0.032 A 
HETATM    4  C   UNL     1      41.243 -16.786   1.452  1.00  0.00     0.035 A 
HETATM    5  C   UNL     1      41.761 -16.073   0.360  1.00  0.00     0.032 A 
HETATM    6  C   UNL     1      41.179 -14.870  -0.048  1.00  0.00     0.039 A 
ENDROOT
BRANCH   4   7
HETATM    7  N   UNL     1      41.911 -17.973   1.820  1.00  0.00    -0.323 N 
HETATM    8  C   UNL     1      43.053 -18.089   2.588  1.00  0.00     0.257 C 
HETATM    9  O   UNL     1      43.648 -17.185   3.164  1.00  0.00    -0.267 OA
HETATM   10  H   UNL     1      41.484 -18.832   1.499  1.00  0.00     0.169 HD
BRANCH   8  11
HETATM   11  C   UNL     1      43.537 -19.503   2.714  1.00  0.00     0.048 A 
HETATM   12  C   UNL     1      44.241 -19.823   3.815  1.00  0.00     0.108 A 
HETATM   13  N   UNL     1      44.727 -21.097   3.989  1.00  0.00    -0.333 N 
HETATM   14  C   UNL     1      44.556 -22.115   3.081  1.00  0.00     0.245 A 
HETATM   15  H   UNL     1      45.252 -21.331   4.823  1.00  0.00     0.168 HD
HETATM   16  O   UNL     1      44.985 -23.249   3.257  1.00  0.00    -0.268 OA
HETATM   17  C   UNL     1      43.815 -21.756   1.843  1.00  0.00     0.075 A 
HETATM   18  C   UNL     1      43.344 -20.509   1.684  1.00  0.00     0.024 A 
ENDBRANCH   8  11
ENDBRANCH   4   7
BRANCH   1  19
HETATM   19  O   UNL     1      39.465 -13.201   0.264  1.00  0.00    -0.311 OA
BRANCH  19  20
HETATM   20  C   UNL     1      39.140 -13.059  -1.069  1.00  0.00     0.076 A 
HETATM   21  C   UNL     1      38.155 -13.925  -1.549  1.00  0.00     0.037 A 
HETATM   22  C   UNL     1      37.731 -13.839  -2.876  1.00  0.00     0.003 A 
HETATM   23  C   UNL     1      38.284 -12.879  -3.724  1.00  0.00     0.000 A 
HETATM   24  C   UNL     1      39.256 -12.002  -3.243  1.00  0.00     0.003 A 
HETATM   25  C   UNL     1      39.680 -12.085  -1.915  1.00  0.00     0.037 A 
ENDBRANCH  19  20
ENDBRANCH   1  19
TORSDOF 4
ENDMDL
MODEL 5
REMARK VINA RESULT:      -7.5      5.530      9.145
REMARK  4 active torsions:
REMARK  status: ('A' for Active; 'I' for Inactive)
REMARK    1  A    between atoms: C_4  and  O_5 
REMARK    2  A    between atoms: O_5  and  C_6 
REMARK    3  A    between atoms: C_9  and  N_10 
REMARK       I    between atoms: N_10  and  C_11 
REMARK    4  A    between atoms: C_11  and  C_12 
ROOT
HETATM    1  C   UNL     1      40.766 -13.027   5.296  1.00  0.00     0.076 A 
HETATM    2  C   UNL     1      41.849 -13.045   4.425  1.00  0.00     0.039 A 
HETATM    3  C   UNL     1      42.391 -14.265   4.006  1.00  0.00     0.032 A 
HETATM    4  C   UNL     1      41.864 -15.471   4.477  1.00  0.00     0.035 A 
HETATM    5  C   UNL     1      40.794 -15.438   5.384  1.00  0.00     0.032 A 
HETATM    6  C   UNL     1      40.249 -14.219   5.799  1.00  0.00     0.039 A 
ENDROOT
BRANCH   4   7
HETATM    7  N   UNL     1      42.333 -16.743   4.083  1.00  0.00    -0.323 N 
HETATM    8  C   UNL     1      43.374 -17.461   4.638  1.00  0.00     0.257 C 
HETATM    9  O   UNL     1      44.027 -17.163   5.632  1.00  0.00    -0.267 OA
HETATM   10  H   UNL     1      41.828 -17.177   3.322  1.00  0.00     0.169 HD
BRANCH   8  11
HETATM   11  C   UNL     1      43.654 -18.745   3.916  1.00  0.00     0.048 A 
HETATM   12  C   UNL     1      44.479 -19.625   4.510  1.00  0.00     0.108 A 
HETATM   13  N   UNL     1      44.790 -20.817   3.898  1.00  0.00    -0.333 N 
HETATM   14  C   UNL     1      44.314 -21.194   2.665  1.00  0.00     0.245 A 
HETATM   15  H   UNL     1      45.408 -21.477   4.355  1.00  0.00     0.168 HD
HETATM   16  O   UNL     1      44.591 -22.265   2.139  1.00  0.00    -0.268 OA
HETATM   17  C   UNL     1      43.435 -20.207   1.985  1.00  0.00     0.075 A 
HETATM   18  C   UNL     1      43.137 -19.047   2.592  1.00  0.00     0.024 A 
ENDBRANCH   8  11
ENDBRANCH   4   7
BRANCH   1  19
HETATM   19  O   UNL     1      40.271 -11.810   5.694  1.00  0.00    -0.311 OA
BRANCH  19  20
HETATM   20  C   UNL     1      40.605 -11.370   6.957  1.00  0.00     0.076 A 
HETATM   21  C   UNL     1      39.566 -11.356   7.890  1.00  0.00     0.037 A 
HETATM   22  C   UNL     1      39.807 -10.960   9.206  1.00  0.00     0.003 A 
HETATM   23  C   UNL     1      41.093 -10.584   9.595  1.00  0.00     0.000 A 
HETATM   24  C   UNL     1      42.137 -10.612   8.671  1.00  0.00     0.003 A 
HETATM   25  C   UNL     1      41.897 -11.011   7.355  1.00  0.00     0.037 A 
ENDBRANCH  19  20
ENDBRANCH   1  19
TORSDOF 4
ENDMDL
MODEL 6
REMARK VINA RESULT:      -7.3      2.441      2.679
REMARK  4 active torsions:
REMARK  status: ('A' for Active; 'I' for Inactive)
REMARK    1  A    between atoms: C_4  and  O_5 
REMARK    2  A    between atoms: O_5  and  C_6 
REMARK    3  A    between atoms: C_9  and  N_10 
REMARK       I    between atoms: N_10  and  C_11 
REMARK    4  A    between atoms: C_11  and  C_12 
ROOT
HETATM    1  C   UNL     1      41.851 -16.955   2.843  1.00  0.00     0.076 A 
HETATM    2  C   UNL     1      40.628 -16.954   2.181  1.00  0.00     0.039 A 
HETATM    3  C   UNL     1      40.421 -16.096   1.097  1.00  0.00     0.032 A 
HETATM    4  C   UNL     1      41.428 -15.219   0.685  1.00  0.00     0.035 A 
HETATM    5  C   UNL     1      42.644 -15.204   1.385  1.00  0.00     0.032 A 
HETATM    6  C   UNL     1      42.856 -16.065   2.466  1.00  0.00     0.039 A 
ENDROOT
BRANCH   4   7
HETATM    7  N   UNL     1      41.309 -14.342  -0.414  1.00  0.00    -0.323 N 
HETATM    8  C   UNL     1      41.165 -14.682  -1.745  1.00  0.00     0.257 C 
HETATM    9  O   UNL     1      41.026 -15.809  -2.207  1.00  0.00    -0.267 OA
HETATM   10  H   UNL     1      41.309 -13.356  -0.189  1.00  0.00     0.169 HD
BRANCH   8  11
HETATM   11  C   UNL     1      41.150 -13.492  -2.658  1.00  0.00     0.048 A 
HETATM   12  C   UNL     1      39.994 -13.201  -3.281  1.00  0.00     0.108 A 
HETATM   13  N   UNL     1      39.912 -12.132  -4.142  1.00  0.00    -0.333 N 
HETATM   14  C   UNL     1      40.969 -11.306  -4.444  1.00  0.00     0.245 A 
HETATM   15  H   UNL     1      39.036 -11.917  -4.603  1.00  0.00     0.168 HD
HETATM   16  O   UNL     1      40.876 -10.350  -5.204  1.00  0.00    -0.268 OA
HETATM   17  C   UNL     1      42.260 -11.648  -3.791  1.00  0.00     0.075 A 
HETATM   18  C   UNL     1      42.329 -12.694  -2.951  1.00  0.00     0.024 A 
ENDBRANCH   8  11
ENDBRANCH   4   7
BRANCH   1  19
HETATM   19  O   UNL     1      42.012 -17.803   3.910  1.00  0.00    -0.311 OA
BRANCH  19  20
HETATM   20  C   UNL     1      43.042 -18.718   3.847  1.00  0.00     0.076 A 
HETATM   21  C   UNL     1      43.739 -18.931   5.038  1.00  0.00     0.037 A 
HETATM   22  C   UNL     1      44.777 -19.863   5.088  1.00  0.00     0.003 A 
HETATM   23  C   UNL     1      45.115 -20.591   3.947  1.00  0.00     0.000 A 
HETATM   24  C   UNL     1      44.410 -20.393   2.760  1.00  0.00     0.003 A 
HETATM   25  C   UNL     1      43.369 -19.463   2.710  1.00  0.00     0.037 A 
ENDBRANCH  19  20
ENDBRANCH   1  19
TORSDOF 4
ENDMDL
MODEL 7
REMARK VINA RESULT:      -7.3      1.950      2.762
REMARK  4 active torsions:
REMARK  status: ('A' for Active; 'I' for Inactive)
REMARK    1  A    between atoms: C_4  and  O_5 
REMARK    2  A    between atoms: O_5  and  C_6 
REMARK    3  A    between atoms: C_9  and  N_10 
REMARK       I    between atoms: N_10  and  C_11 
REMARK    4  A    between atoms: C_11  and  C_12 
ROOT
HETATM    1  C   UNL     1      43.632 -18.954   3.022  1.00  0.00     0.076 A 
HETATM    2  C   UNL     1      42.383 -18.407   3.291  1.00  0.00     0.039 A 
HETATM    3  C   UNL     1      41.840 -17.446   2.431  1.00  0.00     0.032 A 
HETATM    4  C   UNL     1      42.556 -17.013   1.311  1.00  0.00     0.035 A 
HETATM    5  C   UNL     1      43.832 -17.547   1.073  1.00  0.00     0.032 A 
HETATM    6  C   UNL     1      44.373 -18.511   1.928  1.00  0.00     0.039 A 
ENDROOT
BRANCH   4   7
HETATM    7  N   UNL     1      42.070 -16.071   0.381  1.00  0.00    -0.323 N 
HETATM    8  C   UNL     1      41.881 -14.717   0.580  1.00  0.00     0.257 C 
HETATM    9  O   UNL     1      42.184 -14.069   1.576  1.00  0.00    -0.267 OA
HETATM   10  H   UNL     1      41.860 -16.434  -0.539  1.00  0.00     0.169 HD
BRANCH   8  11
HETATM   11  C   UNL     1      41.270 -14.028  -0.603  1.00  0.00     0.048 A 
HETATM   12  C   UNL     1      40.956 -14.785  -1.670  1.00  0.00     0.108 A 
HETATM   13  N   UNL     1      40.406 -14.216  -2.794  1.00  0.00    -0.333 N 
HETATM   14  C   UNL     1      40.150 -12.872  -2.929  1.00  0.00     0.245 A 
HETATM   15  H   UNL     1      40.168 -14.794  -3.592  1.00  0.00     0.168 HD
HETATM   16  O   UNL     1      39.648 -12.383  -3.933  1.00  0.00    -0.268 OA
HETATM   17  C   UNL     1      40.534 -12.025  -1.769  1.00  0.00     0.075 A 
HETATM   18  C   UNL     1      41.070 -12.590  -0.676  1.00  0.00     0.024 A 
ENDBRANCH   8  11
ENDBRANCH   4   7
BRANCH   1  19
HETATM   19  O   UNL     1      44.136 -19.884   3.896  1.00  0.00    -0.311 OA
BRANCH  19  20
HETATM   20  C   UNL     1      44.217 -19.529   5.227  1.00  0.00     0.076 A 
HETATM   21  C   UNL     1      44.853 -18.316   5.494  1.00  0.00     0.037 A 
HETATM   22  C   UNL     1      44.956 -17.850   6.806  1.00  0.00     0.003 A 
HETATM   23  C   UNL     1      44.413 -18.594   7.854  1.00  0.00     0.000 A 
HETATM   24  C   UNL     1      43.762 -19.799   7.589  1.00  0.00     0.003 A 
HETATM   25  C   UNL     1      43.657 -20.264   6.276  1.00  0.00     0.037 A 
ENDBRANCH  19  20
ENDBRANCH   1  19
TORSDOF 4
ENDMDL
MODEL 8
REMARK VINA RESULT:      -7.3      2.641      3.340
REMARK  4 active torsions:
REMARK  status: ('A' for Active; 'I' for Inactive)
REMARK    1  A    between atoms: C_4  and  O_5 
REMARK    2  A    between atoms: O_5  and  C_6 
REMARK    3  A    between atoms: C_9  and  N_10 
REMARK       I    between atoms: N_10  and  C_11 
REMARK    4  A    between atoms: C_11  and  C_12 
ROOT
HETATM    1  C   UNL     1      41.822 -17.387   2.879  1.00  0.00     0.076 A 
HETATM    2  C   UNL     1      42.677 -17.570   1.798  1.00  0.00     0.039 A 
HETATM    3  C   UNL     1      42.616 -16.702   0.703  1.00  0.00     0.032 A 
HETATM    4  C   UNL     1      41.683 -15.661   0.676  1.00  0.00     0.035 A 
HETATM    5  C   UNL     1      40.801 -15.511   1.758  1.00  0.00     0.032 A 
HETATM    6  C   UNL     1      40.865 -16.374   2.855  1.00  0.00     0.039 A 
ENDROOT
BRANCH   4   7
HETATM    7  N   UNL     1      41.575 -14.727  -0.375  1.00  0.00    -0.323 N 
HETATM    8  C   UNL     1      41.191 -14.973  -1.679  1.00  0.00     0.257 C 
HETATM    9  O   UNL     1      40.789 -16.035  -2.141  1.00  0.00    -0.267 OA
HETATM   10  H   UNL     1      41.784 -13.768  -0.130  1.00  0.00     0.169 HD
BRANCH   8  11
HETATM   11  C   UNL     1      41.266 -13.757  -2.554  1.00  0.00     0.048 A 
HETATM   12  C   UNL     1      40.170 -13.433  -3.264  1.00  0.00     0.108 A 
HETATM   13  N   UNL     1      40.174 -12.339  -4.096  1.00  0.00    -0.333 N 
HETATM   14  C   UNL     1      41.260 -11.518  -4.282  1.00  0.00     0.245 A 
HETATM   15  H   UNL     1      39.342 -12.099  -4.624  1.00  0.00     0.168 HD
HETATM   16  O   UNL     1      41.243 -10.540  -5.019  1.00  0.00    -0.268 OA
HETATM   17  C   UNL     1      42.488 -11.896  -3.533  1.00  0.00     0.075 A 
HETATM   18  C   UNL     1      42.473 -12.966  -2.722  1.00  0.00     0.024 A 
ENDBRANCH   8  11
ENDBRANCH   4   7
BRANCH   1  19
HETATM   19  O   UNL     1      41.904 -18.268   3.929  1.00  0.00    -0.311 OA
BRANCH  19  20
HETATM   20  C   UNL     1      43.025 -18.202   4.729  1.00  0.00     0.076 A 
HETATM   21  C   UNL     1      43.100 -17.097   5.579  1.00  0.00     0.037 A 
HETATM   22  C   UNL     1      44.178 -16.954   6.453  1.00  0.00     0.003 A 
HETATM   23  C   UNL     1      45.181 -17.924   6.487  1.00  0.00     0.000 A 
HETATM   24  C   UNL     1      45.100 -19.038   5.651  1.00  0.00     0.003 A 
HETATM   25  C   UNL     1      44.021 -19.182   4.778  1.00  0.00     0.037 A 
ENDBRANCH  19  20
ENDBRANCH   1  19
TORSDOF 4
ENDMDL
MODEL 9
REMARK VINA RESULT:      -7.2      1.835      2.501
REMARK  4 active torsions:
REMARK  status: ('A' for Active; 'I' for Inactive)
REMARK    1  A    between atoms: C_4  and  O_5 
REMARK    2  A    between atoms: O_5  and  C_6 
REMARK    3  A    between atoms: C_9  and  N_10 
REMARK       I    between atoms: N_10  and  C_11 
REMARK    4  A    between atoms: C_11  and  C_12 
ROOT
HETATM    1  C   UNL     1      43.510 -18.021   2.320  1.00  0.00     0.076 A 
HETATM    2  C   UNL     1      42.355 -18.589   1.795  1.00  0.00     0.039 A 
HETATM    3  C   UNL     1      41.309 -17.770   1.358  1.00  0.00     0.032 A 
HETATM    4  C   UNL     1      41.406 -16.380   1.466  1.00  0.00     0.035 A 
HETATM    5  C   UNL     1      42.563 -15.821   2.032  1.00  0.00     0.032 A 
HETATM    6  C   UNL     1      43.611 -16.639   2.464  1.00  0.00     0.039 A 
ENDROOT
BRANCH   4   7
HETATM    7  N   UNL     1      40.410 -15.483   1.023  1.00  0.00    -0.323 N 
HETATM    8  C   UNL     1      40.389 -14.771  -0.160  1.00  0.00     0.257 C 
HETATM    9  O   UNL     1      41.190 -14.855  -1.085  1.00  0.00    -0.267 OA
HETATM   10  H   UNL     1      39.617 -15.373   1.641  1.00  0.00     0.169 HD
BRANCH   8  11
HETATM   11  C   UNL     1      39.213 -13.847  -0.270  1.00  0.00     0.048 A 
HETATM   12  C   UNL     1      39.167 -13.024  -1.333  1.00  0.00     0.108 A 
HETATM   13  N   UNL     1      38.125 -12.140  -1.489  1.00  0.00    -0.333 N 
HETATM   14  C   UNL     1      37.085 -12.014  -0.599  1.00  0.00     0.245 A 
HETATM   15  H   UNL     1      38.095 -11.527  -2.295  1.00  0.00     0.168 HD
HETATM   16  O   UNL     1      36.158 -11.230  -0.759  1.00  0.00    -0.268 OA
HETATM   17  C   UNL     1      37.153 -12.892   0.599  1.00  0.00     0.075 A 
HETATM   18  C   UNL     1      38.174 -13.751   0.741  1.00  0.00     0.024 A 
ENDBRANCH   8  11
ENDBRANCH   4   7
BRANCH   1  19
HETATM   19  O   UNL     1      44.509 -18.859   2.750  1.00  0.00    -0.311 OA
BRANCH  19  20
HETATM   20  C   UNL     1      44.324 -19.503   3.956  1.00  0.00     0.076 A 
HETATM   21  C   UNL     1      44.776 -20.823   4.014  1.00  0.00     0.037 A 
HETATM   22  C   UNL     1      44.666 -21.552   5.200  1.00  0.00     0.003 A 
HETATM   23  C   UNL     1      44.111 -20.958   6.334  1.00  0.00     0.000 A 
HETATM   24  C   UNL     1      43.674 -19.634   6.283  1.00  0.00     0.003 A 
HETATM   25  C   UNL     1      43.786 -18.904   5.099  1.00  0.00     0.037 A 
ENDBRANCH  19  20
ENDBRANCH   1  19
TORSDOF 4
ENDMDL
MODEL 10
REMARK VINA RESULT:      -7.2      2.718      3.442
REMARK  4 active torsions:
REMARK  status: ('A' for Active; 'I' for Inactive)
REMARK    1  A    between atoms: C_4  and  O_5 
REMARK    2  A    between atoms: O_5  and  C_6 
REMARK    3  A    between atoms: C_9  and  N_10 
REMARK       I    between atoms: N_10  and  C_11 
REMARK    4  A    between atoms: C_11  and  C_12 
ROOT
HETATM    1  C   UNL     1      43.439 -17.627   3.835  1.00  0.00     0.076 A 
HETATM    2  C   UNL     1      43.792 -16.721   2.841  1.00  0.00     0.039 A 
HETATM    3  C   UNL     1      42.835 -15.842   2.324  1.00  0.00     0.032 A 
HETATM    4  C   UNL     1      41.516 -15.881   2.784  1.00  0.00     0.035 A 
HETATM    5  C   UNL     1      41.165 -16.825   3.762  1.00  0.00     0.032 A 
HETATM    6  C   UNL     1      42.122 -17.701   4.284  1.00  0.00     0.039 A 
ENDROOT
BRANCH   4   7
HETATM    7  N   UNL     1      40.498 -15.012   2.336  1.00  0.00    -0.323 N 
HETATM    8  C   UNL     1      40.408 -13.650   2.545  1.00  0.00     0.257 C 
HETATM    9  O   UNL     1      41.241 -12.930   3.084  1.00  0.00    -0.267 OA
HETATM   10  H   UNL     1      39.770 -15.442   1.782  1.00  0.00     0.169 HD
BRANCH   8  11
HETATM   11  C   UNL     1      39.147 -13.053   1.994  1.00  0.00     0.048 A 
HETATM   12  C   UNL     1      38.487 -13.752   1.053  1.00  0.00     0.108 A 
HETATM   13  N   UNL     1      37.332 -13.258   0.496  1.00  0.00    -0.333 N 
HETATM   14  C   UNL     1      36.776 -12.045   0.827  1.00  0.00     0.245 A 
HETATM   15  H   UNL     1      36.838 -13.793  -0.209  1.00  0.00     0.168 HD
HETATM   16  O   UNL     1      35.739 -11.624   0.329  1.00  0.00    -0.268 OA
HETATM   17  C   UNL     1      37.524 -11.249   1.836  1.00  0.00     0.075 A 
HETATM   18  C   UNL     1      38.651 -11.741   2.375  1.00  0.00     0.024 A 
ENDBRANCH   8  11
ENDBRANCH   4   7
BRANCH   1  19
HETATM   19  O   UNL     1      44.403 -18.482   4.308  1.00  0.00    -0.311 OA
BRANCH  19  20
HETATM   20  C   UNL     1      44.379 -19.783   3.851  1.00  0.00     0.076 A 
HETATM   21  C   UNL     1      43.990 -19.952   2.521  1.00  0.00     0.037 A 
HETATM   22  C   UNL     1      43.966 -21.227   1.953  1.00  0.00     0.003 A 
HETATM   23  C   UNL     1      44.341 -22.336   2.713  1.00  0.00     0.000 A 
HETATM   24  C   UNL     1      44.746 -22.168   4.036  1.00  0.00     0.003 A 
HETATM   25  C   UNL     1      44.773 -20.893   4.605  1.00  0.00     0.037 A 
ENDBRANCH  19  20
ENDBRANCH   1  19
TORSDOF 4
ENDMDL
