MODEL 1
REMARK VINA RESULT:      -8.2      0.000      0.000
REMARK  2 active torsions:
REMARK  status: ('A' for Active; 'I' for Inactive)
REMARK    1  A    between atoms: C_4  and  C_5 
REMARK    2  A    between atoms: C_10  and  C_11 
ROOT
HETATM    1  C   UNL     1      43.185 -16.759   5.326  1.00  0.00     0.224 C 
HETATM    2  N   UNL     1      41.794 -16.754   4.842  1.00  0.00    -0.359 N 
HETATM    3  C   UNL     1      41.082 -18.028   4.939  1.00  0.00     0.152 C 
HETATM    4  C   UNL     1      41.608 -15.995   3.665  1.00  0.00     0.047 A 
HETATM    5  C   UNL     1      42.424 -14.877   3.407  1.00  0.00     0.058 A 
HETATM    6  C   UNL     1      43.464 -14.525   4.390  1.00  0.00     0.255 C 
HETATM    7  O   UNL     1      44.149 -13.512   4.292  1.00  0.00    -0.268 OA
HETATM    8  N   UNL     1      43.622 -15.392   5.429  1.00  0.00    -0.331 N 
HETATM    9  C   UNL     1      40.597 -16.257   2.725  1.00  0.00     0.030 A 
HETATM   10  C   UNL     1      40.433 -15.467   1.577  1.00  0.00     0.002 A 
HETATM   11  C   UNL     1      41.268 -14.380   1.345  1.00  0.00     0.001 A 
HETATM   12  C   UNL     1      42.265 -14.077   2.265  1.00  0.00     0.019 A 
HETATM   13  H   UNL     1      44.427 -15.192   6.001  1.00  0.00     0.165 HD
ENDROOT
BRANCH   1  14
HETATM   14  C   UNL     1      43.445 -17.380   6.671  1.00  0.00     0.034 A 
HETATM   15  C   UNL     1      43.916 -18.694   6.957  1.00  0.00     0.122 A 
HETATM   16  N   UNL     1      44.052 -18.902   8.276  1.00  0.00    -0.172 NA
HETATM   17  N   UNL     1      43.642 -17.754   8.832  1.00  0.00    -0.288 N 
HETATM   18  H   UNL     1      43.645 -17.682   9.845  1.00  0.00     0.188 HD
HETATM   19  C   UNL     1      43.261 -16.818   7.925  1.00  0.00     0.123 A 
BRANCH  15  20
HETATM   20  C   UNL     1      44.215 -19.771   5.963  1.00  0.00     0.106 A 
HETATM   21  O   UNL     1      44.406 -19.568   4.623  1.00  0.00    -0.313 OA
HETATM   22  C   UNL     1      44.638 -20.781   4.050  1.00  0.00     0.050 A 
HETATM   23  C   UNL     1      44.865 -20.790   2.593  1.00  0.00     0.076 C 
HETATM   24  C   UNL     1      44.597 -21.771   5.008  1.00  0.00     0.035 A 
HETATM   25  C   UNL     1      44.322 -21.121   6.235  1.00  0.00     0.042 A 
ENDBRANCH  15  20
ENDBRANCH   1  14
TORSDOF 2
ENDMDL
MODEL 2
REMARK VINA RESULT:      -7.9      2.021      2.258
REMARK  2 active torsions:
REMARK  status: ('A' for Active; 'I' for Inactive)
REMARK    1  A    between atoms: C_4  and  C_5 
REMARK    2  A    between atoms: C_10  and  C_11 
ROOT
HETATM    1  C   UNL     1      42.934 -16.491   5.857  1.00  0.00     0.224 C 
HETATM    2  N   UNL     1      41.620 -15.921   6.200  1.00  0.00    -0.359 N 
HETATM    3  C   UNL     1      40.506 -16.868   6.237  1.00  0.00     0.152 C 
HETATM    4  C   UNL     1      41.380 -14.660   5.609  1.00  0.00     0.047 A 
HETATM    5  C   UNL     1      42.452 -13.788   5.340  1.00  0.00     0.058 A 
HETATM    6  C   UNL     1      43.816 -14.223   5.690  1.00  0.00     0.255 C 
HETATM    7  O   UNL     1      44.791 -13.488   5.582  1.00  0.00    -0.268 OA
HETATM    8  N   UNL     1      43.935 -15.500   6.151  1.00  0.00    -0.331 N 
HETATM    9  C   UNL     1      40.095 -14.177   5.308  1.00  0.00     0.030 A 
HETATM   10  C   UNL     1      39.897 -12.911   4.738  1.00  0.00     0.002 A 
HETATM   11  C   UNL     1      40.981 -12.082   4.470  1.00  0.00     0.001 A 
HETATM   12  C   UNL     1      42.265 -12.517   4.777  1.00  0.00     0.019 A 
HETATM   13  H   UNL     1      44.892 -15.805   6.249  1.00  0.00     0.165 HD
ENDROOT
BRANCH   1  14
HETATM   14  C   UNL     1      43.357 -17.737   6.586  1.00  0.00     0.034 A 
HETATM   15  C   UNL     1      43.784 -18.977   6.033  1.00  0.00     0.122 A 
HETATM   16  N   UNL     1      44.106 -19.867   6.984  1.00  0.00    -0.172 NA
HETATM   17  N   UNL     1      43.857 -19.223   8.132  1.00  0.00    -0.288 N 
HETATM   18  H   UNL     1      44.018 -19.716   9.005  1.00  0.00     0.188 HD
HETATM   19  C   UNL     1      43.401 -17.956   7.955  1.00  0.00     0.123 A 
BRANCH  15  20
HETATM   20  C   UNL     1      43.862 -19.327   4.580  1.00  0.00     0.106 A 
HETATM   21  O   UNL     1      44.205 -20.557   4.088  1.00  0.00    -0.313 OA
HETATM   22  C   UNL     1      44.180 -20.481   2.729  1.00  0.00     0.050 A 
HETATM   23  C   UNL     1      44.529 -21.711   1.993  1.00  0.00     0.076 C 
HETATM   24  C   UNL     1      43.826 -19.209   2.334  1.00  0.00     0.035 A 
HETATM   25  C   UNL     1      43.625 -18.468   3.523  1.00  0.00     0.042 A 
ENDBRANCH  15  20
ENDBRANCH   1  14
TORSDOF 2
ENDMDL
MODEL 3
REMARK VINA RESULT:      -7.8      1.797      5.566
REMARK  2 active torsions:
REMARK  status: ('A' for Active; 'I' for Inactive)
REMARK    1  A    between atoms: C_4  and  C_5 
REMARK    2  A    between atoms: C_10  and  C_11 
ROOT
HETATM    1  C   UNL     1      44.241 -17.850   4.960  1.00  0.00     0.224 C 
HETATM    2  N   UNL     1      43.817 -19.099   5.614  1.00  0.00    -0.359 N 
HETATM    3  C   UNL     1      43.971 -19.140   7.067  1.00  0.00     0.152 C 
HETATM    4  C   UNL     1      44.167 -20.262   4.891  1.00  0.00     0.047 A 
HETATM    5  C   UNL     1      44.255 -20.224   3.486  1.00  0.00     0.058 A 
HETATM    6  C   UNL     1      43.972 -18.950   2.800  1.00  0.00     0.255 C 
HETATM    7  O   UNL     1      43.929 -18.855   1.578  1.00  0.00    -0.268 OA
HETATM    8  N   UNL     1      43.755 -17.873   3.605  1.00  0.00    -0.331 N 
HETATM    9  C   UNL     1      44.391 -21.511   5.494  1.00  0.00     0.030 A 
HETATM   10  C   UNL     1      44.718 -22.647   4.739  1.00  0.00     0.002 A 
HETATM   11  C   UNL     1      44.813 -22.570   3.354  1.00  0.00     0.001 A 
HETATM   12  C   UNL     1      44.575 -21.355   2.721  1.00  0.00     0.019 A 
HETATM   13  H   UNL     1      43.702 -17.000   3.104  1.00  0.00     0.165 HD
ENDROOT
BRANCH   1  14
HETATM   14  C   UNL     1      43.750 -16.558   5.555  1.00  0.00     0.034 A 
HETATM   15  C   UNL     1      42.729 -15.695   5.063  1.00  0.00     0.122 A 
HETATM   16  N   UNL     1      42.539 -14.635   5.864  1.00  0.00    -0.172 NA
HETATM   17  N   UNL     1      43.447 -14.794   6.837  1.00  0.00    -0.288 N 
HETATM   18  H   UNL     1      43.498 -14.089   7.566  1.00  0.00     0.188 HD
HETATM   19  C   UNL     1      44.200 -15.916   6.698  1.00  0.00     0.123 A 
BRANCH  15  20
HETATM   20  C   UNL     1      41.943 -15.870   3.802  1.00  0.00     0.106 A 
HETATM   21  O   UNL     1      42.422 -15.633   2.542  1.00  0.00    -0.313 OA
HETATM   22  C   UNL     1      41.415 -15.887   1.662  1.00  0.00     0.050 A 
HETATM   23  C   UNL     1      41.721 -15.686   0.233  1.00  0.00     0.076 C 
HETATM   24  C   UNL     1      40.283 -16.284   2.341  1.00  0.00     0.035 A 
HETATM   25  C   UNL     1      40.623 -16.270   3.716  1.00  0.00     0.042 A 
ENDBRANCH  15  20
ENDBRANCH   1  14
TORSDOF 2
ENDMDL
MODEL 4
REMARK VINA RESULT:      -7.7      2.299      6.135
REMARK  2 active torsions:
REMARK  status: ('A' for Active; 'I' for Inactive)
REMARK    1  A    between atoms: C_4  and  C_5 
REMARK    2  A    between atoms: C_10  and  C_11 
ROOT
HETATM    1  C   UNL     1      42.163 -16.527   4.183  1.00  0.00     0.224 C 
HETATM    2  N   UNL     1      42.623 -17.687   4.966  1.00  0.00    -0.359 N 
HETATM    3  C   UNL     1      43.161 -17.386   6.292  1.00  0.00     0.152 C 
HETATM    4  C   UNL     1      43.304 -18.655   4.194  1.00  0.00     0.047 A 
HETATM    5  C   UNL     1      42.979 -18.834   2.835  1.00  0.00     0.058 A 
HETATM    6  C   UNL     1      41.918 -17.993   2.250  1.00  0.00     0.255 C 
HETATM    7  O   UNL     1      41.506 -18.153   1.107  1.00  0.00    -0.268 OA
HETATM    8  N   UNL     1      41.412 -17.022   3.060  1.00  0.00    -0.331 N 
HETATM    9  C   UNL     1      44.281 -19.517   4.718  1.00  0.00     0.030 A 
HETATM   10  C   UNL     1      44.921 -20.479   3.922  1.00  0.00     0.002 A 
HETATM   11  C   UNL     1      44.587 -20.617   2.580  1.00  0.00     0.001 A 
HETATM   12  C   UNL     1      43.607 -19.797   2.032  1.00  0.00     0.019 A 
HETATM   13  H   UNL     1      40.792 -16.384   2.584  1.00  0.00     0.165 HD
ENDROOT
BRANCH   1  14
HETATM   14  C   UNL     1      41.267 -15.538   4.878  1.00  0.00     0.034 A 
HETATM   15  C   UNL     1      40.809 -14.278   4.397  1.00  0.00     0.122 A 
HETATM   16  N   UNL     1      40.003 -13.667   5.280  1.00  0.00    -0.172 NA
HETATM   17  N   UNL     1      39.971 -14.503   6.326  1.00  0.00    -0.288 N 
HETATM   18  H   UNL     1      39.421 -14.237   7.137  1.00  0.00     0.188 HD
HETATM   19  C   UNL     1      40.712 -15.627   6.145  1.00  0.00     0.123 A 
BRANCH  15  20
HETATM   20  C   UNL     1      41.164 -13.637   3.092  1.00  0.00     0.106 A 
HETATM   21  O   UNL     1      41.148 -14.271   1.879  1.00  0.00    -0.313 OA
HETATM   22  C   UNL     1      41.544 -13.371   0.938  1.00  0.00     0.050 A 
HETATM   23  C   UNL     1      41.604 -13.856  -0.454  1.00  0.00     0.076 C 
HETATM   24  C   UNL     1      41.821 -12.158   1.530  1.00  0.00     0.035 A 
HETATM   25  C   UNL     1      41.579 -12.331   2.914  1.00  0.00     0.042 A 
ENDBRANCH  15  20
ENDBRANCH   1  14
TORSDOF 2
ENDMDL
MODEL 5
REMARK VINA RESULT:      -7.7      2.503      6.166
REMARK  2 active torsions:
REMARK  status: ('A' for Active; 'I' for Inactive)
REMARK    1  A    between atoms: C_4  and  C_5 
REMARK    2  A    between atoms: C_10  and  C_11 
ROOT
HETATM    1  C   UNL     1      43.036 -16.337   4.751  1.00  0.00     0.224 C 
HETATM    2  N   UNL     1      42.609 -17.485   5.568  1.00  0.00    -0.359 N 
HETATM    3  C   UNL     1      42.250 -17.183   6.953  1.00  0.00     0.152 C 
HETATM    4  C   UNL     1      43.365 -18.656   5.335  1.00  0.00     0.047 A 
HETATM    5  C   UNL     1      43.931 -18.894   4.068  1.00  0.00     0.058 A 
HETATM    6  C   UNL     1      43.714 -17.897   3.004  1.00  0.00     0.255 C 
HETATM    7  O   UNL     1      44.086 -18.073   1.849  1.00  0.00    -0.268 OA
HETATM    8  N   UNL     1      43.064 -16.758   3.376  1.00  0.00    -0.331 N 
HETATM    9  C   UNL     1      43.554 -19.661   6.299  1.00  0.00     0.030 A 
HETATM   10  C   UNL     1      44.296 -20.819   6.021  1.00  0.00     0.002 A 
HETATM   11  C   UNL     1      44.856 -21.013   4.764  1.00  0.00     0.001 A 
HETATM   12  C   UNL     1      44.669 -20.050   3.779  1.00  0.00     0.019 A 
HETATM   13  H   UNL     1      43.056 -16.048   2.661  1.00  0.00     0.165 HD
ENDROOT
BRANCH   1  14
HETATM   14  C   UNL     1      42.175 -15.104   4.790  1.00  0.00     0.034 A 
HETATM   15  C   UNL     1      42.403 -13.894   5.505  1.00  0.00     0.122 A 
HETATM   16  N   UNL     1      41.431 -12.993   5.291  1.00  0.00    -0.172 NA
HETATM   17  N   UNL     1      40.573 -13.625   4.480  1.00  0.00    -0.288 N 
HETATM   18  H   UNL     1      39.735 -13.132   4.188  1.00  0.00     0.188 HD
HETATM   19  C   UNL     1      40.961 -14.887   4.157  1.00  0.00     0.123 A 
BRANCH  15  20
HETATM   20  C   UNL     1      43.548 -13.601   6.423  1.00  0.00     0.106 A 
HETATM   21  O   UNL     1      43.467 -12.844   7.560  1.00  0.00    -0.313 OA
HETATM   22  C   UNL     1      44.709 -12.793   8.113  1.00  0.00     0.050 A 
HETATM   23  C   UNL     1      44.846 -12.012   9.357  1.00  0.00     0.076 C 
HETATM   24  C   UNL     1      45.599 -13.510   7.343  1.00  0.00     0.035 A 
HETATM   25  C   UNL     1      44.853 -14.026   6.256  1.00  0.00     0.042 A 
ENDBRANCH  15  20
ENDBRANCH   1  14
TORSDOF 2
ENDMDL
MODEL 6
REMARK VINA RESULT:      -7.7      2.390      3.698
REMARK  2 active torsions:
REMARK  status: ('A' for Active; 'I' for Inactive)
REMARK    1  A    between atoms: C_4  and  C_5 
REMARK    2  A    between atoms: C_10  and  C_11 
ROOT
HETATM    1  C   UNL     1      41.568 -15.163   2.489  1.00  0.00     0.224 C 
HETATM    2  N   UNL     1      40.697 -15.621   1.393  1.00  0.00    -0.359 N 
HETATM    3  C   UNL     1      40.274 -17.020   1.459  1.00  0.00     0.152 C 
HETATM    4  C   UNL     1      41.069 -15.115   0.127  1.00  0.00     0.047 A 
HETATM    5  C   UNL     1      41.692 -13.857   0.022  1.00  0.00     0.058 A 
HETATM    6  C   UNL     1      41.941 -13.092   1.257  1.00  0.00     0.255 C 
HETATM    7  O   UNL     1      42.386 -11.949   1.246  1.00  0.00    -0.268 OA
HETATM    8  N   UNL     1      41.641 -13.728   2.424  1.00  0.00    -0.331 N 
HETATM    9  C   UNL     1      40.803 -15.781  -1.082  1.00  0.00     0.030 A 
HETATM   10  C   UNL     1      41.171 -15.235  -2.321  1.00  0.00     0.002 A 
HETATM   11  C   UNL     1      41.801 -13.997  -2.387  1.00  0.00     0.001 A 
HETATM   12  C   UNL     1      42.058 -13.300  -1.212  1.00  0.00     0.019 A 
HETATM   13  H   UNL     1      41.951 -13.230   3.244  1.00  0.00     0.165 HD
ENDROOT
BRANCH   1  14
HETATM   14  C   UNL     1      41.143 -15.494   3.893  1.00  0.00     0.034 A 
HETATM   15  C   UNL     1      41.613 -16.547   4.729  1.00  0.00     0.122 A 
HETATM   16  N   UNL     1      41.023 -16.531   5.935  1.00  0.00    -0.172 NA
HETATM   17  N   UNL     1      40.162 -15.508   5.864  1.00  0.00    -0.288 N 
HETATM   18  H   UNL     1      39.583 -15.310   6.675  1.00  0.00     0.188 HD
HETATM   19  C   UNL     1      40.184 -14.861   4.669  1.00  0.00     0.123 A 
BRANCH  15  20
HETATM   20  C   UNL     1      42.618 -17.594   4.366  1.00  0.00     0.106 A 
HETATM   21  O   UNL     1      42.531 -18.418   3.276  1.00  0.00    -0.313 OA
HETATM   22  C   UNL     1      43.615 -19.240   3.293  1.00  0.00     0.050 A 
HETATM   23  C   UNL     1      43.715 -20.223   2.197  1.00  0.00     0.076 C 
HETATM   24  C   UNL     1      44.405 -18.960   4.387  1.00  0.00     0.035 A 
HETATM   25  C   UNL     1      43.761 -17.905   5.077  1.00  0.00     0.042 A 
ENDBRANCH  15  20
ENDBRANCH   1  14
TORSDOF 2
ENDMDL
MODEL 7
REMARK VINA RESULT:      -7.3      2.749      6.800
REMARK  2 active torsions:
REMARK  status: ('A' for Active; 'I' for Inactive)
REMARK    1  A    between atoms: C_4  and  C_5 
REMARK    2  A    between atoms: C_10  and  C_11 
ROOT
HETATM    1  C   UNL     1      41.703 -17.260   3.418  1.00  0.00     0.224 C 
HETATM    2  N   UNL     1      43.126 -17.192   3.790  1.00  0.00    -0.359 N 
HETATM    3  C   UNL     1      44.070 -17.700   2.795  1.00  0.00     0.152 C 
HETATM    4  C   UNL     1      43.373 -17.519   5.143  1.00  0.00     0.047 A 
HETATM    5  C   UNL     1      42.398 -17.255   6.124  1.00  0.00     0.058 A 
HETATM    6  C   UNL     1      41.128 -16.635   5.704  1.00  0.00     0.255 C 
HETATM    7  O   UNL     1      40.270 -16.282   6.505  1.00  0.00    -0.268 OA
HETATM    8  N   UNL     1      40.961 -16.468   4.362  1.00  0.00    -0.331 N 
HETATM    9  C   UNL     1      44.586 -18.060   5.601  1.00  0.00     0.030 A 
HETATM   10  C   UNL     1      44.798 -18.353   6.956  1.00  0.00     0.002 A 
HETATM   11  C   UNL     1      43.807 -18.096   7.897  1.00  0.00     0.001 A 
HETATM   12  C   UNL     1      42.602 -17.539   7.482  1.00  0.00     0.019 A 
HETATM   13  H   UNL     1      40.033 -16.169   4.106  1.00  0.00     0.165 HD
ENDROOT
BRANCH   1  14
HETATM   14  C   UNL     1      41.321 -16.749   2.055  1.00  0.00     0.034 A 
HETATM   15  C   UNL     1      41.048 -15.407   1.665  1.00  0.00     0.122 A 
HETATM   16  N   UNL     1      40.757 -15.314   0.358  1.00  0.00    -0.172 NA
HETATM   17  N   UNL     1      40.808 -16.579  -0.079  1.00  0.00    -0.288 N 
HETATM   18  H   UNL     1      40.605 -16.759  -1.057  1.00  0.00     0.188 HD
HETATM   19  C   UNL     1      41.129 -17.475   0.891  1.00  0.00     0.123 A 
BRANCH  15  20
HETATM   20  C   UNL     1      41.040 -14.202   2.553  1.00  0.00     0.106 A 
HETATM   21  O   UNL     1      39.973 -13.793   3.306  1.00  0.00    -0.313 OA
HETATM   22  C   UNL     1      40.341 -12.658   3.961  1.00  0.00     0.050 A 
HETATM   23  C   UNL     1      39.324 -12.040   4.833  1.00  0.00     0.076 C 
HETATM   24  C   UNL     1      41.639 -12.325   3.637  1.00  0.00     0.035 A 
HETATM   25  C   UNL     1      42.085 -13.316   2.730  1.00  0.00     0.042 A 
ENDBRANCH  15  20
ENDBRANCH   1  14
TORSDOF 2
ENDMDL
MODEL 8
REMARK VINA RESULT:      -7.3      2.456      3.898
REMARK  2 active torsions:
REMARK  status: ('A' for Active; 'I' for Inactive)
REMARK    1  A    between atoms: C_4  and  C_5 
REMARK    2  A    between atoms: C_10  and  C_11 
ROOT
HETATM    1  C   UNL     1      42.797 -16.374   2.201  1.00  0.00     0.224 C 
HETATM    2  N   UNL     1      41.361 -16.104   2.378  1.00  0.00    -0.359 N 
HETATM    3  C   UNL     1      40.451 -17.056   1.741  1.00  0.00     0.152 C 
HETATM    4  C   UNL     1      41.029 -14.733   2.292  1.00  0.00     0.047 A 
HETATM    5  C   UNL     1      41.961 -13.753   2.685  1.00  0.00     0.058 A 
HETATM    6  C   UNL     1      43.276 -14.194   3.183  1.00  0.00     0.255 C 
HETATM    7  O   UNL     1      44.105 -13.414   3.637  1.00  0.00    -0.268 OA
HETATM    8  N   UNL     1      43.521 -15.533   3.116  1.00  0.00    -0.331 N 
HETATM    9  C   UNL     1      39.771 -14.264   1.878  1.00  0.00     0.030 A 
HETATM   10  C   UNL     1      39.475 -12.895   1.825  1.00  0.00     0.002 A 
HETATM   11  C   UNL     1      40.424 -11.953   2.204  1.00  0.00     0.001 A 
HETATM   12  C   UNL     1      41.672 -12.381   2.642  1.00  0.00     0.019 A 
HETATM   13  H   UNL     1      44.474 -15.779   3.336  1.00  0.00     0.165 HD
ENDROOT
BRANCH   1  14
HETATM   14  C   UNL     1      43.273 -17.778   2.462  1.00  0.00     0.034 A 
HETATM   15  C   UNL     1      43.248 -18.501   3.688  1.00  0.00     0.122 A 
HETATM   16  N   UNL     1      43.738 -19.743   3.549  1.00  0.00    -0.172 NA
HETATM   17  N   UNL     1      44.106 -19.806   2.262  1.00  0.00    -0.288 N 
HETATM   18  H   UNL     1      44.525 -20.667   1.923  1.00  0.00     0.188 HD
HETATM   19  C   UNL     1      43.861 -18.662   1.571  1.00  0.00     0.123 A 
BRANCH  15  20
HETATM   20  C   UNL     1      42.774 -17.994   5.014  1.00  0.00     0.106 A 
HETATM   21  O   UNL     1      43.561 -17.849   6.123  1.00  0.00    -0.313 OA
HETATM   22  C   UNL     1      42.774 -17.381   7.131  1.00  0.00     0.050 A 
HETATM   23  C   UNL     1      43.432 -17.158   8.432  1.00  0.00     0.076 C 
HETATM   24  C   UNL     1      41.480 -17.224   6.685  1.00  0.00     0.035 A 
HETATM   25  C   UNL     1      41.480 -17.622   5.326  1.00  0.00     0.042 A 
ENDBRANCH  15  20
ENDBRANCH   1  14
TORSDOF 2
ENDMDL
MODEL 9
REMARK VINA RESULT:      -7.2      3.340      7.213
REMARK  2 active torsions:
REMARK  status: ('A' for Active; 'I' for Inactive)
REMARK    1  A    between atoms: C_4  and  C_5 
REMARK    2  A    between atoms: C_10  and  C_11 
ROOT
HETATM    1  C   UNL     1      40.623 -15.054   3.266  1.00  0.00     0.224 C 
HETATM    2  N   UNL     1      42.007 -14.991   2.767  1.00  0.00    -0.359 N 
HETATM    3  C   UNL     1      42.270 -13.981   1.743  1.00  0.00     0.152 C 
HETATM    4  C   UNL     1      42.603 -16.261   2.593  1.00  0.00     0.047 A 
HETATM    5  C   UNL     1      42.222 -17.341   3.412  1.00  0.00     0.058 A 
HETATM    6  C   UNL     1      41.196 -17.110   4.446  1.00  0.00     0.255 C 
HETATM    7  O   UNL     1      40.880 -17.966   5.264  1.00  0.00    -0.268 OA
HETATM    8  N   UNL     1      40.616 -15.877   4.446  1.00  0.00    -0.331 N 
HETATM    9  C   UNL     1      43.623 -16.518   1.661  1.00  0.00     0.030 A 
HETATM   10  C   UNL     1      44.202 -17.788   1.532  1.00  0.00     0.002 A 
HETATM   11  C   UNL     1      43.790 -18.837   2.346  1.00  0.00     0.001 A 
HETATM   12  C   UNL     1      42.799 -18.614   3.296  1.00  0.00     0.019 A 
HETATM   13  H   UNL     1      39.829 -15.803   5.072  1.00  0.00     0.165 HD
ENDROOT
BRANCH   1  14
HETATM   14  C   UNL     1      39.973 -13.756   3.661  1.00  0.00     0.034 A 
HETATM   15  C   UNL     1      39.155 -12.905   2.864  1.00  0.00     0.122 A 
HETATM   16  N   UNL     1      38.727 -11.834   3.552  1.00  0.00    -0.172 NA
HETATM   17  N   UNL     1      39.288 -11.976   4.760  1.00  0.00    -0.288 N 
HETATM   18  H   UNL     1      39.112 -11.261   5.460  1.00  0.00     0.188 HD
HETATM   19  C   UNL     1      40.047 -13.097   4.878  1.00  0.00     0.123 A 
BRANCH  15  20
HETATM   20  C   UNL     1      38.799 -13.100   1.425  1.00  0.00     0.106 A 
HETATM   21  O   UNL     1      39.354 -12.412   0.380  1.00  0.00    -0.313 OA
HETATM   22  C   UNL     1      38.767 -12.853  -0.765  1.00  0.00     0.050 A 
HETATM   23  C   UNL     1      39.221 -12.230  -2.023  1.00  0.00     0.076 C 
HETATM   24  C   UNL     1      37.831 -13.822  -0.473  1.00  0.00     0.035 A 
HETATM   25  C   UNL     1      37.850 -13.977   0.934  1.00  0.00     0.042 A 
ENDBRANCH  15  20
ENDBRANCH   1  14
TORSDOF 2
ENDMDL
MODEL 10
REMARK VINA RESULT:      -7.2      1.891      5.973
REMARK  2 active torsions:
REMARK  status: ('A' for Active; 'I' for Inactive)
REMARK    1  A    between atoms: C_4  and  C_5 
REMARK    2  A    between atoms: C_10  and  C_11 
ROOT
HETATM    1  C   UNL     1      43.017 -16.650   4.556  1.00  0.00     0.224 C 
HETATM    2  N   UNL     1      43.877 -17.155   3.473  1.00  0.00    -0.359 N 
HETATM    3  C   UNL     1      43.672 -16.545   2.160  1.00  0.00     0.152 C 
HETATM    4  C   UNL     1      44.074 -18.554   3.514  1.00  0.00     0.047 A 
HETATM    5  C   UNL     1      44.057 -19.236   4.746  1.00  0.00     0.058 A 
HETATM    6  C   UNL     1      43.832 -18.456   5.977  1.00  0.00     0.255 C 
HETATM    7  O   UNL     1      43.901 -18.954   7.095  1.00  0.00    -0.268 OA
HETATM    8  N   UNL     1      43.544 -17.136   5.803  1.00  0.00    -0.331 N 
HETATM    9  C   UNL     1      44.347 -19.332   2.377  1.00  0.00     0.030 A 
HETATM   10  C   UNL     1      44.556 -20.716   2.463  1.00  0.00     0.002 A 
HETATM   11  C   UNL     1      44.515 -21.361   3.694  1.00  0.00     0.001 A 
HETATM   12  C   UNL     1      44.271 -20.618   4.844  1.00  0.00     0.019 A 
HETATM   13  H   UNL     1      43.264 -16.670   6.652  1.00  0.00     0.165 HD
ENDROOT
BRANCH   1  14
HETATM   14  C   UNL     1      42.902 -15.157   4.707  1.00  0.00     0.034 A 
HETATM   15  C   UNL     1      42.038 -14.266   4.009  1.00  0.00     0.122 A 
HETATM   16  N   UNL     1      42.192 -12.996   4.415  1.00  0.00    -0.172 NA
HETATM   17  N   UNL     1      43.164 -13.063   5.335  1.00  0.00    -0.288 N 
HETATM   18  H   UNL     1      43.465 -12.202   5.781  1.00  0.00     0.188 HD
HETATM   19  C   UNL     1      43.629 -14.323   5.542  1.00  0.00     0.123 A 
BRANCH  15  20
HETATM   20  C   UNL     1      41.073 -14.626   2.924  1.00  0.00     0.106 A 
HETATM   21  O   UNL     1      41.172 -14.218   1.621  1.00  0.00    -0.313 OA
HETATM   22  C   UNL     1      40.107 -14.731   0.946  1.00  0.00     0.050 A 
HETATM   23  C   UNL     1      40.017 -14.403  -0.490  1.00  0.00     0.076 C 
HETATM   24  C   UNL     1      39.315 -15.467   1.800  1.00  0.00     0.035 A 
HETATM   25  C   UNL     1      39.935 -15.396   3.071  1.00  0.00     0.042 A 
ENDBRANCH  15  20
ENDBRANCH   1  14
TORSDOF 2
ENDMDL
