MODEL 1
REMARK VINA RESULT:      -7.4      0.000      0.000
REMARK  5 active torsions:
REMARK  status: ('A' for Active; 'I' for Inactive)
REMARK    1  A    between atoms: C_3  and  N_4 
REMARK       I    between atoms: N_4  and  C_5 
REMARK       I    between atoms: C_5  and  N_6 
REMARK    2  A    between atoms: N_6  and  C_7 
REMARK    3  A    between atoms: C_7  and  C_8 
REMARK    4  A    between atoms: C_8  and  O_9 
REMARK    5  A    between atoms: O_9  and  C_10 
ROOT
HETATM    1  N   UNL     1      44.355 -18.879   2.447  1.00  0.00    -0.307 N 
HETATM    2  C   UNL     1      43.268 -18.036   2.501  1.00  0.00     0.320 C 
HETATM    3  N   UNL     1      43.479 -16.924   1.713  1.00  0.00    -0.340 N 
HETATM    4  O   UNL     1      42.219 -18.230   3.100  1.00  0.00    -0.247 OA
HETATM    5  H   UNL     1      44.840 -18.816   1.564  1.00  0.00     0.170 HD
HETATM    6  H   UNL     1      44.437 -16.637   1.567  1.00  0.00     0.164 HD
ENDROOT
BRANCH   3   7
HETATM    7  C   UNL     1      42.469 -15.885   1.583  1.00  0.00     0.156 C 
BRANCH   7   8
HETATM    8  C   UNL     1      42.708 -14.672   2.502  1.00  0.00     0.142 C 
HETATM    9  C   UNL     1      42.205 -13.367   1.887  1.00  0.00     0.042 C 
BRANCH   8  10
HETATM   10  O   UNL     1      42.007 -14.849   3.744  1.00  0.00    -0.345 OA
BRANCH  10  11
HETATM   11  C   UNL     1      42.722 -15.022   4.896  1.00  0.00     0.070 A 
HETATM   12  C   UNL     1      42.559 -16.048   5.828  1.00  0.00     0.060 A 
HETATM   13  C   UNL     1      43.363 -16.082   6.971  1.00  0.00     0.036 A 
HETATM   14 CL   UNL     1      43.152 -17.348   8.120  1.00  0.00    -0.084 Cl
HETATM   15  C   UNL     1      44.329 -15.104   7.196  1.00  0.00     0.024 A 
HETATM   16  C   UNL     1      44.493 -14.078   6.269  1.00  0.00     0.004 A 
HETATM   17  C   UNL     1      43.690 -14.040   5.127  1.00  0.00     0.037 A 
ENDBRANCH  10  11
ENDBRANCH   8  10
ENDBRANCH   7   8
ENDBRANCH   3   7
BRANCH   1  18
HETATM   18  C   UNL     1      44.495 -20.106   3.140  1.00  0.00     0.059 A 
HETATM   19  C   UNL     1      44.743 -20.258   4.513  1.00  0.00    -0.032 A 
HETATM   20  C   UNL     1      44.991 -19.127   5.469  1.00  0.00     0.050 C 
HETATM   21  C   UNL     1      44.794 -21.561   5.038  1.00  0.00     0.028 A 
HETATM   22  C   UNL     1      44.665 -22.649   4.188  1.00  0.00     0.117 A 
HETATM   23  N   UNL     1      44.498 -22.537   2.859  1.00  0.00    -0.271 NA
HETATM   24  C   UNL     1      44.419 -21.275   2.375  1.00  0.00     0.146 A 
ENDBRANCH   1  18
TORSDOF 5
ENDMDL
MODEL 2
REMARK VINA RESULT:      -7.4      2.367      3.763
REMARK  5 active torsions:
REMARK  status: ('A' for Active; 'I' for Inactive)
REMARK    1  A    between atoms: C_3  and  N_4 
REMARK       I    between atoms: N_4  and  C_5 
REMARK       I    between atoms: C_5  and  N_6 
REMARK    2  A    between atoms: N_6  and  C_7 
REMARK    3  A    between atoms: C_7  and  C_8 
REMARK    4  A    between atoms: C_8  and  O_9 
REMARK    5  A    between atoms: O_9  and  C_10 
ROOT
HETATM    1  N   UNL     1      44.913 -18.895   5.108  1.00  0.00    -0.307 N 
HETATM    2  C   UNL     1      43.931 -18.178   5.753  1.00  0.00     0.320 C 
HETATM    3  N   UNL     1      44.481 -17.120   6.446  1.00  0.00    -0.340 N 
HETATM    4  O   UNL     1      42.725 -18.376   5.700  1.00  0.00    -0.247 OA
HETATM    5  H   UNL     1      45.701 -18.316   4.854  1.00  0.00     0.170 HD
HETATM    6  H   UNL     1      45.435 -17.222   6.762  1.00  0.00     0.164 HD
ENDROOT
BRANCH   3   7
HETATM    7  C   UNL     1      43.649 -16.192   7.198  1.00  0.00     0.156 C 
BRANCH   7   8
HETATM    8  C   UNL     1      43.702 -14.747   6.669  1.00  0.00     0.142 C 
HETATM    9  C   UNL     1      44.980 -14.021   7.085  1.00  0.00     0.042 C 
BRANCH   8  10
HETATM   10  O   UNL     1      43.668 -14.746   5.232  1.00  0.00    -0.345 OA
BRANCH  10  11
HETATM   11  C   UNL     1      42.462 -14.817   4.592  1.00  0.00     0.070 A 
HETATM   12  C   UNL     1      42.120 -15.691   3.560  1.00  0.00     0.060 A 
HETATM   13  C   UNL     1      40.843 -15.633   2.995  1.00  0.00     0.036 A 
HETATM   14 CL   UNL     1      40.429 -16.711   1.717  1.00  0.00    -0.084 Cl
HETATM   15  C   UNL     1      39.902 -14.711   3.447  1.00  0.00     0.024 A 
HETATM   16  C   UNL     1      40.240 -13.835   4.475  1.00  0.00     0.004 A 
HETATM   17  C   UNL     1      41.516 -13.890   5.041  1.00  0.00     0.037 A 
ENDBRANCH  10  11
ENDBRANCH   8  10
ENDBRANCH   7   8
ENDBRANCH   3   7
BRANCH   1  18
HETATM   18  C   UNL     1      44.718 -20.053   4.316  1.00  0.00     0.059 A 
HETATM   19  C   UNL     1      44.347 -20.078   2.964  1.00  0.00    -0.032 A 
HETATM   20  C   UNL     1      44.004 -18.866   2.146  1.00  0.00     0.050 C 
HETATM   21  C   UNL     1      44.257 -21.327   2.324  1.00  0.00     0.028 A 
HETATM   22  C   UNL     1      44.471 -22.488   3.050  1.00  0.00     0.117 A 
HETATM   23  N   UNL     1      44.758 -22.500   4.363  1.00  0.00    -0.271 NA
HETATM   24  C   UNL     1      44.873 -21.288   4.956  1.00  0.00     0.146 A 
ENDBRANCH   1  18
TORSDOF 5
ENDMDL
MODEL 3
REMARK VINA RESULT:      -7.0      1.994      2.581
REMARK  5 active torsions:
REMARK  status: ('A' for Active; 'I' for Inactive)
REMARK    1  A    between atoms: C_3  and  N_4 
REMARK       I    between atoms: N_4  and  C_5 
REMARK       I    between atoms: C_5  and  N_6 
REMARK    2  A    between atoms: N_6  and  C_7 
REMARK    3  A    between atoms: C_7  and  C_8 
REMARK    4  A    between atoms: C_8  and  O_9 
REMARK    5  A    between atoms: O_9  and  C_10 
ROOT
HETATM    1  N   UNL     1      44.350 -18.977   2.339  1.00  0.00    -0.307 N 
HETATM    2  C   UNL     1      43.194 -18.483   1.779  1.00  0.00     0.320 C 
HETATM    3  N   UNL     1      43.459 -17.345   1.046  1.00  0.00    -0.340 N 
HETATM    4  O   UNL     1      42.078 -18.979   1.845  1.00  0.00    -0.247 OA
HETATM    5  H   UNL     1      45.164 -18.762   1.780  1.00  0.00     0.170 HD
HETATM    6  H   UNL     1      44.258 -16.793   1.325  1.00  0.00     0.164 HD
ENDROOT
BRANCH   3   7
HETATM    7  C   UNL     1      42.404 -16.638   0.335  1.00  0.00     0.156 C 
BRANCH   7   8
HETATM    8  C   UNL     1      41.807 -15.460   1.128  1.00  0.00     0.142 C 
HETATM    9  C   UNL     1      41.289 -14.349   0.217  1.00  0.00     0.042 C 
BRANCH   8  10
HETATM   10  O   UNL     1      40.693 -15.911   1.916  1.00  0.00    -0.345 OA
BRANCH  10  11
HETATM   11  C   UNL     1      40.687 -15.673   3.262  1.00  0.00     0.070 A 
HETATM   12  C   UNL     1      41.254 -16.479   4.250  1.00  0.00     0.060 A 
HETATM   13  C   UNL     1      41.154 -16.106   5.593  1.00  0.00     0.036 A 
HETATM   14 CL   UNL     1      41.852 -17.109   6.808  1.00  0.00    -0.084 Cl
HETATM   15  C   UNL     1      40.493 -14.938   5.964  1.00  0.00     0.024 A 
HETATM   16  C   UNL     1      39.923 -14.132   4.982  1.00  0.00     0.004 A 
HETATM   17  C   UNL     1      40.020 -14.503   3.638  1.00  0.00     0.037 A 
ENDBRANCH  10  11
ENDBRANCH   8  10
ENDBRANCH   7   8
ENDBRANCH   3   7
BRANCH   1  18
HETATM   18  C   UNL     1      44.455 -20.122   3.166  1.00  0.00     0.059 A 
HETATM   19  C   UNL     1      44.400 -21.458   2.741  1.00  0.00    -0.032 A 
HETATM   20  C   UNL     1      44.128 -21.899   1.331  1.00  0.00     0.050 C 
HETATM   21  C   UNL     1      44.582 -22.467   3.703  1.00  0.00     0.028 A 
HETATM   22  C   UNL     1      44.744 -22.125   5.036  1.00  0.00     0.117 A 
HETATM   23  N   UNL     1      44.730 -20.858   5.484  1.00  0.00    -0.271 NA
HETATM   24  C   UNL     1      44.586 -19.897   4.541  1.00  0.00     0.146 A 
ENDBRANCH   1  18
TORSDOF 5
ENDMDL
MODEL 4
REMARK VINA RESULT:      -6.8      2.679      4.343
REMARK  5 active torsions:
REMARK  status: ('A' for Active; 'I' for Inactive)
REMARK    1  A    between atoms: C_3  and  N_4 
REMARK       I    between atoms: N_4  and  C_5 
REMARK       I    between atoms: C_5  and  N_6 
REMARK    2  A    between atoms: N_6  and  C_7 
REMARK    3  A    between atoms: C_7  and  C_8 
REMARK    4  A    between atoms: C_8  and  O_9 
REMARK    5  A    between atoms: O_9  and  C_10 
ROOT
HETATM    1  N   UNL     1      44.344 -18.625   4.617  1.00  0.00    -0.307 N 
HETATM    2  C   UNL     1      43.215 -17.978   5.069  1.00  0.00     0.320 C 
HETATM    3  N   UNL     1      43.515 -16.684   5.438  1.00  0.00    -0.340 N 
HETATM    4  O   UNL     1      42.077 -18.426   5.100  1.00  0.00    -0.247 OA
HETATM    5  H   UNL     1      45.004 -17.987   4.198  1.00  0.00     0.170 HD
HETATM    6  H   UNL     1      44.460 -16.499   5.746  1.00  0.00     0.164 HD
ENDROOT
BRANCH   3   7
HETATM    7  C   UNL     1      42.488 -15.779   5.932  1.00  0.00     0.156 C 
BRANCH   7   8
HETATM    8  C   UNL     1      41.835 -14.924   4.830  1.00  0.00     0.142 C 
HETATM    9  C   UNL     1      41.455 -13.529   5.323  1.00  0.00     0.042 C 
BRANCH   8  10
HETATM   10  O   UNL     1      42.750 -14.747   3.736  1.00  0.00    -0.345 OA
BRANCH  10  11
HETATM   11  C   UNL     1      42.298 -14.902   2.455  1.00  0.00     0.070 A 
HETATM   12  C   UNL     1      42.057 -13.884   1.531  1.00  0.00     0.060 A 
HETATM   13  C   UNL     1      41.581 -14.202   0.256  1.00  0.00     0.036 A 
HETATM   14 CL   UNL     1      41.281 -12.940  -0.877  1.00  0.00    -0.084 Cl
HETATM   15  C   UNL     1      41.340 -15.524  -0.108  1.00  0.00     0.024 A 
HETATM   16  C   UNL     1      41.576 -16.542   0.811  1.00  0.00     0.004 A 
HETATM   17  C   UNL     1      42.051 -16.228   2.087  1.00  0.00     0.037 A 
ENDBRANCH  10  11
ENDBRANCH   8  10
ENDBRANCH   7   8
ENDBRANCH   3   7
BRANCH   1  18
HETATM   18  C   UNL     1      44.414 -19.967   4.171  1.00  0.00     0.059 A 
HETATM   19  C   UNL     1      44.140 -20.424   2.873  1.00  0.00    -0.032 A 
HETATM   20  C   UNL     1      43.633 -19.564   1.751  1.00  0.00     0.050 C 
HETATM   21  C   UNL     1      44.321 -21.791   2.600  1.00  0.00     0.028 A 
HETATM   22  C   UNL     1      44.698 -22.652   3.618  1.00  0.00     0.117 A 
HETATM   23  N   UNL     1      44.899 -22.257   4.887  1.00  0.00    -0.271 NA
HETATM   24  C   UNL     1      44.752 -20.932   5.127  1.00  0.00     0.146 A 
ENDBRANCH   1  18
TORSDOF 5
ENDMDL
MODEL 5
REMARK VINA RESULT:      -6.8      3.614      7.192
REMARK  5 active torsions:
REMARK  status: ('A' for Active; 'I' for Inactive)
REMARK    1  A    between atoms: C_3  and  N_4 
REMARK       I    between atoms: N_4  and  C_5 
REMARK       I    between atoms: C_5  and  N_6 
REMARK    2  A    between atoms: N_6  and  C_7 
REMARK    3  A    between atoms: C_7  and  C_8 
REMARK    4  A    between atoms: C_8  and  O_9 
REMARK    5  A    between atoms: O_9  and  C_10 
ROOT
HETATM    1  N   UNL     1      40.501 -15.089  -0.195  1.00  0.00    -0.307 N 
HETATM    2  C   UNL     1      41.168 -16.014   0.576  1.00  0.00     0.320 C 
HETATM    3  N   UNL     1      40.333 -16.526   1.547  1.00  0.00    -0.340 N 
HETATM    4  O   UNL     1      42.318 -16.403   0.423  1.00  0.00    -0.247 OA
HETATM    5  H   UNL     1      39.512 -15.286  -0.254  1.00  0.00     0.170 HD
HETATM    6  H   UNL     1      39.577 -15.935   1.863  1.00  0.00     0.164 HD
ENDROOT
BRANCH   3   7
HETATM    7  C   UNL     1      40.792 -17.541   2.483  1.00  0.00     0.156 C 
BRANCH   7   8
HETATM    8  C   UNL     1      41.533 -16.963   3.705  1.00  0.00     0.142 C 
HETATM    9  C   UNL     1      41.205 -17.715   4.993  1.00  0.00     0.042 C 
BRANCH   8  10
HETATM   10  O   UNL     1      42.954 -17.062   3.511  1.00  0.00    -0.345 OA
BRANCH  10  11
HETATM   11  C   UNL     1      43.550 -18.292   3.556  1.00  0.00     0.070 A 
HETATM   12  C   UNL     1      43.486 -19.283   2.576  1.00  0.00     0.060 A 
HETATM   13  C   UNL     1      44.142 -20.500   2.774  1.00  0.00     0.036 A 
HETATM   14 CL   UNL     1      44.053 -21.720   1.561  1.00  0.00    -0.084 Cl
HETATM   15  C   UNL     1      44.861 -20.743   3.941  1.00  0.00     0.024 A 
HETATM   16  C   UNL     1      44.926 -19.759   4.923  1.00  0.00     0.004 A 
HETATM   17  C   UNL     1      44.270 -18.541   4.729  1.00  0.00     0.037 A 
ENDBRANCH  10  11
ENDBRANCH   8  10
ENDBRANCH   7   8
ENDBRANCH   3   7
BRANCH   1  18
HETATM   18  C   UNL     1      41.048 -14.351  -1.273  1.00  0.00     0.059 A 
HETATM   19  C   UNL     1      40.945 -14.674  -2.635  1.00  0.00    -0.032 A 
HETATM   20  C   UNL     1      40.303 -15.920  -3.173  1.00  0.00     0.050 C 
HETATM   21  C   UNL     1      41.505 -13.787  -3.571  1.00  0.00     0.028 A 
HETATM   22  C   UNL     1      42.191 -12.666  -3.131  1.00  0.00     0.117 A 
HETATM   23  N   UNL     1      42.368 -12.367  -1.832  1.00  0.00    -0.271 NA
HETATM   24  C   UNL     1      41.795 -13.214  -0.945  1.00  0.00     0.146 A 
ENDBRANCH   1  18
TORSDOF 5
ENDMDL
MODEL 6
REMARK VINA RESULT:      -6.7      3.074      7.043
REMARK  5 active torsions:
REMARK  status: ('A' for Active; 'I' for Inactive)
REMARK    1  A    between atoms: C_3  and  N_4 
REMARK       I    between atoms: N_4  and  C_5 
REMARK       I    between atoms: C_5  and  N_6 
REMARK    2  A    between atoms: N_6  and  C_7 
REMARK    3  A    between atoms: C_7  and  C_8 
REMARK    4  A    between atoms: C_8  and  O_9 
REMARK    5  A    between atoms: O_9  and  C_10 
ROOT
HETATM    1  N   UNL     1      40.768 -15.623   0.179  1.00  0.00    -0.307 N 
HETATM    2  C   UNL     1      41.582 -16.514   0.841  1.00  0.00     0.320 C 
HETATM    3  N   UNL     1      40.948 -17.005   1.963  1.00  0.00    -0.340 N 
HETATM    4  O   UNL     1      42.690 -16.894   0.491  1.00  0.00    -0.247 OA
HETATM    5  H   UNL     1      39.789 -15.834   0.309  1.00  0.00     0.170 HD
HETATM    6  H   UNL     1      40.252 -16.413   2.396  1.00  0.00     0.164 HD
ENDROOT
BRANCH   3   7
HETATM    7  C   UNL     1      41.590 -17.983   2.829  1.00  0.00     0.156 C 
BRANCH   7   8
HETATM    8  C   UNL     1      42.683 -17.384   3.734  1.00  0.00     0.142 C 
HETATM    9  C   UNL     1      42.464 -17.716   5.209  1.00  0.00     0.042 C 
BRANCH   8  10
HETATM   10  O   UNL     1      43.969 -17.914   3.371  1.00  0.00    -0.345 OA
BRANCH  10  11
HETATM   11  C   UNL     1      44.129 -19.268   3.272  1.00  0.00     0.070 A 
HETATM   12  C   UNL     1      44.608 -20.123   4.266  1.00  0.00     0.060 A 
HETATM   13  C   UNL     1      44.728 -21.490   4.008  1.00  0.00     0.036 A 
HETATM   14 CL   UNL     1      45.325 -22.538   5.238  1.00  0.00    -0.084 Cl
HETATM   15  C   UNL     1      44.377 -22.018   2.768  1.00  0.00     0.024 A 
HETATM   16  C   UNL     1      43.901 -21.169   1.772  1.00  0.00     0.004 A 
HETATM   17  C   UNL     1      43.782 -19.800   2.027  1.00  0.00     0.037 A 
ENDBRANCH  10  11
ENDBRANCH   8  10
ENDBRANCH   7   8
ENDBRANCH   3   7
BRANCH   1  18
HETATM   18  C   UNL     1      41.095 -14.914  -1.003  1.00  0.00     0.059 A 
HETATM   19  C   UNL     1      41.634 -13.620  -1.070  1.00  0.00    -0.032 A 
HETATM   20  C   UNL     1      41.875 -12.729   0.114  1.00  0.00     0.050 C 
HETATM   21  C   UNL     1      41.949 -13.098  -2.338  1.00  0.00     0.028 A 
HETATM   22  C   UNL     1      41.664 -13.837  -3.475  1.00  0.00     0.117 A 
HETATM   23  N   UNL     1      41.082 -15.048  -3.447  1.00  0.00    -0.271 NA
HETATM   24  C   UNL     1      40.815 -15.550  -2.218  1.00  0.00     0.146 A 
ENDBRANCH   1  18
TORSDOF 5
ENDMDL
MODEL 7
REMARK VINA RESULT:      -6.7      3.043      6.386
REMARK  5 active torsions:
REMARK  status: ('A' for Active; 'I' for Inactive)
REMARK    1  A    between atoms: C_3  and  N_4 
REMARK       I    between atoms: N_4  and  C_5 
REMARK       I    between atoms: C_5  and  N_6 
REMARK    2  A    between atoms: N_6  and  C_7 
REMARK    3  A    between atoms: C_7  and  C_8 
REMARK    4  A    between atoms: C_8  and  O_9 
REMARK    5  A    between atoms: O_9  and  C_10 
ROOT
HETATM    1  N   UNL     1      40.251 -16.150   2.904  1.00  0.00    -0.307 N 
HETATM    2  C   UNL     1      41.044 -15.765   3.962  1.00  0.00     0.320 C 
HETATM    3  N   UNL     1      40.657 -16.413   5.116  1.00  0.00    -0.340 N 
HETATM    4  O   UNL     1      42.003 -15.007   3.922  1.00  0.00    -0.247 OA
HETATM    5  H   UNL     1      39.906 -17.093   3.012  1.00  0.00     0.170 HD
HETATM    6  H   UNL     1      39.690 -16.701   5.182  1.00  0.00     0.164 HD
ENDROOT
BRANCH   3   7
HETATM    7  C   UNL     1      41.351 -16.196   6.377  1.00  0.00     0.156 C 
BRANCH   7   8
HETATM    8  C   UNL     1      42.804 -16.705   6.378  1.00  0.00     0.142 C 
HETATM    9  C   UNL     1      43.610 -16.165   7.558  1.00  0.00     0.042 C 
BRANCH   8  10
HETATM   10  O   UNL     1      42.824 -18.139   6.478  1.00  0.00    -0.345 OA
BRANCH  10  11
HETATM   11  C   UNL     1      43.382 -18.871   5.468  1.00  0.00     0.070 A 
HETATM   12  C   UNL     1      43.258 -18.628   4.099  1.00  0.00     0.060 A 
HETATM   13  C   UNL     1      43.881 -19.480   3.183  1.00  0.00     0.036 A 
HETATM   14 CL   UNL     1      43.719 -19.176   1.495  1.00  0.00    -0.084 Cl
HETATM   15  C   UNL     1      44.626 -20.574   3.615  1.00  0.00     0.024 A 
HETATM   16  C   UNL     1      44.750 -20.822   4.980  1.00  0.00     0.004 A 
HETATM   17  C   UNL     1      44.128 -19.973   5.898  1.00  0.00     0.037 A 
ENDBRANCH  10  11
ENDBRANCH   8  10
ENDBRANCH   7   8
ENDBRANCH   3   7
BRANCH   1  18
HETATM   18  C   UNL     1      40.350 -15.678   1.573  1.00  0.00     0.059 A 
HETATM   19  C   UNL     1      39.646 -14.597   1.022  1.00  0.00    -0.032 A 
HETATM   20  C   UNL     1      38.591 -13.806   1.742  1.00  0.00     0.050 C 
HETATM   21  C   UNL     1      39.919 -14.236  -0.309  1.00  0.00     0.028 A 
HETATM   22  C   UNL     1      40.815 -14.986  -1.054  1.00  0.00     0.117 A 
HETATM   23  N   UNL     1      41.452 -16.070  -0.578  1.00  0.00    -0.271 NA
HETATM   24  C   UNL     1      41.202 -16.384   0.715  1.00  0.00     0.146 A 
ENDBRANCH   1  18
TORSDOF 5
ENDMDL
MODEL 8
REMARK VINA RESULT:      -6.7      3.107      6.849
REMARK  5 active torsions:
REMARK  status: ('A' for Active; 'I' for Inactive)
REMARK    1  A    between atoms: C_3  and  N_4 
REMARK       I    between atoms: N_4  and  C_5 
REMARK       I    between atoms: C_5  and  N_6 
REMARK    2  A    between atoms: N_6  and  C_7 
REMARK    3  A    between atoms: C_7  and  C_8 
REMARK    4  A    between atoms: C_8  and  O_9 
REMARK    5  A    between atoms: O_9  and  C_10 
ROOT
HETATM    1  N   UNL     1      41.793 -14.951   4.277  1.00  0.00    -0.307 N 
HETATM    2  C   UNL     1      41.685 -15.679   5.440  1.00  0.00     0.320 C 
HETATM    3  N   UNL     1      42.924 -15.849   6.022  1.00  0.00    -0.340 N 
HETATM    4  O   UNL     1      40.653 -16.087   5.956  1.00  0.00    -0.247 OA
HETATM    5  H   UNL     1      42.571 -14.307   4.304  1.00  0.00     0.170 HD
HETATM    6  H   UNL     1      43.726 -15.841   5.408  1.00  0.00     0.164 HD
ENDROOT
BRANCH   3   7
HETATM    7  C   UNL     1      43.080 -16.569   7.277  1.00  0.00     0.156 C 
BRANCH   7   8
HETATM    8  C   UNL     1      43.910 -17.860   7.148  1.00  0.00     0.142 C 
HETATM    9  C   UNL     1      44.220 -18.491   8.505  1.00  0.00     0.042 C 
BRANCH   8  10
HETATM   10  O   UNL     1      43.184 -18.840   6.387  1.00  0.00    -0.345 OA
BRANCH  10  11
HETATM   11  C   UNL     1      43.664 -19.228   5.167  1.00  0.00     0.070 A 
HETATM   12  C   UNL     1      43.433 -18.596   3.945  1.00  0.00     0.060 A 
HETATM   13  C   UNL     1      43.985 -19.124   2.775  1.00  0.00     0.036 A 
HETATM   14 CL   UNL     1      43.692 -18.341   1.268  1.00  0.00    -0.084 Cl
HETATM   15  C   UNL     1      44.765 -20.277   2.809  1.00  0.00     0.024 A 
HETATM   16  C   UNL     1      44.995 -20.912   4.026  1.00  0.00     0.004 A 
HETATM   17  C   UNL     1      44.444 -20.388   5.197  1.00  0.00     0.037 A 
ENDBRANCH  10  11
ENDBRANCH   8  10
ENDBRANCH   7   8
ENDBRANCH   3   7
BRANCH   1  18
HETATM   18  C   UNL     1      40.731 -14.599   3.410  1.00  0.00     0.059 A 
HETATM   19  C   UNL     1      40.098 -15.446   2.488  1.00  0.00    -0.032 A 
HETATM   20  C   UNL     1      40.510 -16.862   2.202  1.00  0.00     0.050 C 
HETATM   21  C   UNL     1      39.016 -14.933   1.750  1.00  0.00     0.028 A 
HETATM   22  C   UNL     1      38.648 -13.606   1.903  1.00  0.00     0.117 A 
HETATM   23  N   UNL     1      39.280 -12.750   2.725  1.00  0.00    -0.271 NA
HETATM   24  C   UNL     1      40.298 -13.268   3.452  1.00  0.00     0.146 A 
ENDBRANCH   1  18
TORSDOF 5
ENDMDL
MODEL 9
REMARK VINA RESULT:      -6.6      3.695      7.537
REMARK  5 active torsions:
REMARK  status: ('A' for Active; 'I' for Inactive)
REMARK    1  A    between atoms: C_3  and  N_4 
REMARK       I    between atoms: N_4  and  C_5 
REMARK       I    between atoms: C_5  and  N_6 
REMARK    2  A    between atoms: N_6  and  C_7 
REMARK    3  A    between atoms: C_7  and  C_8 
REMARK    4  A    between atoms: C_8  and  O_9 
REMARK    5  A    between atoms: O_9  and  C_10 
ROOT
HETATM    1  N   UNL     1      40.882 -14.261   6.053  1.00  0.00    -0.307 N 
HETATM    2  C   UNL     1      42.214 -14.560   5.876  1.00  0.00     0.320 C 
HETATM    3  N   UNL     1      42.592 -15.594   6.707  1.00  0.00    -0.340 N 
HETATM    4  O   UNL     1      42.977 -14.052   5.066  1.00  0.00    -0.247 OA
HETATM    5  H   UNL     1      40.347 -15.068   6.340  1.00  0.00     0.170 HD
HETATM    6  H   UNL     1      42.076 -15.704   7.569  1.00  0.00     0.164 HD
ENDROOT
BRANCH   3   7
HETATM    7  C   UNL     1      43.951 -16.115   6.698  1.00  0.00     0.156 C 
BRANCH   7   8
HETATM    8  C   UNL     1      44.022 -17.652   6.623  1.00  0.00     0.142 C 
HETATM    9  C   UNL     1      44.009 -18.304   8.005  1.00  0.00     0.042 C 
BRANCH   8  10
HETATM   10  O   UNL     1      42.886 -18.164   5.907  1.00  0.00    -0.345 OA
BRANCH  10  11
HETATM   11  C   UNL     1      42.977 -18.353   4.556  1.00  0.00     0.070 A 
HETATM   12  C   UNL     1      42.177 -17.761   3.578  1.00  0.00     0.060 A 
HETATM   13  C   UNL     1      42.386 -18.067   2.231  1.00  0.00     0.036 A 
HETATM   14 CL   UNL     1      41.390 -17.337   1.030  1.00  0.00    -0.084 Cl
HETATM   15  C   UNL     1      43.384 -18.958   1.846  1.00  0.00     0.024 A 
HETATM   16  C   UNL     1      44.183 -19.553   2.819  1.00  0.00     0.004 A 
HETATM   17  C   UNL     1      43.976 -19.251   4.167  1.00  0.00     0.037 A 
ENDBRANCH  10  11
ENDBRANCH   8  10
ENDBRANCH   7   8
ENDBRANCH   3   7
BRANCH   1  18
HETATM   18  C   UNL     1      40.157 -13.248   5.381  1.00  0.00     0.059 A 
HETATM   19  C   UNL     1      39.762 -13.267   4.034  1.00  0.00    -0.032 A 
HETATM   20  C   UNL     1      40.126 -14.341   3.050  1.00  0.00     0.050 C 
HETATM   21  C   UNL     1      38.994 -12.192   3.553  1.00  0.00     0.028 A 
HETATM   22  C   UNL     1      38.704 -11.126   4.390  1.00  0.00     0.117 A 
HETATM   23  N   UNL     1      39.129 -11.045   5.663  1.00  0.00    -0.271 NA
HETATM   24  C   UNL     1      39.839 -12.102   6.120  1.00  0.00     0.146 A 
ENDBRANCH   1  18
TORSDOF 5
ENDMDL
MODEL 10
REMARK VINA RESULT:      -6.5      2.866      6.363
REMARK  5 active torsions:
REMARK  status: ('A' for Active; 'I' for Inactive)
REMARK    1  A    between atoms: C_3  and  N_4 
REMARK       I    between atoms: N_4  and  C_5 
REMARK       I    between atoms: C_5  and  N_6 
REMARK    2  A    between atoms: N_6  and  C_7 
REMARK    3  A    between atoms: C_7  and  C_8 
REMARK    4  A    between atoms: C_8  and  O_9 
REMARK    5  A    between atoms: O_9  and  C_10 
ROOT
HETATM    1  N   UNL     1      40.610 -15.276   2.589  1.00  0.00    -0.307 N 
HETATM    2  C   UNL     1      41.643 -14.944   3.436  1.00  0.00     0.320 C 
HETATM    3  N   UNL     1      41.360 -15.345   4.725  1.00  0.00    -0.340 N 
HETATM    4  O   UNL     1      42.705 -14.421   3.127  1.00  0.00    -0.247 OA
HETATM    5  H   UNL     1      40.116 -16.101   2.899  1.00  0.00     0.170 HD
HETATM    6  H   UNL     1      40.385 -15.407   4.985  1.00  0.00     0.164 HD
ENDROOT
BRANCH   3   7
HETATM    7  C   UNL     1      42.304 -15.127   5.811  1.00  0.00     0.156 C 
BRANCH   7   8
HETATM    8  C   UNL     1      43.251 -16.318   6.054  1.00  0.00     0.142 C 
HETATM    9  C   UNL     1      43.685 -16.428   7.515  1.00  0.00     0.042 C 
BRANCH   8  10
HETATM   10  O   UNL     1      42.590 -17.550   5.719  1.00  0.00    -0.345 OA
BRANCH  10  11
HETATM   11  C   UNL     1      43.267 -18.498   5.003  1.00  0.00     0.070 A 
HETATM   12  C   UNL     1      43.812 -19.682   5.501  1.00  0.00     0.060 A 
HETATM   13  C   UNL     1      44.491 -20.549   4.641  1.00  0.00     0.036 A 
HETATM   14 CL   UNL     1      45.167 -22.006   5.263  1.00  0.00    -0.084 Cl
HETATM   15  C   UNL     1      44.635 -20.248   3.289  1.00  0.00     0.024 A 
HETATM   16  C   UNL     1      44.095 -19.066   2.789  1.00  0.00     0.004 A 
HETATM   17  C   UNL     1      43.416 -18.197   3.646  1.00  0.00     0.037 A 
ENDBRANCH  10  11
ENDBRANCH   8  10
ENDBRANCH   7   8
ENDBRANCH   3   7
BRANCH   1  18
HETATM   18  C   UNL     1      40.549 -15.006   1.201  1.00  0.00     0.059 A 
HETATM   19  C   UNL     1      41.220 -15.709   0.190  1.00  0.00    -0.032 A 
HETATM   20  C   UNL     1      42.198 -16.825   0.426  1.00  0.00     0.050 C 
HETATM   21  C   UNL     1      40.992 -15.331  -1.145  1.00  0.00     0.028 A 
HETATM   22  C   UNL     1      40.171 -14.249  -1.422  1.00  0.00     0.117 A 
HETATM   23  N   UNL     1      39.571 -13.511  -0.472  1.00  0.00    -0.271 NA
HETATM   24  C   UNL     1      39.776 -13.908   0.805  1.00  0.00     0.146 A 
ENDBRANCH   1  18
TORSDOF 5
ENDMDL
