MODEL 1
REMARK VINA RESULT:      -8.0      0.000      0.000
REMARK  5 active torsions:
REMARK  status: ('A' for Active; 'I' for Inactive)
REMARK    1  A    between atoms: C_11  and  N_12 
REMARK       I    between atoms: N_12  and  C_13 
REMARK       I    between atoms: C_13  and  N_14 
REMARK    2  A    between atoms: N_14  and  C_15 
REMARK    3  A    between atoms: C_15  and  C_16 
REMARK    4  A    between atoms: C_16  and  N_17 
REMARK    5  A    between atoms: C_16  and  C_21 
ROOT
HETATM    1  N   UNL     1      43.046 -15.227   2.521  1.00  0.00    -0.314 N 
HETATM    2  C   UNL     1      42.091 -14.617   1.777  1.00  0.00     0.298 C 
HETATM    3  N   UNL     1      41.501 -15.312   0.769  1.00  0.00    -0.242 NA
HETATM    4  O   UNL     1      41.748 -13.472   2.062  1.00  0.00    -0.254 OA
HETATM    5  H   UNL     1      43.453 -14.564   3.176  1.00  0.00     0.170 HD
HETATM    6  H   UNL     1      42.194 -15.845   0.256  1.00  0.00     0.132 HD
ENDROOT
BRANCH   1   7
HETATM    7  C   UNL     1      43.498 -16.556   2.661  1.00  0.00     0.038 A 
HETATM    8  C   UNL     1      43.937 -17.378   1.631  1.00  0.00     0.032 A 
HETATM    9  C   UNL     1      44.308 -18.703   1.893  1.00  0.00     0.036 A 
HETATM   10  C   UNL     1      44.233 -19.238   3.169  1.00  0.00     0.086 A 
HETATM   11  N   UNL     1      44.563 -20.524   3.369  1.00  0.00    -0.250 NA
HETATM   12  C   UNL     1      43.789 -18.417   4.223  1.00  0.00     0.088 A 
HETATM   13  C   UNL     1      44.448 -21.005   4.633  1.00  0.00     0.055 A 
HETATM   14  C   UNL     1      44.804 -22.447   4.835  1.00  0.00     0.072 C 
HETATM   15  C   UNL     1      44.005 -20.195   5.679  1.00  0.00     0.055 A 
HETATM   16  N   UNL     1      43.678 -18.893   5.475  1.00  0.00    -0.250 NA
HETATM   17  C   UNL     1      43.853 -20.712   7.078  1.00  0.00     0.072 C 
HETATM   18  C   UNL     1      43.442 -17.096   3.953  1.00  0.00     0.063 A 
ENDBRANCH   1   7
BRANCH   3  19
HETATM   19  C   UNL     1      40.502 -14.669  -0.085  1.00  0.00     0.135 C 
BRANCH  19  20
HETATM   20  C   UNL     1      40.882 -14.368  -1.570  1.00  0.00     0.240 C 
BRANCH  20  21
HETATM   21  N   UNL     1      41.280 -12.933  -1.904  1.00  0.00    -0.069 N 
HETATM   22  H   UNL     1      40.714 -12.727  -2.737  1.00  0.00     0.279 HD
HETATM   23  C   UNL     1      40.897 -11.862  -0.928  1.00  0.00     0.270 C 
HETATM   24  C   UNL     1      42.706 -12.794  -2.351  1.00  0.00     0.270 C 
ENDBRANCH  20  21
BRANCH  20  25
HETATM   25  C   UNL     1      39.894 -14.922  -2.579  1.00  0.00     0.014 A 
HETATM   26  S   UNL     1      38.315 -14.239  -2.654  1.00  0.00    -0.104 SA
HETATM   27  C   UNL     1      37.836 -15.297  -3.904  1.00  0.00     0.050 A 
HETATM   28  C   UNL     1      38.841 -16.169  -4.253  1.00  0.00     0.008 A 
HETATM   29  C   UNL     1      40.022 -15.956  -3.488  1.00  0.00     0.017 A 
ENDBRANCH  20  25
ENDBRANCH  19  20
ENDBRANCH   3  19
TORSDOF 5
ENDMDL
MODEL 2
REMARK VINA RESULT:      -8.0      7.449     10.446
REMARK  5 active torsions:
REMARK  status: ('A' for Active; 'I' for Inactive)
REMARK    1  A    between atoms: C_11  and  N_12 
REMARK       I    between atoms: N_12  and  C_13 
REMARK       I    between atoms: C_13  and  N_14 
REMARK    2  A    between atoms: N_14  and  C_15 
REMARK    3  A    between atoms: C_15  and  C_16 
REMARK    4  A    between atoms: C_16  and  N_17 
REMARK    5  A    between atoms: C_16  and  C_21 
ROOT
HETATM    1  N   UNL     1      45.048 -13.790   7.569  1.00  0.00    -0.314 N 
HETATM    2  C   UNL     1      44.921 -12.785   8.469  1.00  0.00     0.298 C 
HETATM    3  N   UNL     1      43.725 -12.148   8.579  1.00  0.00    -0.242 NA
HETATM    4  O   UNL     1      45.872 -12.506   9.196  1.00  0.00    -0.254 OA
HETATM    5  H   UNL     1      46.013 -14.111   7.540  1.00  0.00     0.170 HD
HETATM    6  H   UNL     1      43.332 -11.979   7.660  1.00  0.00     0.132 HD
ENDROOT
BRANCH   1   7
HETATM    7  C   UNL     1      44.148 -14.538   6.782  1.00  0.00     0.038 A 
HETATM    8  C   UNL     1      43.580 -15.756   7.133  1.00  0.00     0.032 A 
HETATM    9  C   UNL     1      42.741 -16.429   6.235  1.00  0.00     0.036 A 
HETATM   10  C   UNL     1      42.470 -15.920   4.975  1.00  0.00     0.086 A 
HETATM   11  N   UNL     1      41.691 -16.618   4.133  1.00  0.00    -0.250 NA
HETATM   12  C   UNL     1      43.039 -14.687   4.605  1.00  0.00     0.088 A 
HETATM   13  C   UNL     1      41.476 -16.087   2.902  1.00  0.00     0.055 A 
HETATM   14  C   UNL     1      40.619 -16.886   1.968  1.00  0.00     0.072 C 
HETATM   15  C   UNL     1      42.043 -14.866   2.531  1.00  0.00     0.055 A 
HETATM   16  N   UNL     1      42.825 -14.161   3.387  1.00  0.00    -0.250 NA
HETATM   17  C   UNL     1      41.834 -14.272   1.171  1.00  0.00     0.072 C 
HETATM   18  C   UNL     1      43.854 -14.018   5.513  1.00  0.00     0.063 A 
ENDBRANCH   1   7
BRANCH   3  19
HETATM   19  C   UNL     1      43.568 -11.027   9.504  1.00  0.00     0.135 C 
BRANCH  19  20
HETATM   20  C   UNL     1      42.243 -10.925  10.325  1.00  0.00     0.240 C 
BRANCH  20  21
HETATM   21  N   UNL     1      41.091 -10.155   9.684  1.00  0.00    -0.069 N 
HETATM   22  H   UNL     1      40.793  -9.523  10.437  1.00  0.00     0.279 HD
HETATM   23  C   UNL     1      41.417  -9.239   8.544  1.00  0.00     0.270 C 
HETATM   24  C   UNL     1      39.892 -11.008   9.387  1.00  0.00     0.270 C 
ENDBRANCH  20  21
BRANCH  20  25
HETATM   25  C   UNL     1      42.448 -10.518  11.772  1.00  0.00     0.014 A 
HETATM   26  S   UNL     1      41.300 -11.034  12.948  1.00  0.00    -0.104 SA
HETATM   27  C   UNL     1      42.132 -10.247  14.213  1.00  0.00     0.050 A 
HETATM   28  C   UNL     1      43.251  -9.587  13.761  1.00  0.00     0.008 A 
HETATM   29  C   UNL     1      43.430  -9.739  12.357  1.00  0.00     0.017 A 
ENDBRANCH  20  25
ENDBRANCH  19  20
ENDBRANCH   3  19
TORSDOF 5
ENDMDL
MODEL 3
REMARK VINA RESULT:      -8.0      7.522     10.168
REMARK  5 active torsions:
REMARK  status: ('A' for Active; 'I' for Inactive)
REMARK    1  A    between atoms: C_11  and  N_12 
REMARK       I    between atoms: N_12  and  C_13 
REMARK       I    between atoms: C_13  and  N_14 
REMARK    2  A    between atoms: N_14  and  C_15 
REMARK    3  A    between atoms: C_15  and  C_16 
REMARK    4  A    between atoms: C_16  and  N_17 
REMARK    5  A    between atoms: C_16  and  C_21 
ROOT
HETATM    1  N   UNL     1      45.154 -12.365   8.598  1.00  0.00    -0.314 N 
HETATM    2  C   UNL     1      45.140 -13.420   7.747  1.00  0.00     0.298 C 
HETATM    3  N   UNL     1      44.179 -14.370   7.893  1.00  0.00    -0.242 NA
HETATM    4  O   UNL     1      45.965 -13.468   6.836  1.00  0.00    -0.254 OA
HETATM    5  H   UNL     1      45.972 -11.787   8.422  1.00  0.00     0.170 HD
HETATM    6  H   UNL     1      44.044 -14.585   8.875  1.00  0.00     0.132 HD
ENDROOT
BRANCH   1   7
HETATM    7  C   UNL     1      44.256 -11.850   9.555  1.00  0.00     0.038 A 
HETATM    8  C   UNL     1      44.308 -12.079  10.924  1.00  0.00     0.032 A 
HETATM    9  C   UNL     1      43.319 -11.554  11.766  1.00  0.00     0.036 A 
HETATM   10  C   UNL     1      42.258 -10.816  11.268  1.00  0.00     0.086 A 
HETATM   11  N   UNL     1      41.313 -10.364  12.107  1.00  0.00    -0.250 NA
HETATM   12  C   UNL     1      42.192 -10.576   9.882  1.00  0.00     0.088 A 
HETATM   13  C   UNL     1      40.282  -9.667  11.564  1.00  0.00     0.055 A 
HETATM   14  C   UNL     1      39.227  -9.185  12.512  1.00  0.00     0.072 C 
HETATM   15  C   UNL     1      40.211  -9.431  10.190  1.00  0.00     0.055 A 
HETATM   16  N   UNL     1      41.173  -9.884   9.345  1.00  0.00    -0.250 NA
HETATM   17  C   UNL     1      39.073  -8.680   9.569  1.00  0.00     0.072 C 
HETATM   18  C   UNL     1      43.191 -11.085   9.058  1.00  0.00     0.063 A 
ENDBRANCH   1   7
BRANCH   3  19
HETATM   19  C   UNL     1      44.165 -15.547   7.025  1.00  0.00     0.135 C 
BRANCH  19  20
HETATM   20  C   UNL     1      43.098 -15.614   5.887  1.00  0.00     0.240 C 
BRANCH  20  21
HETATM   21  N   UNL     1      41.635 -15.489   6.304  1.00  0.00    -0.069 N 
HETATM   22  H   UNL     1      41.701 -15.124   7.263  1.00  0.00     0.279 HD
HETATM   23  C   UNL     1      40.792 -14.480   5.585  1.00  0.00     0.270 C 
HETATM   24  C   UNL     1      40.932 -16.810   6.433  1.00  0.00     0.270 C 
ENDBRANCH  20  21
BRANCH  20  25
HETATM   25  C   UNL     1      43.305 -16.763   4.919  1.00  0.00     0.014 A 
HETATM   26  S   UNL     1      44.156 -18.160   5.461  1.00  0.00    -0.104 SA
HETATM   27  C   UNL     1      44.005 -18.930   3.947  1.00  0.00     0.050 A 
HETATM   28  C   UNL     1      43.340 -18.145   3.033  1.00  0.00     0.008 A 
HETATM   29  C   UNL     1      42.942 -16.898   3.592  1.00  0.00     0.017 A 
ENDBRANCH  20  25
ENDBRANCH  19  20
ENDBRANCH   3  19
TORSDOF 5
ENDMDL
MODEL 4
REMARK VINA RESULT:      -7.9      1.853      2.065
REMARK  5 active torsions:
REMARK  status: ('A' for Active; 'I' for Inactive)
REMARK    1  A    between atoms: C_11  and  N_12 
REMARK       I    between atoms: N_12  and  C_13 
REMARK       I    between atoms: C_13  and  N_14 
REMARK    2  A    between atoms: N_14  and  C_15 
REMARK    3  A    between atoms: C_15  and  C_16 
REMARK    4  A    between atoms: C_16  and  N_17 
REMARK    5  A    between atoms: C_16  and  C_21 
ROOT
HETATM    1  N   UNL     1      39.389 -15.950   2.080  1.00  0.00    -0.314 N 
HETATM    2  C   UNL     1      39.077 -14.903   1.278  1.00  0.00     0.298 C 
HETATM    3  N   UNL     1      40.067 -14.307   0.563  1.00  0.00    -0.242 NA
HETATM    4  O   UNL     1      37.904 -14.549   1.181  1.00  0.00    -0.254 OA
HETATM    5  H   UNL     1      38.570 -16.236   2.613  1.00  0.00     0.170 HD
HETATM    6  H   UNL     1      40.898 -14.202   1.132  1.00  0.00     0.132 HD
ENDROOT
BRANCH   1   7
HETATM    7  C   UNL     1      40.522 -16.773   2.244  1.00  0.00     0.038 A 
HETATM    8  C   UNL     1      41.196 -17.440   1.228  1.00  0.00     0.032 A 
HETATM    9  C   UNL     1      42.279 -18.276   1.529  1.00  0.00     0.036 A 
HETATM   10  C   UNL     1      42.697 -18.480   2.834  1.00  0.00     0.086 A 
HETATM   11  N   UNL     1      43.716 -19.320   3.080  1.00  0.00    -0.250 NA
HETATM   12  C   UNL     1      42.023 -17.812   3.874  1.00  0.00     0.088 A 
HETATM   13  C   UNL     1      44.070 -19.503   4.378  1.00  0.00     0.055 A 
HETATM   14  C   UNL     1      45.197 -20.456   4.635  1.00  0.00     0.072 C 
HETATM   15  C   UNL     1      43.401 -18.845   5.411  1.00  0.00     0.055 A 
HETATM   16  N   UNL     1      42.375 -17.992   5.158  1.00  0.00    -0.250 NA
HETATM   17  C   UNL     1      43.765 -19.048   6.851  1.00  0.00     0.072 C 
HETATM   18  C   UNL     1      40.962 -16.968   3.561  1.00  0.00     0.063 A 
ENDBRANCH   1   7
BRANCH   3  19
HETATM   19  C   UNL     1      39.774 -13.143  -0.274  1.00  0.00     0.135 C 
BRANCH  19  20
HETATM   20  C   UNL     1      40.284 -13.145  -1.750  1.00  0.00     0.240 C 
BRANCH  20  21
HETATM   21  N   UNL     1      40.308 -11.802  -2.475  1.00  0.00    -0.069 N 
HETATM   22  H   UNL     1      39.326 -11.676  -2.752  1.00  0.00     0.279 HD
HETATM   23  C   UNL     1      40.620 -10.582  -1.664  1.00  0.00     0.270 C 
HETATM   24  C   UNL     1      41.081 -11.828  -3.761  1.00  0.00     0.270 C 
ENDBRANCH  20  21
BRANCH  20  25
HETATM   25  C   UNL     1      39.668 -14.232  -2.609  1.00  0.00     0.014 A 
HETATM   26  S   UNL     1      37.984 -14.153  -2.964  1.00  0.00    -0.104 SA
HETATM   27  C   UNL     1      38.034 -15.591  -3.881  1.00  0.00     0.050 A 
HETATM   28  C   UNL     1      39.295 -16.140  -3.909  1.00  0.00     0.008 A 
HETATM   29  C   UNL     1      40.233 -15.361  -3.174  1.00  0.00     0.017 A 
ENDBRANCH  20  25
ENDBRANCH  19  20
ENDBRANCH   3  19
TORSDOF 5
ENDMDL
MODEL 5
REMARK VINA RESULT:      -7.7      7.574     10.347
REMARK  5 active torsions:
REMARK  status: ('A' for Active; 'I' for Inactive)
REMARK    1  A    between atoms: C_11  and  N_12 
REMARK       I    between atoms: N_12  and  C_13 
REMARK       I    between atoms: C_13  and  N_14 
REMARK    2  A    between atoms: N_14  and  C_15 
REMARK    3  A    between atoms: C_15  and  C_16 
REMARK    4  A    between atoms: C_16  and  N_17 
REMARK    5  A    between atoms: C_16  and  C_21 
ROOT
HETATM    1  N   UNL     1      44.468 -13.726   7.610  1.00  0.00    -0.314 N 
HETATM    2  C   UNL     1      44.366 -12.809   8.603  1.00  0.00     0.298 C 
HETATM    3  N   UNL     1      43.441 -11.820   8.490  1.00  0.00    -0.242 NA
HETATM    4  O   UNL     1      45.075 -12.922   9.600  1.00  0.00    -0.254 OA
HETATM    5  H   UNL     1      45.252 -14.348   7.791  1.00  0.00     0.170 HD
HETATM    6  H   UNL     1      43.427 -11.458   7.544  1.00  0.00     0.132 HD
ENDROOT
BRANCH   1   7
HETATM    7  C   UNL     1      43.684 -14.067   6.488  1.00  0.00     0.038 A 
HETATM    8  C   UNL     1      42.667 -13.294   5.943  1.00  0.00     0.032 A 
HETATM    9  C   UNL     1      41.921 -13.772   4.858  1.00  0.00     0.036 A 
HETATM   10  C   UNL     1      42.157 -15.022   4.309  1.00  0.00     0.086 A 
HETATM   11  N   UNL     1      41.394 -15.455   3.293  1.00  0.00    -0.250 NA
HETATM   12  C   UNL     1      43.186 -15.817   4.851  1.00  0.00     0.088 A 
HETATM   13  C   UNL     1      41.651 -16.697   2.809  1.00  0.00     0.055 A 
HETATM   14  C   UNL     1      40.779 -17.171   1.687  1.00  0.00     0.072 C 
HETATM   15  C   UNL     1      42.667 -17.488   3.347  1.00  0.00     0.055 A 
HETATM   16  N   UNL     1      43.441 -17.045   4.371  1.00  0.00    -0.250 NA
HETATM   17  C   UNL     1      42.954 -18.869   2.839  1.00  0.00     0.072 C 
HETATM   18  C   UNL     1      43.932 -15.323   5.917  1.00  0.00     0.063 A 
ENDBRANCH   1   7
BRANCH   3  19
HETATM   19  C   UNL     1      43.337 -10.785   9.519  1.00  0.00     0.135 C 
BRANCH  19  20
HETATM   20  C   UNL     1      42.082 -10.787  10.447  1.00  0.00     0.240 C 
BRANCH  20  21
HETATM   21  N   UNL     1      40.834 -10.083   9.922  1.00  0.00    -0.069 N 
HETATM   22  H   UNL     1      40.458  -9.627  10.763  1.00  0.00     0.279 HD
HETATM   23  C   UNL     1      41.028  -8.958   8.952  1.00  0.00     0.270 C 
HETATM   24  C   UNL     1      39.757 -11.027   9.471  1.00  0.00     0.270 C 
ENDBRANCH  20  21
BRANCH  20  25
HETATM   25  C   UNL     1      42.380 -10.397  11.882  1.00  0.00     0.014 A 
HETATM   26  S   UNL     1      41.318 -10.939  13.126  1.00  0.00    -0.104 SA
HETATM   27  C   UNL     1      42.225 -10.160  14.342  1.00  0.00     0.050 A 
HETATM   28  C   UNL     1      43.305  -9.482  13.826  1.00  0.00     0.008 A 
HETATM   29  C   UNL     1      43.391  -9.615  12.411  1.00  0.00     0.017 A 
ENDBRANCH  20  25
ENDBRANCH  19  20
ENDBRANCH   3  19
TORSDOF 5
ENDMDL
MODEL 6
REMARK VINA RESULT:      -7.7      2.200      3.112
REMARK  5 active torsions:
REMARK  status: ('A' for Active; 'I' for Inactive)
REMARK    1  A    between atoms: C_11  and  N_12 
REMARK       I    between atoms: N_12  and  C_13 
REMARK       I    between atoms: C_13  and  N_14 
REMARK    2  A    between atoms: N_14  and  C_15 
REMARK    3  A    between atoms: C_15  and  C_16 
REMARK    4  A    between atoms: C_16  and  N_17 
REMARK    5  A    between atoms: C_16  and  C_21 
ROOT
HETATM    1  N   UNL     1      39.363 -16.010   2.147  1.00  0.00    -0.314 N 
HETATM    2  C   UNL     1      39.027 -14.955   1.365  1.00  0.00     0.298 C 
HETATM    3  N   UNL     1      39.998 -14.336   0.643  1.00  0.00    -0.242 NA
HETATM    4  O   UNL     1      37.848 -14.614   1.290  1.00  0.00    -0.254 OA
HETATM    5  H   UNL     1      38.557 -16.313   2.687  1.00  0.00     0.170 HD
HETATM    6  H   UNL     1      40.837 -14.230   1.202  1.00  0.00     0.132 HD
ENDROOT
BRANCH   1   7
HETATM    7  C   UNL     1      40.509 -16.821   2.282  1.00  0.00     0.038 A 
HETATM    8  C   UNL     1      41.164 -17.480   1.249  1.00  0.00     0.032 A 
HETATM    9  C   UNL     1      42.262 -18.305   1.522  1.00  0.00     0.036 A 
HETATM   10  C   UNL     1      42.715 -18.506   2.816  1.00  0.00     0.086 A 
HETATM   11  N   UNL     1      43.748 -19.335   3.035  1.00  0.00    -0.250 NA
HETATM   12  C   UNL     1      42.061 -17.845   3.873  1.00  0.00     0.088 A 
HETATM   13  C   UNL     1      44.136 -19.515   4.324  1.00  0.00     0.055 A 
HETATM   14  C   UNL     1      45.279 -20.457   4.552  1.00  0.00     0.072 C 
HETATM   15  C   UNL     1      43.487 -18.865   5.374  1.00  0.00     0.055 A 
HETATM   16  N   UNL     1      42.447 -18.022   5.148  1.00  0.00    -0.250 NA
HETATM   17  C   UNL     1      43.888 -19.065   6.804  1.00  0.00     0.072 C 
HETATM   18  C   UNL     1      40.983 -17.012   3.587  1.00  0.00     0.063 A 
ENDBRANCH   1   7
BRANCH   3  19
HETATM   19  C   UNL     1      39.680 -13.164  -0.171  1.00  0.00     0.135 C 
BRANCH  19  20
HETATM   20  C   UNL     1      39.575 -13.345  -1.719  1.00  0.00     0.240 C 
BRANCH  20  21
HETATM   21  N   UNL     1      39.417 -14.771  -2.239  1.00  0.00    -0.069 N 
HETATM   22  H   UNL     1      39.012 -15.264  -1.433  1.00  0.00     0.279 HD
HETATM   23  C   UNL     1      38.431 -15.002  -3.343  1.00  0.00     0.270 C 
HETATM   24  C   UNL     1      40.724 -15.460  -2.507  1.00  0.00     0.270 C 
ENDBRANCH  20  21
BRANCH  20  25
HETATM   25  C   UNL     1      40.628 -12.581  -2.498  1.00  0.00     0.014 A 
HETATM   26  S   UNL     1      42.069 -12.096  -1.688  1.00  0.00    -0.104 SA
HETATM   27  C   UNL     1      42.694 -11.350  -3.089  1.00  0.00     0.050 A 
HETATM   28  C   UNL     1      41.827 -11.444  -4.153  1.00  0.00     0.008 A 
HETATM   29  C   UNL     1      40.637 -12.147  -3.811  1.00  0.00     0.017 A 
ENDBRANCH  20  25
ENDBRANCH  19  20
ENDBRANCH   3  19
TORSDOF 5
ENDMDL
MODEL 7
REMARK VINA RESULT:      -7.7      1.753      2.604
REMARK  5 active torsions:
REMARK  status: ('A' for Active; 'I' for Inactive)
REMARK    1  A    between atoms: C_11  and  N_12 
REMARK       I    between atoms: N_12  and  C_13 
REMARK       I    between atoms: C_13  and  N_14 
REMARK    2  A    between atoms: N_14  and  C_15 
REMARK    3  A    between atoms: C_15  and  C_16 
REMARK    4  A    between atoms: C_16  and  N_17 
REMARK    5  A    between atoms: C_16  and  C_21 
ROOT
HETATM    1  N   UNL     1      39.576 -15.169   2.689  1.00  0.00    -0.314 N 
HETATM    2  C   UNL     1      39.458 -14.465   1.536  1.00  0.00     0.298 C 
HETATM    3  N   UNL     1      40.571 -14.235   0.791  1.00  0.00    -0.242 NA
HETATM    4  O   UNL     1      38.345 -14.094   1.170  1.00  0.00    -0.254 OA
HETATM    5  H   UNL     1      38.684 -15.189   3.177  1.00  0.00     0.170 HD
HETATM    6  H   UNL     1      41.350 -13.986   1.390  1.00  0.00     0.132 HD
ENDROOT
BRANCH   1   7
HETATM    7  C   UNL     1      40.593 -15.950   3.276  1.00  0.00     0.038 A 
HETATM    8  C   UNL     1      41.247 -15.667   4.468  1.00  0.00     0.032 A 
HETATM    9  C   UNL     1      42.285 -16.495   4.918  1.00  0.00     0.036 A 
HETATM   10  C   UNL     1      42.701 -17.598   4.189  1.00  0.00     0.086 A 
HETATM   11  N   UNL     1      43.724 -18.342   4.640  1.00  0.00    -0.250 NA
HETATM   12  C   UNL     1      42.047 -17.896   2.979  1.00  0.00     0.088 A 
HETATM   13  C   UNL     1      44.108 -19.396   3.876  1.00  0.00     0.055 A 
HETATM   14  C   UNL     1      45.262 -20.205   4.384  1.00  0.00     0.072 C 
HETATM   15  C   UNL     1      43.464 -19.692   2.673  1.00  0.00     0.055 A 
HETATM   16  N   UNL     1      42.426 -18.941   2.224  1.00  0.00    -0.250 NA
HETATM   17  C   UNL     1      43.885 -20.840   1.806  1.00  0.00     0.072 C 
HETATM   18  C   UNL     1      41.005 -17.078   2.553  1.00  0.00     0.063 A 
ENDBRANCH   1   7
BRANCH   3  19
HETATM   19  C   UNL     1      40.489 -13.436  -0.431  1.00  0.00     0.135 C 
BRANCH  19  20
HETATM   20  C   UNL     1      41.049 -14.047  -1.754  1.00  0.00     0.240 C 
BRANCH  20  21
HETATM   21  N   UNL     1      41.971 -13.161  -2.588  1.00  0.00    -0.069 N 
HETATM   22  H   UNL     1      42.659 -13.830  -2.956  1.00  0.00     0.279 HD
HETATM   23  C   UNL     1      41.394 -12.519  -3.813  1.00  0.00     0.270 C 
HETATM   24  C   UNL     1      42.767 -12.185  -1.771  1.00  0.00     0.270 C 
ENDBRANCH  20  21
BRANCH  20  25
HETATM   25  C   UNL     1      39.996 -14.721  -2.613  1.00  0.00     0.014 A 
HETATM   26  S   UNL     1      38.380 -14.129  -2.558  1.00  0.00    -0.104 SA
HETATM   27  C   UNL     1      37.836 -15.295  -3.678  1.00  0.00     0.050 A 
HETATM   28  C   UNL     1      38.849 -16.135  -4.080  1.00  0.00     0.008 A 
HETATM   29  C   UNL     1      40.090 -15.807  -3.464  1.00  0.00     0.017 A 
ENDBRANCH  20  25
ENDBRANCH  19  20
ENDBRANCH   3  19
TORSDOF 5
ENDMDL
MODEL 8
REMARK VINA RESULT:      -7.4      2.901      3.754
REMARK  5 active torsions:
REMARK  status: ('A' for Active; 'I' for Inactive)
REMARK    1  A    between atoms: C_11  and  N_12 
REMARK       I    between atoms: N_12  and  C_13 
REMARK       I    between atoms: C_13  and  N_14 
REMARK    2  A    between atoms: N_14  and  C_15 
REMARK    3  A    between atoms: C_15  and  C_16 
REMARK    4  A    between atoms: C_16  and  N_17 
REMARK    5  A    between atoms: C_16  and  C_21 
ROOT
HETATM    1  N   UNL     1      42.996 -13.924   5.528  1.00  0.00    -0.314 N 
HETATM    2  C   UNL     1      42.540 -13.165   4.502  1.00  0.00     0.298 C 
HETATM    3  N   UNL     1      42.665 -13.633   3.232  1.00  0.00    -0.242 NA
HETATM    4  O   UNL     1      41.983 -12.097   4.746  1.00  0.00    -0.254 OA
HETATM    5  H   UNL     1      42.913 -13.412   6.403  1.00  0.00     0.170 HD
HETATM    6  H   UNL     1      43.575 -14.060   3.103  1.00  0.00     0.132 HD
ENDROOT
BRANCH   1   7
HETATM    7  C   UNL     1      43.433 -15.259   5.658  1.00  0.00     0.038 A 
HETATM    8  C   UNL     1      44.131 -15.784   6.739  1.00  0.00     0.032 A 
HETATM    9  C   UNL     1      44.559 -17.117   6.722  1.00  0.00     0.036 A 
HETATM   10  C   UNL     1      44.323 -17.942   5.634  1.00  0.00     0.086 A 
HETATM   11  N   UNL     1      44.784 -19.203   5.646  1.00  0.00    -0.250 NA
HETATM   12  C   UNL     1      43.617 -17.424   4.532  1.00  0.00     0.088 A 
HETATM   13  C   UNL     1      44.546 -19.961   4.545  1.00  0.00     0.055 A 
HETATM   14  C   UNL     1      45.083 -21.360   4.568  1.00  0.00     0.072 C 
HETATM   15  C   UNL     1      43.850 -19.449   3.449  1.00  0.00     0.055 A 
HETATM   16  N   UNL     1      43.380 -18.175   3.444  1.00  0.00    -0.250 NA
HETATM   17  C   UNL     1      43.594 -20.263   2.218  1.00  0.00     0.072 C 
HETATM   18  C   UNL     1      43.179 -16.103   4.568  1.00  0.00     0.063 A 
ENDBRANCH   1   7
BRANCH   3  19
HETATM   19  C   UNL     1      42.229 -12.818   2.098  1.00  0.00     0.135 C 
BRANCH  19  20
HETATM   20  C   UNL     1      41.193 -13.429   1.103  1.00  0.00     0.240 C 
BRANCH  20  21
HETATM   21  N   UNL     1      39.887 -12.664   0.909  1.00  0.00    -0.069 N 
HETATM   22  H   UNL     1      39.200 -13.416   0.773  1.00  0.00     0.279 HD
HETATM   23  C   UNL     1      39.356 -11.891   2.078  1.00  0.00     0.270 C 
HETATM   24  C   UNL     1      39.845 -11.857  -0.356  1.00  0.00     0.270 C 
ENDBRANCH  20  21
BRANCH  20  25
HETATM   25  C   UNL     1      40.946 -14.911   1.308  1.00  0.00     0.014 A 
HETATM   26  S   UNL     1      41.766 -16.036   0.293  1.00  0.00    -0.104 SA
HETATM   27  C   UNL     1      41.031 -17.373   1.057  1.00  0.00     0.050 A 
HETATM   28  C   UNL     1      40.164 -16.986   2.052  1.00  0.00     0.008 A 
HETATM   29  C   UNL     1      40.112 -15.570   2.193  1.00  0.00     0.017 A 
ENDBRANCH  20  25
ENDBRANCH  19  20
ENDBRANCH   3  19
TORSDOF 5
ENDMDL
MODEL 9
REMARK VINA RESULT:      -7.4      2.463      4.172
REMARK  5 active torsions:
REMARK  status: ('A' for Active; 'I' for Inactive)
REMARK    1  A    between atoms: C_11  and  N_12 
REMARK       I    between atoms: N_12  and  C_13 
REMARK       I    between atoms: C_13  and  N_14 
REMARK    2  A    between atoms: N_14  and  C_15 
REMARK    3  A    between atoms: C_15  and  C_16 
REMARK    4  A    between atoms: C_16  and  N_17 
REMARK    5  A    between atoms: C_16  and  C_21 
ROOT
HETATM    1  N   UNL     1      40.871 -16.703  -0.090  1.00  0.00    -0.314 N 
HETATM    2  C   UNL     1      41.194 -15.698  -0.941  1.00  0.00     0.298 C 
HETATM    3  N   UNL     1      41.795 -14.585  -0.444  1.00  0.00    -0.242 NA
HETATM    4  O   UNL     1      40.980 -15.838  -2.143  1.00  0.00    -0.254 OA
HETATM    5  H   UNL     1      40.356 -17.426  -0.586  1.00  0.00     0.170 HD
HETATM    6  H   UNL     1      41.358 -14.310   0.428  1.00  0.00     0.132 HD
ENDROOT
BRANCH   1   7
HETATM    7  C   UNL     1      41.183 -17.008   1.251  1.00  0.00     0.038 A 
HETATM    8  C   UNL     1      40.630 -16.401   2.372  1.00  0.00     0.032 A 
HETATM    9  C   UNL     1      41.068 -16.755   3.655  1.00  0.00     0.036 A 
HETATM   10  C   UNL     1      42.068 -17.695   3.847  1.00  0.00     0.086 A 
HETATM   11  N   UNL     1      42.482 -17.976   5.092  1.00  0.00    -0.250 NA
HETATM   12  C   UNL     1      42.637 -18.318   2.720  1.00  0.00     0.088 A 
HETATM   13  C   UNL     1      43.481 -18.886   5.223  1.00  0.00     0.055 A 
HETATM   14  C   UNL     1      43.944 -19.175   6.619  1.00  0.00     0.072 C 
HETATM   15  C   UNL     1      44.050 -19.503   4.108  1.00  0.00     0.055 A 
HETATM   16  N   UNL     1      43.624 -19.220   2.850  1.00  0.00    -0.250 NA
HETATM   17  C   UNL     1      45.166 -20.496   4.230  1.00  0.00     0.072 C 
HETATM   18  C   UNL     1      42.180 -17.972   1.452  1.00  0.00     0.063 A 
ENDBRANCH   1   7
BRANCH   3  19
HETATM   19  C   UNL     1      42.111 -13.462  -1.326  1.00  0.00     0.135 C 
BRANCH  19  20
HETATM   20  C   UNL     1      41.213 -12.187  -1.252  1.00  0.00     0.240 C 
BRANCH  20  21
HETATM   21  N   UNL     1      40.022 -12.125  -2.205  1.00  0.00    -0.069 N 
HETATM   22  H   UNL     1      39.786 -11.124  -2.210  1.00  0.00     0.279 HD
HETATM   23  C   UNL     1      40.269 -12.451  -3.646  1.00  0.00     0.270 C 
HETATM   24  C   UNL     1      38.797 -12.816  -1.680  1.00  0.00     0.270 C 
ENDBRANCH  20  21
BRANCH  20  25
HETATM   25  C   UNL     1      41.993 -10.886  -1.249  1.00  0.00     0.014 A 
HETATM   26  S   UNL     1      41.131  -9.404  -1.086  1.00  0.00    -0.104 SA
HETATM   27  C   UNL     1      42.561  -8.477  -1.174  1.00  0.00     0.050 A 
HETATM   28  C   UNL     1      43.676  -9.265  -1.343  1.00  0.00     0.008 A 
HETATM   29  C   UNL     1      43.348 -10.650  -1.391  1.00  0.00     0.017 A 
ENDBRANCH  20  25
ENDBRANCH  19  20
ENDBRANCH   3  19
TORSDOF 5
ENDMDL
MODEL 10
REMARK VINA RESULT:      -7.3      2.957      4.424
REMARK  5 active torsions:
REMARK  status: ('A' for Active; 'I' for Inactive)
REMARK    1  A    between atoms: C_11  and  N_12 
REMARK       I    between atoms: N_12  and  C_13 
REMARK       I    between atoms: C_13  and  N_14 
REMARK    2  A    between atoms: N_14  and  C_15 
REMARK    3  A    between atoms: C_15  and  C_16 
REMARK    4  A    between atoms: C_16  and  N_17 
REMARK    5  A    between atoms: C_16  and  C_21 
ROOT
HETATM    1  N   UNL     1      42.710 -16.310   0.647  1.00  0.00    -0.314 N 
HETATM    2  C   UNL     1      41.692 -15.436   0.459  1.00  0.00     0.298 C 
HETATM    3  N   UNL     1      40.618 -15.489   1.291  1.00  0.00    -0.242 NA
HETATM    4  O   UNL     1      41.784 -14.587  -0.425  1.00  0.00    -0.254 OA
HETATM    5  H   UNL     1      43.397 -16.208  -0.096  1.00  0.00     0.170 HD
HETATM    6  H   UNL     1      40.355 -16.453   1.463  1.00  0.00     0.132 HD
ENDROOT
BRANCH   1   7
HETATM    7  C   UNL     1      43.069 -17.212   1.671  1.00  0.00     0.038 A 
HETATM    8  C   UNL     1      43.502 -18.519   1.487  1.00  0.00     0.032 A 
HETATM    9  C   UNL     1      43.775 -19.335   2.593  1.00  0.00     0.036 A 
HETATM   10  C   UNL     1      43.605 -18.879   3.891  1.00  0.00     0.086 A 
HETATM   11  N   UNL     1      43.842 -19.707   4.920  1.00  0.00    -0.250 NA
HETATM   12  C   UNL     1      43.166 -17.556   4.092  1.00  0.00     0.088 A 
HETATM   13  C   UNL     1      43.636 -19.218   6.170  1.00  0.00     0.055 A 
HETATM   14  C   UNL     1      43.889 -20.161   7.307  1.00  0.00     0.072 C 
HETATM   15  C   UNL     1      43.198 -17.909   6.373  1.00  0.00     0.055 A 
HETATM   16  N   UNL     1      42.964 -17.072   5.329  1.00  0.00    -0.250 NA
HETATM   17  C   UNL     1      42.947 -17.357   7.743  1.00  0.00     0.072 C 
HETATM   18  C   UNL     1      42.917 -16.749   2.986  1.00  0.00     0.063 A 
ENDBRANCH   1   7
BRANCH   3  19
HETATM   19  C   UNL     1      39.480 -14.594   1.086  1.00  0.00     0.135 C 
BRANCH  19  20
HETATM   20  C   UNL     1      39.224 -13.468   2.138  1.00  0.00     0.240 C 
BRANCH  20  21
HETATM   21  N   UNL     1      39.135 -12.039   1.611  1.00  0.00    -0.069 N 
HETATM   22  H   UNL     1      39.785 -11.529   2.223  1.00  0.00     0.279 HD
HETATM   23  C   UNL     1      39.649 -11.775   0.229  1.00  0.00     0.270 C 
HETATM   24  C   UNL     1      37.796 -11.398   1.838  1.00  0.00     0.270 C 
ENDBRANCH  20  21
BRANCH  20  25
HETATM   25  C   UNL     1      40.118 -13.557   3.360  1.00  0.00     0.014 A 
HETATM   26  S   UNL     1      41.610 -12.698   3.360  1.00  0.00    -0.104 SA
HETATM   27  C   UNL     1      42.013 -13.249   4.923  1.00  0.00     0.050 A 
HETATM   28  C   UNL     1      41.050 -14.086   5.439  1.00  0.00     0.008 A 
HETATM   29  C   UNL     1      39.963 -14.266   4.538  1.00  0.00     0.017 A 
ENDBRANCH  20  25
ENDBRANCH  19  20
ENDBRANCH   3  19
TORSDOF 5
ENDMDL
