MODEL 1
REMARK VINA RESULT:      -9.6      0.000      0.000
REMARK  6 active torsions:
REMARK  status: ('A' for Active; 'I' for Inactive)
REMARK    1  A    between atoms: C_2  and  C_3 
REMARK    2  A    between atoms: C_6  and  N_7 
REMARK    3  A    between atoms: C_8  and  C_10 
REMARK    4  A    between atoms: C_8  and  O_9 
REMARK       I    between atoms: C_10  and  N_11 
REMARK    5  A    between atoms: N_11  and  C_12 
REMARK    6  A    between atoms: C_12  and  C_13 
ROOT
HETATM    1  N   UNL     1      40.712 -14.759   3.720  1.00  0.00    -0.254 N 
HETATM    2  C   UNL     1      40.591 -15.383   2.387  1.00  0.00     0.256 C 
HETATM    3  C   UNL     1      40.151 -14.423   1.294  1.00  0.00     0.034 A 
HETATM    4  C   UNL     1      39.544 -13.230   1.660  1.00  0.00     0.048 A 
HETATM    5  N   UNL     1      39.416 -12.929   3.004  1.00  0.00    -0.308 N 
HETATM    6  C   UNL     1      39.966 -13.632   4.033  1.00  0.00     0.330 C 
HETATM    7  O   UNL     1      39.790 -13.176   5.165  1.00  0.00    -0.246 OA
HETATM    8  C   UNL     1      40.263 -14.716  -0.078  1.00  0.00     0.015 A 
HETATM    9  C   UNL     1      39.806 -13.815  -1.043  1.00  0.00     0.001 A 
HETATM   10  C   UNL     1      39.204 -12.622  -0.651  1.00  0.00     0.002 A 
HETATM   11  C   UNL     1      39.062 -12.332   0.705  1.00  0.00     0.030 A 
HETATM   12  H   UNL     1      38.923 -12.095   3.293  1.00  0.00     0.170 HD
ENDROOT
BRANCH   2  13
HETATM   13  C   UNL     1      41.969 -16.038   1.940  1.00  0.00     0.279 C 
HETATM   14  N   UNL     1      42.007 -17.415   1.875  1.00  0.00    -0.352 N 
HETATM   15  H   UNL     1      41.124 -17.914   1.882  1.00  0.00     0.162 HD
HETATM   16  O   UNL     1      42.967 -15.332   1.763  1.00  0.00    -0.268 OA
BRANCH  14  17
HETATM   17  C   UNL     1      43.165 -18.111   1.364  1.00  0.00     0.161 C 
BRANCH  17  18
HETATM   18  C   UNL     1      43.731 -19.074   2.375  1.00  0.00    -0.038 A 
HETATM   19  C   UNL     1      43.871 -20.437   2.059  1.00  0.00     0.048 A 
HETATM   20  C   UNL     1      44.333 -21.291   3.038  1.00  0.00     0.105 A 
HETATM   21  C   UNL     1      44.644 -20.845   4.300  1.00  0.00     0.105 A 
HETATM   22  O   UNL     1      44.521 -22.631   2.899  1.00  0.00    -0.323 OA
HETATM   23  O   UNL     1      45.066 -21.847   5.115  1.00  0.00    -0.323 OA
HETATM   24  C   UNL     1      44.513 -19.520   4.653  1.00  0.00     0.040 A 
HETATM   25  C   UNL     1      44.977 -22.978   4.222  1.00  0.00     0.352 A 
HETATM   26  C   UNL     1      44.048 -18.630   3.680  1.00  0.00     0.012 A 
ENDBRANCH  17  18
ENDBRANCH  14  17
ENDBRANCH   2  13
BRANCH   2  27
HETATM   27  O   UNL     1      39.568 -16.379   2.458  1.00  0.00    -0.359 OA
HETATM   28  H   UNL     1      38.742 -15.880   2.599  1.00  0.00     0.213 HD
ENDBRANCH   2  27
BRANCH   1  29
HETATM   29  C   UNL     1      41.448 -15.431   4.766  1.00  0.00     0.043 A 
HETATM   30  C   UNL     1      42.722 -15.015   5.176  1.00  0.00     0.030 A 
HETATM   31  C   UNL     1      43.363 -15.604   6.273  1.00  0.00     0.009 A 
HETATM   32  C   UNL     1      42.746 -16.634   6.987  1.00  0.00    -0.058 A 
HETATM   33  C   UNL     1      41.489 -17.077   6.573  1.00  0.00     0.009 A 
HETATM   34  C   UNL     1      40.853 -16.486   5.477  1.00  0.00     0.030 A 
BRANCH  32  35
HETATM   35  C   UNL     1      43.408 -17.230   8.202  1.00  0.00     0.034 C 
HETATM   36  C   UNL     1      43.886 -18.651   7.936  1.00  0.00     0.010 C 
ENDBRANCH  32  35
ENDBRANCH   1  29
TORSDOF 6
ENDMDL
MODEL 2
REMARK VINA RESULT:      -9.1      1.943      4.389
REMARK  6 active torsions:
REMARK  status: ('A' for Active; 'I' for Inactive)
REMARK    1  A    between atoms: C_2  and  C_3 
REMARK    2  A    between atoms: C_6  and  N_7 
REMARK    3  A    between atoms: C_8  and  C_10 
REMARK    4  A    between atoms: C_8  and  O_9 
REMARK       I    between atoms: C_10  and  N_11 
REMARK    5  A    between atoms: N_11  and  C_12 
REMARK    6  A    between atoms: C_12  and  C_13 
ROOT
HETATM    1  N   UNL     1      41.591 -15.031   3.130  1.00  0.00    -0.254 N 
HETATM    2  C   UNL     1      42.087 -14.133   4.191  1.00  0.00     0.256 C 
HETATM    3  C   UNL     1      41.078 -13.087   4.637  1.00  0.00     0.034 A 
HETATM    4  C   UNL     1      40.004 -12.801   3.807  1.00  0.00     0.048 A 
HETATM    5  N   UNL     1      39.856 -13.519   2.633  1.00  0.00    -0.308 N 
HETATM    6  C   UNL     1      40.592 -14.605   2.266  1.00  0.00     0.330 C 
HETATM    7  O   UNL     1      40.275 -15.150   1.207  1.00  0.00    -0.246 OA
HETATM    8  C   UNL     1      41.218 -12.340   5.821  1.00  0.00     0.015 A 
HETATM    9  C   UNL     1      40.282 -11.361   6.165  1.00  0.00     0.001 A 
HETATM   10  C   UNL     1      39.210 -11.095   5.317  1.00  0.00     0.002 A 
HETATM   11  C   UNL     1      39.075 -11.809   4.128  1.00  0.00     0.030 A 
HETATM   12  H   UNL     1      39.116 -13.286   1.985  1.00  0.00     0.170 HD
ENDROOT
BRANCH   2  13
HETATM   13  C   UNL     1      42.535 -14.962   5.472  1.00  0.00     0.279 C 
HETATM   14  N   UNL     1      43.891 -15.114   5.669  1.00  0.00    -0.352 N 
HETATM   15  H   UNL     1      44.516 -14.513   5.142  1.00  0.00     0.162 HD
HETATM   16  O   UNL     1      41.690 -15.515   6.184  1.00  0.00    -0.268 OA
BRANCH  14  17
HETATM   17  C   UNL     1      44.412 -15.741   6.861  1.00  0.00     0.161 C 
BRANCH  17  18
HETATM   18  C   UNL     1      44.355 -17.244   6.774  1.00  0.00    -0.038 A 
HETATM   19  C   UNL     1      44.941 -17.918   5.687  1.00  0.00     0.048 A 
HETATM   20  C   UNL     1      44.807 -19.288   5.619  1.00  0.00     0.105 A 
HETATM   21  C   UNL     1      44.114 -19.996   6.571  1.00  0.00     0.105 A 
HETATM   22  O   UNL     1      45.306 -20.086   4.638  1.00  0.00    -0.323 OA
HETATM   23  O   UNL     1      44.090 -21.330   6.309  1.00  0.00    -0.323 OA
HETATM   24  C   UNL     1      43.520 -19.375   7.646  1.00  0.00     0.040 A 
HETATM   25  C   UNL     1      44.840 -21.378   5.077  1.00  0.00     0.352 A 
HETATM   26  C   UNL     1      43.640 -17.984   7.743  1.00  0.00     0.012 A 
ENDBRANCH  17  18
ENDBRANCH  14  17
ENDBRANCH   2  13
BRANCH   2  27
HETATM   27  O   UNL     1      43.195 -13.398   3.665  1.00  0.00    -0.359 OA
HETATM   28  H   UNL     1      42.898 -13.095   2.786  1.00  0.00     0.213 HD
ENDBRANCH   2  27
BRANCH   1  29
HETATM   29  C   UNL     1      42.276 -16.273   2.857  1.00  0.00     0.043 A 
HETATM   30  C   UNL     1      41.808 -17.510   3.324  1.00  0.00     0.030 A 
HETATM   31  C   UNL     1      42.420 -18.711   2.944  1.00  0.00     0.009 A 
HETATM   32  C   UNL     1      43.526 -18.706   2.091  1.00  0.00    -0.058 A 
HETATM   33  C   UNL     1      44.020 -17.481   1.641  1.00  0.00     0.009 A 
HETATM   34  C   UNL     1      43.406 -16.284   2.023  1.00  0.00     0.030 A 
BRANCH  32  35
HETATM   35  C   UNL     1      44.151 -19.999   1.635  1.00  0.00     0.034 C 
HETATM   36  C   UNL     1      43.202 -21.174   1.824  1.00  0.00     0.010 C 
ENDBRANCH  32  35
ENDBRANCH   1  29
TORSDOF 6
ENDMDL
MODEL 3
REMARK VINA RESULT:      -8.8      3.236      6.660
REMARK  6 active torsions:
REMARK  status: ('A' for Active; 'I' for Inactive)
REMARK    1  A    between atoms: C_2  and  C_3 
REMARK    2  A    between atoms: C_6  and  N_7 
REMARK    3  A    between atoms: C_8  and  C_10 
REMARK    4  A    between atoms: C_8  and  O_9 
REMARK       I    between atoms: C_10  and  N_11 
REMARK    5  A    between atoms: N_11  and  C_12 
REMARK    6  A    between atoms: C_12  and  C_13 
ROOT
HETATM    1  N   UNL     1      41.479 -15.019   2.888  1.00  0.00    -0.254 N 
HETATM    2  C   UNL     1      42.010 -13.970   3.781  1.00  0.00     0.256 C 
HETATM    3  C   UNL     1      40.997 -12.897   4.145  1.00  0.00     0.034 A 
HETATM    4  C   UNL     1      39.865 -12.755   3.356  1.00  0.00     0.048 A 
HETATM    5  N   UNL     1      39.668 -13.633   2.304  1.00  0.00    -0.308 N 
HETATM    6  C   UNL     1      40.415 -14.741   2.042  1.00  0.00     0.330 C 
HETATM    7  O   UNL     1      40.051 -15.435   1.090  1.00  0.00    -0.246 OA
HETATM    8  C   UNL     1      41.185 -11.989   5.204  1.00  0.00     0.015 A 
HETATM    9  C   UNL     1      40.240 -10.995   5.471  1.00  0.00     0.001 A 
HETATM   10  C   UNL     1      39.109 -10.876   4.668  1.00  0.00     0.002 A 
HETATM   11  C   UNL     1      38.925 -11.751   3.599  1.00  0.00     0.030 A 
HETATM   12  H   UNL     1      38.882 -13.509   1.680  1.00  0.00     0.170 HD
ENDROOT
BRANCH   2  13
HETATM   13  C   UNL     1      42.563 -14.602   5.132  1.00  0.00     0.279 C 
HETATM   14  N   UNL     1      43.929 -14.564   5.319  1.00  0.00    -0.352 N 
HETATM   15  H   UNL     1      44.471 -13.947   4.724  1.00  0.00     0.162 HD
HETATM   16  O   UNL     1      41.797 -15.180   5.910  1.00  0.00    -0.268 OA
BRANCH  14  17
HETATM   17  C   UNL     1      44.529 -14.996   6.559  1.00  0.00     0.161 C 
BRANCH  17  18
HETATM   18  C   UNL     1      44.997 -13.830   7.392  1.00  0.00    -0.038 A 
HETATM   19  C   UNL     1      44.170 -13.294   8.395  1.00  0.00     0.048 A 
HETATM   20  C   UNL     1      44.616 -12.187   9.086  1.00  0.00     0.105 A 
HETATM   21  C   UNL     1      45.828 -11.602   8.811  1.00  0.00     0.105 A 
HETATM   22  O   UNL     1      43.941 -11.546  10.077  1.00  0.00    -0.323 OA
HETATM   23  O   UNL     1      46.070 -10.518   9.595  1.00  0.00    -0.323 OA
HETATM   24  C   UNL     1      46.664 -12.091   7.832  1.00  0.00     0.040 A 
HETATM   25  C   UNL     1      44.865 -10.483  10.389  1.00  0.00     0.352 A 
HETATM   26  C   UNL     1      46.239 -13.214   7.115  1.00  0.00     0.012 A 
ENDBRANCH  17  18
ENDBRANCH  14  17
ENDBRANCH   2  13
BRANCH   2  27
HETATM   27  O   UNL     1      43.058 -13.289   3.087  1.00  0.00    -0.359 OA
HETATM   28  H   UNL     1      43.503 -12.753   3.770  1.00  0.00     0.213 HD
ENDBRANCH   2  27
BRANCH   1  29
HETATM   29  C   UNL     1      42.187 -16.270   2.744  1.00  0.00     0.043 A 
HETATM   30  C   UNL     1      43.318 -16.404   1.927  1.00  0.00     0.030 A 
HETATM   31  C   UNL     1      44.059 -17.593   1.900  1.00  0.00     0.009 A 
HETATM   32  C   UNL     1      43.682 -18.684   2.686  1.00  0.00    -0.058 A 
HETATM   33  C   UNL     1      42.542 -18.573   3.484  1.00  0.00     0.009 A 
HETATM   34  C   UNL     1      41.805 -17.385   3.508  1.00  0.00     0.030 A 
BRANCH  32  35
HETATM   35  C   UNL     1      44.510 -19.943   2.703  1.00  0.00     0.034 C 
HETATM   36  C   UNL     1      43.862 -21.046   1.878  1.00  0.00     0.010 C 
ENDBRANCH  32  35
ENDBRANCH   1  29
TORSDOF 6
ENDMDL
MODEL 4
REMARK VINA RESULT:      -8.7      2.388      7.511
REMARK  6 active torsions:
REMARK  status: ('A' for Active; 'I' for Inactive)
REMARK    1  A    between atoms: C_2  and  C_3 
REMARK    2  A    between atoms: C_6  and  N_7 
REMARK    3  A    between atoms: C_8  and  C_10 
REMARK    4  A    between atoms: C_8  and  O_9 
REMARK       I    between atoms: C_10  and  N_11 
REMARK    5  A    between atoms: N_11  and  C_12 
REMARK    6  A    between atoms: C_12  and  C_13 
ROOT
HETATM    1  N   UNL     1      42.882 -16.298   4.651  1.00  0.00    -0.254 N 
HETATM    2  C   UNL     1      42.952 -16.769   3.253  1.00  0.00     0.256 C 
HETATM    3  C   UNL     1      43.389 -18.217   3.110  1.00  0.00     0.034 A 
HETATM    4  C   UNL     1      44.037 -18.826   4.175  1.00  0.00     0.048 A 
HETATM    5  N   UNL     1      44.207 -18.114   5.350  1.00  0.00    -0.308 N 
HETATM    6  C   UNL     1      43.666 -16.896   5.628  1.00  0.00     0.330 C 
HETATM    7  O   UNL     1      43.883 -16.443   6.753  1.00  0.00    -0.246 OA
HETATM    8  C   UNL     1      43.234 -18.953   1.921  1.00  0.00     0.015 A 
HETATM    9  C   UNL     1      43.690 -20.271   1.829  1.00  0.00     0.001 A 
HETATM   10  C   UNL     1      44.333 -20.862   2.914  1.00  0.00     0.002 A 
HETATM   11  C   UNL     1      44.518 -20.134   4.088  1.00  0.00     0.030 A 
HETATM   12  H   UNL     1      44.730 -18.517   6.116  1.00  0.00     0.170 HD
ENDROOT
BRANCH   2  13
HETATM   13  C   UNL     1      41.545 -16.606   2.529  1.00  0.00     0.279 C 
HETATM   14  N   UNL     1      41.433 -15.575   1.619  1.00  0.00    -0.352 N 
HETATM   15  H   UNL     1      42.288 -15.138   1.292  1.00  0.00     0.162 HD
HETATM   16  O   UNL     1      40.589 -17.317   2.855  1.00  0.00    -0.268 OA
BRANCH  14  17
HETATM   17  C   UNL     1      40.246 -15.410   0.815  1.00  0.00     0.161 C 
BRANCH  17  18
HETATM   18  C   UNL     1      39.461 -14.188   1.219  1.00  0.00    -0.038 A 
HETATM   19  C   UNL     1      38.266 -13.857   0.555  1.00  0.00     0.048 A 
HETATM   20  C   UNL     1      37.618 -12.696   0.916  1.00  0.00     0.105 A 
HETATM   21  C   UNL     1      38.114 -11.863   1.890  1.00  0.00     0.105 A 
HETATM   22  O   UNL     1      36.461 -12.230   0.373  1.00  0.00    -0.323 OA
HETATM   23  O   UNL     1      37.332 -10.768   2.083  1.00  0.00    -0.323 OA
HETATM   24  C   UNL     1      39.283 -12.146   2.559  1.00  0.00     0.040 A 
HETATM   25  C   UNL     1      36.291 -11.003   1.112  1.00  0.00     0.352 A 
HETATM   26  C   UNL     1      39.963 -13.319   2.215  1.00  0.00     0.012 A 
ENDBRANCH  17  18
ENDBRANCH  14  17
ENDBRANCH   2  13
BRANCH   2  27
HETATM   27  O   UNL     1      43.949 -15.998   2.578  1.00  0.00    -0.359 OA
HETATM   28  H   UNL     1      44.042 -15.187   3.112  1.00  0.00     0.213 HD
ENDBRANCH   2  27
BRANCH   1  29
HETATM   29  C   UNL     1      42.155 -15.091   4.970  1.00  0.00     0.043 A 
HETATM   30  C   UNL     1      40.881 -15.112   5.554  1.00  0.00     0.030 A 
HETATM   31  C   UNL     1      40.249 -13.932   5.966  1.00  0.00     0.009 A 
HETATM   32  C   UNL     1      40.875 -12.694   5.798  1.00  0.00    -0.058 A 
HETATM   33  C   UNL     1      42.133 -12.656   5.193  1.00  0.00     0.009 A 
HETATM   34  C   UNL     1      42.759 -13.837   4.783  1.00  0.00     0.030 A 
BRANCH  32  35
HETATM   35  C   UNL     1      40.224 -11.429   6.293  1.00  0.00     0.034 C 
HETATM   36  C   UNL     1      39.588 -11.629   7.661  1.00  0.00     0.010 C 
ENDBRANCH  32  35
ENDBRANCH   1  29
TORSDOF 6
ENDMDL
MODEL 5
REMARK VINA RESULT:      -8.6      2.628      7.564
REMARK  6 active torsions:
REMARK  status: ('A' for Active; 'I' for Inactive)
REMARK    1  A    between atoms: C_2  and  C_3 
REMARK    2  A    between atoms: C_6  and  N_7 
REMARK    3  A    between atoms: C_8  and  C_10 
REMARK    4  A    between atoms: C_8  and  O_9 
REMARK       I    between atoms: C_10  and  N_11 
REMARK    5  A    between atoms: N_11  and  C_12 
REMARK    6  A    between atoms: C_12  and  C_13 
ROOT
HETATM    1  N   UNL     1      43.388 -16.991   3.794  1.00  0.00    -0.254 N 
HETATM    2  C   UNL     1      43.527 -17.691   2.501  1.00  0.00     0.256 C 
HETATM    3  C   UNL     1      43.783 -19.184   2.632  1.00  0.00     0.034 A 
HETATM    4  C   UNL     1      44.244 -19.677   3.845  1.00  0.00     0.048 A 
HETATM    5  N   UNL     1      44.395 -18.804   4.908  1.00  0.00    -0.308 N 
HETATM    6  C   UNL     1      43.993 -17.503   4.933  1.00  0.00     0.330 C 
HETATM    7  O   UNL     1      44.161 -16.897   5.994  1.00  0.00    -0.246 OA
HETATM    8  C   UNL     1      43.646 -20.084   1.560  1.00  0.00     0.015 A 
HETATM    9  C   UNL     1      43.932 -21.442   1.723  1.00  0.00     0.001 A 
HETATM   10  C   UNL     1      44.389 -21.913   2.951  1.00  0.00     0.002 A 
HETATM   11  C   UNL     1      44.556 -21.027   4.013  1.00  0.00     0.030 A 
HETATM   12  H   UNL     1      44.786 -19.130   5.781  1.00  0.00     0.170 HD
ENDROOT
BRANCH   2  13
HETATM   13  C   UNL     1      42.228 -17.492   1.606  1.00  0.00     0.279 C 
HETATM   14  N   UNL     1      42.346 -16.645   0.524  1.00  0.00    -0.352 N 
HETATM   15  H   UNL     1      43.280 -16.388   0.224  1.00  0.00     0.162 HD
HETATM   16  O   UNL     1      41.154 -18.003   1.943  1.00  0.00    -0.268 OA
BRANCH  14  17
HETATM   17  C   UNL     1      41.270 -16.486  -0.425  1.00  0.00     0.161 C 
BRANCH  17  18
HETATM   18  C   UNL     1      41.132 -15.057  -0.883  1.00  0.00    -0.038 A 
HETATM   19  C   UNL     1      40.802 -14.765  -2.218  1.00  0.00     0.048 A 
HETATM   20  C   UNL     1      40.751 -13.443  -2.605  1.00  0.00     0.105 A 
HETATM   21  C   UNL     1      41.022 -12.421  -1.727  1.00  0.00     0.105 A 
HETATM   22  O   UNL     1      40.454 -12.992  -3.852  1.00  0.00    -0.323 OA
HETATM   23  O   UNL     1      40.930 -11.198  -2.311  1.00  0.00    -0.323 OA
HETATM   24  C   UNL     1      41.357 -12.664  -0.413  1.00  0.00     0.040 A 
HETATM   25  C   UNL     1      40.578 -11.567  -3.661  1.00  0.00     0.352 A 
HETATM   26  C   UNL     1      41.415 -13.996   0.009  1.00  0.00     0.012 A 
ENDBRANCH  17  18
ENDBRANCH  14  17
ENDBRANCH   2  13
BRANCH   2  27
HETATM   27  O   UNL     1      44.675 -17.161   1.834  1.00  0.00    -0.359 OA
HETATM   28  H   UNL     1      45.018 -16.473   2.435  1.00  0.00     0.213 HD
ENDBRANCH   2  27
BRANCH   1  29
HETATM   29  C   UNL     1      42.798 -15.673   3.840  1.00  0.00     0.043 A 
HETATM   30  C   UNL     1      43.453 -14.537   3.343  1.00  0.00     0.030 A 
HETATM   31  C   UNL     1      42.812 -13.293   3.287  1.00  0.00     0.009 A 
HETATM   32  C   UNL     1      41.496 -13.150   3.734  1.00  0.00    -0.058 A 
HETATM   33  C   UNL     1      40.841 -14.267   4.257  1.00  0.00     0.009 A 
HETATM   34  C   UNL     1      41.486 -15.507   4.312  1.00  0.00     0.030 A 
BRANCH  32  35
HETATM   35  C   UNL     1      40.785 -11.828   3.621  1.00  0.00     0.034 C 
HETATM   36  C   UNL     1      39.523 -11.944   2.777  1.00  0.00     0.010 C 
ENDBRANCH  32  35
ENDBRANCH   1  29
TORSDOF 6
ENDMDL
MODEL 6
REMARK VINA RESULT:      -8.5      4.103      8.206
REMARK  6 active torsions:
REMARK  status: ('A' for Active; 'I' for Inactive)
REMARK    1  A    between atoms: C_2  and  C_3 
REMARK    2  A    between atoms: C_6  and  N_7 
REMARK    3  A    between atoms: C_8  and  C_10 
REMARK    4  A    between atoms: C_8  and  O_9 
REMARK       I    between atoms: C_10  and  N_11 
REMARK    5  A    between atoms: N_11  and  C_12 
REMARK    6  A    between atoms: C_12  and  C_13 
ROOT
HETATM    1  N   UNL     1      41.266 -14.449   4.697  1.00  0.00    -0.254 N 
HETATM    2  C   UNL     1      42.241 -15.208   5.506  1.00  0.00     0.256 C 
HETATM    3  C   UNL     1      42.757 -16.468   4.831  1.00  0.00     0.034 A 
HETATM    4  C   UNL     1      42.035 -16.999   3.772  1.00  0.00     0.048 A 
HETATM    5  N   UNL     1      40.907 -16.331   3.329  1.00  0.00    -0.308 N 
HETATM    6  C   UNL     1      40.499 -15.098   3.740  1.00  0.00     0.330 C 
HETATM    7  O   UNL     1      39.497 -14.639   3.188  1.00  0.00    -0.246 OA
HETATM    8  C   UNL     1      43.895 -17.167   5.274  1.00  0.00     0.015 A 
HETATM    9  C   UNL     1      44.304 -18.344   4.642  1.00  0.00     0.001 A 
HETATM   10  C   UNL     1      43.565 -18.854   3.578  1.00  0.00     0.002 A 
HETATM   11  C   UNL     1      42.420 -18.187   3.147  1.00  0.00     0.030 A 
HETATM   12  H   UNL     1      40.333 -16.732   2.600  1.00  0.00     0.170 HD
ENDROOT
BRANCH   2  13
HETATM   13  C   UNL     1      43.494 -14.302   5.881  1.00  0.00     0.279 C 
HETATM   14  N   UNL     1      43.676 -14.021   7.218  1.00  0.00    -0.352 N 
HETATM   15  H   UNL     1      43.163 -14.577   7.894  1.00  0.00     0.162 HD
HETATM   16  O   UNL     1      44.195 -13.808   4.991  1.00  0.00    -0.268 OA
BRANCH  14  17
HETATM   17  C   UNL     1      44.845 -13.313   7.684  1.00  0.00     0.161 C 
BRANCH  17  18
HETATM   18  C   UNL     1      44.508 -12.328   8.773  1.00  0.00    -0.038 A 
HETATM   19  C   UNL     1      43.310 -11.592   8.722  1.00  0.00     0.048 A 
HETATM   20  C   UNL     1      43.076 -10.656   9.706  1.00  0.00     0.105 A 
HETATM   21  C   UNL     1      43.980 -10.425  10.716  1.00  0.00     0.105 A 
HETATM   22  O   UNL     1      41.977  -9.861   9.801  1.00  0.00    -0.323 OA
HETATM   23  O   UNL     1      43.563  -9.456  11.572  1.00  0.00    -0.323 OA
HETATM   24  C   UNL     1      45.166 -11.119  10.798  1.00  0.00     0.040 A 
HETATM   25  C   UNL     1      42.297  -9.096  10.981  1.00  0.00     0.352 A 
HETATM   26  C   UNL     1      45.431 -12.076   9.813  1.00  0.00     0.012 A 
ENDBRANCH  17  18
ENDBRANCH  14  17
ENDBRANCH   2  13
BRANCH   2  27
HETATM   27  O   UNL     1      41.578 -15.651   6.692  1.00  0.00    -0.359 OA
HETATM   28  H   UNL     1      41.074 -14.875   7.002  1.00  0.00     0.213 HD
ENDBRANCH   2  27
BRANCH   1  29
HETATM   29  C   UNL     1      40.964 -13.077   5.032  1.00  0.00     0.043 A 
HETATM   30  C   UNL     1      41.400 -11.997   4.252  1.00  0.00     0.030 A 
HETATM   31  C   UNL     1      40.991 -10.687   4.528  1.00  0.00     0.009 A 
HETATM   32  C   UNL     1      40.137 -10.419   5.601  1.00  0.00    -0.058 A 
HETATM   33  C   UNL     1      39.716 -11.482   6.403  1.00  0.00     0.009 A 
HETATM   34  C   UNL     1      40.128 -12.789   6.124  1.00  0.00     0.030 A 
BRANCH  32  35
HETATM   35  C   UNL     1      39.649  -9.019   5.866  1.00  0.00     0.034 C 
HETATM   36  C   UNL     1      39.193  -8.851   7.308  1.00  0.00     0.010 C 
ENDBRANCH  32  35
ENDBRANCH   1  29
TORSDOF 6
ENDMDL
MODEL 7
REMARK VINA RESULT:      -8.5      1.598      2.334
REMARK  6 active torsions:
REMARK  status: ('A' for Active; 'I' for Inactive)
REMARK    1  A    between atoms: C_2  and  C_3 
REMARK    2  A    between atoms: C_6  and  N_7 
REMARK    3  A    between atoms: C_8  and  C_10 
REMARK    4  A    between atoms: C_8  and  O_9 
REMARK       I    between atoms: C_10  and  N_11 
REMARK    5  A    between atoms: N_11  and  C_12 
REMARK    6  A    between atoms: C_12  and  C_13 
ROOT
HETATM    1  N   UNL     1      40.069 -13.498   2.884  1.00  0.00    -0.254 N 
HETATM    2  C   UNL     1      39.666 -14.359   1.754  1.00  0.00     0.256 C 
HETATM    3  C   UNL     1      38.937 -13.619   0.644  1.00  0.00     0.034 A 
HETATM    4  C   UNL     1      38.378 -12.380   0.925  1.00  0.00     0.048 A 
HETATM    5  N   UNL     1      38.556 -11.836   2.184  1.00  0.00    -0.308 N 
HETATM    6  C   UNL     1      39.365 -12.334   3.160  1.00  0.00     0.330 C 
HETATM    7  O   UNL     1      39.440 -11.677   4.200  1.00  0.00    -0.246 OA
HETATM    8  C   UNL     1      38.736 -14.161  -0.638  1.00  0.00     0.015 A 
HETATM    9  C   UNL     1      38.022 -13.456  -1.611  1.00  0.00     0.001 A 
HETATM   10  C   UNL     1      37.475 -12.212  -1.307  1.00  0.00     0.002 A 
HETATM   11  C   UNL     1      37.643 -11.676  -0.031  1.00  0.00     0.030 A 
HETATM   12  H   UNL     1      38.107 -10.964   2.429  1.00  0.00     0.170 HD
ENDROOT
BRANCH   2  13
HETATM   13  C   UNL     1      40.930 -15.082   1.114  1.00  0.00     0.279 C 
HETATM   14  N   UNL     1      41.174 -16.376   1.523  1.00  0.00    -0.352 N 
HETATM   15  H   UNL     1      40.432 -16.867   2.009  1.00  0.00     0.162 HD
HETATM   16  O   UNL     1      41.693 -14.460   0.367  1.00  0.00    -0.268 OA
BRANCH  14  17
HETATM   17  C   UNL     1      42.218 -17.170   0.918  1.00  0.00     0.161 C 
BRANCH  17  18
HETATM   18  C   UNL     1      42.915 -18.043   1.929  1.00  0.00    -0.038 A 
HETATM   19  C   UNL     1      43.098 -17.597   3.250  1.00  0.00     0.048 A 
HETATM   20  C   UNL     1      43.797 -18.404   4.121  1.00  0.00     0.105 A 
HETATM   21  C   UNL     1      44.321 -19.613   3.727  1.00  0.00     0.105 A 
HETATM   22  O   UNL     1      44.066 -18.122   5.424  1.00  0.00    -0.323 OA
HETATM   23  O   UNL     1      44.984 -20.243   4.732  1.00  0.00    -0.323 OA
HETATM   24  C   UNL     1      44.171 -20.082   2.441  1.00  0.00     0.040 A 
HETATM   25  C   UNL     1      44.826 -19.288   5.803  1.00  0.00     0.352 A 
HETATM   26  C   UNL     1      43.464 -19.285   1.535  1.00  0.00     0.012 A 
ENDBRANCH  17  18
ENDBRANCH  14  17
ENDBRANCH   2  13
BRANCH   2  27
HETATM   27  O   UNL     1      38.737 -15.327   2.246  1.00  0.00    -0.359 OA
HETATM   28  H   UNL     1      38.497 -15.012   3.138  1.00  0.00     0.213 HD
ENDBRANCH   2  27
BRANCH   1  29
HETATM   29  C   UNL     1      41.061 -13.962   3.826  1.00  0.00     0.043 A 
HETATM   30  C   UNL     1      42.391 -13.518   3.798  1.00  0.00     0.030 A 
HETATM   31  C   UNL     1      43.303 -13.887   4.795  1.00  0.00     0.009 A 
HETATM   32  C   UNL     1      42.910 -14.720   5.845  1.00  0.00    -0.058 A 
HETATM   33  C   UNL     1      41.596 -15.192   5.870  1.00  0.00     0.009 A 
HETATM   34  C   UNL     1      40.689 -14.821   4.873  1.00  0.00     0.030 A 
BRANCH  32  35
HETATM   35  C   UNL     1      43.872 -15.072   6.949  1.00  0.00     0.034 C 
HETATM   36  C   UNL     1      44.900 -13.971   7.164  1.00  0.00     0.010 C 
ENDBRANCH  32  35
ENDBRANCH   1  29
TORSDOF 6
ENDMDL
MODEL 8
REMARK VINA RESULT:      -8.4      2.633      6.732
REMARK  6 active torsions:
REMARK  status: ('A' for Active; 'I' for Inactive)
REMARK    1  A    between atoms: C_2  and  C_3 
REMARK    2  A    between atoms: C_6  and  N_7 
REMARK    3  A    between atoms: C_8  and  C_10 
REMARK    4  A    between atoms: C_8  and  O_9 
REMARK       I    between atoms: C_10  and  N_11 
REMARK    5  A    between atoms: N_11  and  C_12 
REMARK    6  A    between atoms: C_12  and  C_13 
ROOT
HETATM    1  N   UNL     1      42.455 -15.633   4.022  1.00  0.00    -0.254 N 
HETATM    2  C   UNL     1      41.054 -15.405   3.612  1.00  0.00     0.256 C 
HETATM    3  C   UNL     1      40.653 -13.940   3.573  1.00  0.00     0.034 A 
HETATM    4  C   UNL     1      41.428 -13.018   4.263  1.00  0.00     0.048 A 
HETATM    5  N   UNL     1      42.570 -13.456   4.909  1.00  0.00    -0.308 N 
HETATM    6  C   UNL     1      43.108 -14.704   4.819  1.00  0.00     0.330 C 
HETATM    7  O   UNL     1      44.165 -14.891   5.425  1.00  0.00    -0.246 OA
HETATM    8  C   UNL     1      39.490 -13.478   2.930  1.00  0.00     0.015 A 
HETATM    9  C   UNL     1      39.145 -12.124   2.958  1.00  0.00     0.001 A 
HETATM   10  C   UNL     1      39.941 -11.218   3.653  1.00  0.00     0.002 A 
HETATM   11  C   UNL     1      41.081 -11.667   4.318  1.00  0.00     0.030 A 
HETATM   12  H   UNL     1      43.115 -12.813   5.468  1.00  0.00     0.170 HD
ENDROOT
BRANCH   2  13
HETATM   13  C   UNL     1      40.776 -16.030   2.176  1.00  0.00     0.279 C 
HETATM   14  N   UNL     1      41.382 -15.410   1.103  1.00  0.00    -0.352 N 
HETATM   15  H   UNL     1      42.136 -14.760   1.297  1.00  0.00     0.162 HD
HETATM   16  O   UNL     1      39.975 -16.961   2.045  1.00  0.00    -0.268 OA
BRANCH  14  17
HETATM   17  C   UNL     1      41.300 -15.963  -0.228  1.00  0.00     0.161 C 
BRANCH  17  18
HETATM   18  C   UNL     1      40.847 -14.936  -1.234  1.00  0.00    -0.038 A 
HETATM   19  C   UNL     1      40.156 -13.785  -0.815  1.00  0.00     0.048 A 
HETATM   20  C   UNL     1      39.705 -12.907  -1.777  1.00  0.00     0.105 A 
HETATM   21  C   UNL     1      39.907 -13.136  -3.118  1.00  0.00     0.105 A 
HETATM   22  O   UNL     1      39.020 -11.756  -1.544  1.00  0.00    -0.323 OA
HETATM   23  O   UNL     1      39.373 -12.158  -3.896  1.00  0.00    -0.323 OA
HETATM   24  C   UNL     1      40.572 -14.254  -3.570  1.00  0.00     0.040 A 
HETATM   25  C   UNL     1      38.805 -11.291  -2.893  1.00  0.00     0.352 A 
HETATM   26  C   UNL     1      41.042 -15.163  -2.616  1.00  0.00     0.012 A 
ENDBRANCH  17  18
ENDBRANCH  14  17
ENDBRANCH   2  13
BRANCH   2  27
HETATM   27  O   UNL     1      40.205 -16.010   4.589  1.00  0.00    -0.359 OA
HETATM   28  H   UNL     1      40.333 -16.971   4.471  1.00  0.00     0.213 HD
ENDBRANCH   2  27
BRANCH   1  29
HETATM   29  C   UNL     1      43.082 -16.909   3.767  1.00  0.00     0.043 A 
HETATM   30  C   UNL     1      42.941 -18.003   4.632  1.00  0.00     0.030 A 
HETATM   31  C   UNL     1      43.455 -19.264   4.302  1.00  0.00     0.009 A 
HETATM   32  C   UNL     1      44.133 -19.461   3.097  1.00  0.00    -0.058 A 
HETATM   33  C   UNL     1      44.305 -18.374   2.238  1.00  0.00     0.009 A 
HETATM   34  C   UNL     1      43.790 -17.117   2.572  1.00  0.00     0.030 A 
BRANCH  32  35
HETATM   35  C   UNL     1      44.637 -20.828   2.713  1.00  0.00     0.034 C 
HETATM   36  C   UNL     1      43.671 -21.534   1.772  1.00  0.00     0.010 C 
ENDBRANCH  32  35
ENDBRANCH   1  29
TORSDOF 6
ENDMDL
MODEL 9
REMARK VINA RESULT:      -8.4      2.578      7.684
REMARK  6 active torsions:
REMARK  status: ('A' for Active; 'I' for Inactive)
REMARK    1  A    between atoms: C_2  and  C_3 
REMARK    2  A    between atoms: C_6  and  N_7 
REMARK    3  A    between atoms: C_8  and  C_10 
REMARK    4  A    between atoms: C_8  and  O_9 
REMARK       I    between atoms: C_10  and  N_11 
REMARK    5  A    between atoms: N_11  and  C_12 
REMARK    6  A    between atoms: C_12  and  C_13 
ROOT
HETATM    1  N   UNL     1      42.924 -16.308   3.622  1.00  0.00    -0.254 N 
HETATM    2  C   UNL     1      43.264 -17.108   2.428  1.00  0.00     0.256 C 
HETATM    3  C   UNL     1      43.654 -18.544   2.737  1.00  0.00     0.034 A 
HETATM    4  C   UNL     1      44.035 -18.867   4.031  1.00  0.00     0.048 A 
HETATM    5  N   UNL     1      43.988 -17.887   5.007  1.00  0.00    -0.308 N 
HETATM    6  C   UNL     1      43.457 -16.642   4.859  1.00  0.00     0.330 C 
HETATM    7  O   UNL     1      43.454 -15.924   5.862  1.00  0.00    -0.246 OA
HETATM    8  C   UNL     1      43.718 -19.551   1.756  1.00  0.00     0.015 A 
HETATM    9  C   UNL     1      44.122 -20.847   2.086  1.00  0.00     0.001 A 
HETATM   10  C   UNL     1      44.495 -21.148   3.393  1.00  0.00     0.002 A 
HETATM   11  C   UNL     1      44.463 -20.153   4.368  1.00  0.00     0.030 A 
HETATM   12  H   UNL     1      44.319 -18.085   5.942  1.00  0.00     0.170 HD
ENDROOT
BRANCH   2  13
HETATM   13  C   UNL     1      42.050 -17.137   1.401  1.00  0.00     0.279 C 
HETATM   14  N   UNL     1      42.172 -16.349   0.276  1.00  0.00    -0.352 N 
HETATM   15  H   UNL     1      43.092 -15.989   0.048  1.00  0.00     0.162 HD
HETATM   16  O   UNL     1      41.021 -17.766   1.671  1.00  0.00    -0.268 OA
BRANCH  14  17
HETATM   17  C   UNL     1      41.188 -16.393  -0.780  1.00  0.00     0.161 C 
BRANCH  17  18
HETATM   18  C   UNL     1      41.034 -15.055  -1.457  1.00  0.00    -0.038 A 
HETATM   19  C   UNL     1      40.859 -13.887  -0.694  1.00  0.00     0.048 A 
HETATM   20  C   UNL     1      40.657 -12.697  -1.359  1.00  0.00     0.105 A 
HETATM   21  C   UNL     1      40.614 -12.632  -2.732  1.00  0.00     0.105 A 
HETATM   22  O   UNL     1      40.467 -11.483  -0.776  1.00  0.00    -0.323 OA
HETATM   23  O   UNL     1      40.392 -11.370  -3.185  1.00  0.00    -0.323 OA
HETATM   24  C   UNL     1      40.773 -13.754  -3.515  1.00  0.00     0.040 A 
HETATM   25  C   UNL     1      40.291 -10.648  -1.939  1.00  0.00     0.352 A 
HETATM   26  C   UNL     1      40.981 -14.976  -2.868  1.00  0.00     0.012 A 
ENDBRANCH  17  18
ENDBRANCH  14  17
ENDBRANCH   2  13
BRANCH   2  27
HETATM   27  O   UNL     1      44.415 -16.520   1.817  1.00  0.00    -0.359 OA
HETATM   28  H   UNL     1      45.159 -16.761   2.402  1.00  0.00     0.213 HD
ENDBRANCH   2  27
BRANCH   1  29
HETATM   29  C   UNL     1      42.203 -15.065   3.476  1.00  0.00     0.043 A 
HETATM   30  C   UNL     1      42.810 -13.895   2.998  1.00  0.00     0.030 A 
HETATM   31  C   UNL     1      42.062 -12.737   2.749  1.00  0.00     0.009 A 
HETATM   32  C   UNL     1      40.684 -12.717   2.980  1.00  0.00    -0.058 A 
HETATM   33  C   UNL     1      40.072 -13.866   3.481  1.00  0.00     0.009 A 
HETATM   34  C   UNL     1      40.823 -15.020   3.729  1.00  0.00     0.030 A 
BRANCH  32  35
HETATM   35  C   UNL     1      39.869 -11.492   2.658  1.00  0.00     0.034 C 
HETATM   36  C   UNL     1      38.446 -11.858   2.261  1.00  0.00     0.010 C 
ENDBRANCH  32  35
ENDBRANCH   1  29
TORSDOF 6
ENDMDL
MODEL 10
REMARK VINA RESULT:      -8.1      2.875      7.021
REMARK  6 active torsions:
REMARK  status: ('A' for Active; 'I' for Inactive)
REMARK    1  A    between atoms: C_2  and  C_3 
REMARK    2  A    between atoms: C_6  and  N_7 
REMARK    3  A    between atoms: C_8  and  C_10 
REMARK    4  A    between atoms: C_8  and  O_9 
REMARK       I    between atoms: C_10  and  N_11 
REMARK    5  A    between atoms: N_11  and  C_12 
REMARK    6  A    between atoms: C_12  and  C_13 
ROOT
HETATM    1  N   UNL     1      42.275 -15.287   4.671  1.00  0.00    -0.254 N 
HETATM    2  C   UNL     1      40.895 -14.823   4.422  1.00  0.00     0.256 C 
HETATM    3  C   UNL     1      40.642 -13.385   4.844  1.00  0.00     0.034 A 
HETATM    4  C   UNL     1      41.521 -12.788   5.736  1.00  0.00     0.048 A 
HETATM    5  N   UNL     1      42.629 -13.499   6.161  1.00  0.00    -0.308 N 
HETATM    6  C   UNL     1      43.036 -14.704   5.674  1.00  0.00     0.330 C 
HETATM    7  O   UNL     1      44.083 -15.159   6.140  1.00  0.00    -0.246 OA
HETATM    8  C   UNL     1      39.516 -12.649   4.430  1.00  0.00     0.015 A 
HETATM    9  C   UNL     1      39.310 -11.342   4.879  1.00  0.00     0.001 A 
HETATM   10  C   UNL     1      40.209 -10.763   5.771  1.00  0.00     0.002 A 
HETATM   11  C   UNL     1      41.313 -11.491   6.210  1.00  0.00     0.030 A 
HETATM   12  H   UNL     1      43.248 -13.107   6.857  1.00  0.00     0.170 HD
ENDROOT
BRANCH   2  13
HETATM   13  C   UNL     1      40.522 -14.957   2.882  1.00  0.00     0.279 C 
HETATM   14  N   UNL     1      41.172 -14.107   2.011  1.00  0.00    -0.352 N 
HETATM   15  H   UNL     1      41.997 -13.623   2.350  1.00  0.00     0.162 HD
HETATM   16  O   UNL     1      39.621 -15.721   2.522  1.00  0.00    -0.268 OA
BRANCH  14  17
HETATM   17  C   UNL     1      41.004 -14.224   0.582  1.00  0.00     0.161 C 
BRANCH  17  18
HETATM   18  C   UNL     1      41.723 -13.126  -0.159  1.00  0.00    -0.038 A 
HETATM   19  C   UNL     1      41.927 -11.873   0.447  1.00  0.00     0.048 A 
HETATM   20  C   UNL     1      42.532 -10.881  -0.293  1.00  0.00     0.105 A 
HETATM   21  C   UNL     1      42.926 -11.086  -1.595  1.00  0.00     0.105 A 
HETATM   22  O   UNL     1      42.798  -9.619   0.137  1.00  0.00    -0.323 OA
HETATM   23  O   UNL     1      43.488  -9.978  -2.146  1.00  0.00    -0.323 OA
HETATM   24  C   UNL     1      42.738 -12.295  -2.226  1.00  0.00     0.040 A 
HETATM   25  C   UNL     1      43.395  -9.049  -1.046  1.00  0.00     0.352 A 
HETATM   26  C   UNL     1      42.127 -13.322  -1.500  1.00  0.00     0.012 A 
ENDBRANCH  17  18
ENDBRANCH  14  17
ENDBRANCH   2  13
BRANCH   2  27
HETATM   27  O   UNL     1      40.012 -15.617   5.217  1.00  0.00    -0.359 OA
HETATM   28  H   UNL     1      39.233 -15.050   5.368  1.00  0.00     0.213 HD
ENDBRANCH   2  27
BRANCH   1  29
HETATM   29  C   UNL     1      42.765 -16.477   4.014  1.00  0.00     0.043 A 
HETATM   30  C   UNL     1      42.428 -17.768   4.445  1.00  0.00     0.030 A 
HETATM   31  C   UNL     1      42.814 -18.901   3.719  1.00  0.00     0.009 A 
HETATM   32  C   UNL     1      43.557 -18.774   2.542  1.00  0.00    -0.058 A 
HETATM   33  C   UNL     1      43.922 -17.496   2.116  1.00  0.00     0.009 A 
HETATM   34  C   UNL     1      43.535 -16.366   2.845  1.00  0.00     0.030 A 
BRANCH  32  35
HETATM   35  C   UNL     1      43.924 -19.987   1.729  1.00  0.00     0.034 C 
HETATM   36  C   UNL     1      44.296 -21.164   2.620  1.00  0.00     0.010 C 
ENDBRANCH  32  35
ENDBRANCH   1  29
TORSDOF 6
ENDMDL
