MODEL 1
REMARK VINA RESULT:      -8.9      0.000      0.000
REMARK  6 active torsions:
REMARK  status: ('A' for Active; 'I' for Inactive)
REMARK    1  A    between atoms: C_2  and  C_3 
REMARK    2  A    between atoms: C_2  and  C_9 
REMARK    3  A    between atoms: C_9  and  N_10 
REMARK       I    between atoms: N_10  and  C_11 
REMARK       I    between atoms: C_11  and  N_12 
REMARK    4  A    between atoms: N_12  and  C_13 
REMARK    5  A    between atoms: C_15  and  N_16 
REMARK       I    between atoms: N_16  and  C_17 
REMARK    6  A    between atoms: C_17  and  C_18 
ROOT
HETATM    1  N   UNL     1      43.494 -15.565   5.785  1.00  0.00    -0.342 N 
HETATM    2  C   UNL     1      44.196 -14.417   6.082  1.00  0.00     0.320 C 
HETATM    3  N   UNL     1      44.293 -14.255   7.447  1.00  0.00    -0.309 N 
HETATM    4  O   UNL     1      44.592 -13.640   5.224  1.00  0.00    -0.247 OA
HETATM    5  H   UNL     1      43.491 -16.309   6.467  1.00  0.00     0.164 HD
HETATM    6  H   UNL     1      43.614 -14.779   7.979  1.00  0.00     0.170 HD
ENDROOT
BRANCH   3   7
HETATM    7  C   UNL     1      44.909 -13.180   8.118  1.00  0.00     0.038 A 
HETATM    8  C   UNL     1      44.214 -12.620   9.201  1.00  0.00     0.059 A 
HETATM    9  C   UNL     1      44.723 -11.517   9.890  1.00  0.00     0.037 A 
HETATM   10  C   UNL     1      45.974 -11.010   9.519  1.00  0.00     0.029 A 
HETATM   11  C   UNL     1      46.686 -11.581   8.462  1.00  0.00     0.004 A 
HETATM   12  C   UNL     1      46.149 -12.659   7.757  1.00  0.00     0.029 A 
BRANCH   9  13
HETATM   13  N   UNL     1      44.036 -10.846  10.927  1.00  0.00    -0.323 N 
HETATM   14  C   UNL     1      43.513 -11.396  12.086  1.00  0.00     0.258 C 
HETATM   15  O   UNL     1      43.649 -12.562  12.442  1.00  0.00    -0.267 OA
HETATM   16  H   UNL     1      43.875  -9.863  10.769  1.00  0.00     0.169 HD
BRANCH  14  17
HETATM   17  C   UNL     1      42.733 -10.475  12.910  1.00  0.00     0.056 A 
HETATM   18  C   UNL     1      41.364 -10.404  13.084  1.00  0.00     0.158 A 
HETATM   19  O   UNL     1      41.031  -9.411  13.950  1.00  0.00    -0.334 OA
HETATM   20  C   UNL     1      42.188  -8.829  14.350  1.00  0.00     0.142 A 
HETATM   21  C   UNL     1      43.259  -9.438  13.743  1.00  0.00     0.043 A 
ENDBRANCH  14  17
ENDBRANCH   9  13
ENDBRANCH   3   7
BRANCH   1  22
HETATM   22  C   UNL     1      42.981 -15.840   4.453  1.00  0.00     0.138 C 
BRANCH  22  23
HETATM   23  C   UNL     1      42.127 -17.146   4.386  1.00  0.00    -0.004 C 
HETATM   24  C   UNL     1      40.973 -17.002   3.365  1.00  0.00     0.021 C 
HETATM   25  C   UNL     1      41.473 -17.376   5.772  1.00  0.00     0.021 C 
BRANCH  23  26
HETATM   26  C   UNL     1      43.033 -18.315   3.950  1.00  0.00    -0.046 A 
HETATM   27  C   UNL     1      43.011 -18.768   2.620  1.00  0.00     0.027 A 
HETATM   28  C   UNL     1      43.818 -19.832   2.243  1.00  0.00     0.116 A 
HETATM   29  N   UNL     1      44.648 -20.479   3.083  1.00  0.00    -0.273 NA
HETATM   30  C   UNL     1      44.666 -20.040   4.357  1.00  0.00     0.116 A 
HETATM   31  C   UNL     1      43.896 -18.984   4.828  1.00  0.00     0.027 A 
ENDBRANCH  23  26
ENDBRANCH  22  23
ENDBRANCH   1  22
TORSDOF 6
ENDMDL
MODEL 2
REMARK VINA RESULT:      -8.8      6.813     10.382
REMARK  6 active torsions:
REMARK  status: ('A' for Active; 'I' for Inactive)
REMARK    1  A    between atoms: C_2  and  C_3 
REMARK    2  A    between atoms: C_2  and  C_9 
REMARK    3  A    between atoms: C_9  and  N_10 
REMARK       I    between atoms: N_10  and  C_11 
REMARK       I    between atoms: C_11  and  N_12 
REMARK    4  A    between atoms: N_12  and  C_13 
REMARK    5  A    between atoms: C_15  and  N_16 
REMARK       I    between atoms: N_16  and  C_17 
REMARK    6  A    between atoms: C_17  and  C_18 
ROOT
HETATM    1  N   UNL     1      42.423 -17.247   4.039  1.00  0.00    -0.342 N 
HETATM    2  C   UNL     1      42.059 -16.046   3.470  1.00  0.00     0.320 C 
HETATM    3  N   UNL     1      40.687 -15.955   3.382  1.00  0.00    -0.309 N 
HETATM    4  O   UNL     1      42.873 -15.237   3.046  1.00  0.00    -0.247 OA
HETATM    5  H   UNL     1      41.764 -17.700   4.654  1.00  0.00     0.164 HD
HETATM    6  H   UNL     1      40.206 -16.841   3.440  1.00  0.00     0.170 HD
ENDROOT
BRANCH   3   7
HETATM    7  C   UNL     1      39.955 -14.888   2.824  1.00  0.00     0.038 A 
HETATM    8  C   UNL     1      39.343 -15.113   1.582  1.00  0.00     0.059 A 
HETATM    9  C   UNL     1      38.643 -14.096   0.930  1.00  0.00     0.037 A 
HETATM   10  C   UNL     1      38.511 -12.855   1.565  1.00  0.00     0.029 A 
HETATM   11  C   UNL     1      39.091 -12.633   2.816  1.00  0.00     0.004 A 
HETATM   12  C   UNL     1      39.820 -13.646   3.440  1.00  0.00     0.029 A 
BRANCH   9  13
HETATM   13  N   UNL     1      38.083 -14.223  -0.362  1.00  0.00    -0.323 N 
HETATM   14  C   UNL     1      38.723 -14.052  -1.579  1.00  0.00     0.258 C 
HETATM   15  O   UNL     1      39.923 -13.850  -1.727  1.00  0.00    -0.267 OA
HETATM   16  H   UNL     1      37.093 -14.414  -0.383  1.00  0.00     0.169 HD
BRANCH  14  17
HETATM   17  C   UNL     1      37.851 -14.116  -2.750  1.00  0.00     0.056 A 
HETATM   18  C   UNL     1      37.476 -15.213  -3.501  1.00  0.00     0.158 A 
HETATM   19  O   UNL     1      36.634 -14.855  -4.506  1.00  0.00    -0.334 OA
HETATM   20  C   UNL     1      36.453 -13.515  -4.413  1.00  0.00     0.142 A 
HETATM   21  C   UNL     1      37.175 -13.011  -3.358  1.00  0.00     0.043 A 
ENDBRANCH  14  17
ENDBRANCH   9  13
ENDBRANCH   3   7
BRANCH   1  22
HETATM   22  C   UNL     1      43.788 -17.748   3.990  1.00  0.00     0.138 C 
BRANCH  22  23
HETATM   23  C   UNL     1      44.094 -18.790   5.112  1.00  0.00    -0.004 C 
HETATM   24  C   UNL     1      42.916 -18.892   6.111  1.00  0.00     0.021 C 
HETATM   25  C   UNL     1      45.322 -18.297   5.918  1.00  0.00     0.021 C 
BRANCH  23  26
HETATM   26  C   UNL     1      44.318 -20.171   4.465  1.00  0.00    -0.046 A 
HETATM   27  C   UNL     1      44.209 -20.325   3.072  1.00  0.00     0.027 A 
HETATM   28  C   UNL     1      44.397 -21.576   2.502  1.00  0.00     0.116 A 
HETATM   29  N   UNL     1      44.687 -22.686   3.207  1.00  0.00    -0.273 NA
HETATM   30  C   UNL     1      44.791 -22.533   4.542  1.00  0.00     0.116 A 
HETATM   31  C   UNL     1      44.622 -21.323   5.202  1.00  0.00     0.027 A 
ENDBRANCH  23  26
ENDBRANCH  22  23
ENDBRANCH   1  22
TORSDOF 6
ENDMDL
MODEL 3
REMARK VINA RESULT:      -8.7      2.550      3.477
REMARK  6 active torsions:
REMARK  status: ('A' for Active; 'I' for Inactive)
REMARK    1  A    between atoms: C_2  and  C_3 
REMARK    2  A    between atoms: C_2  and  C_9 
REMARK    3  A    between atoms: C_9  and  N_10 
REMARK       I    between atoms: N_10  and  C_11 
REMARK       I    between atoms: C_11  and  N_12 
REMARK    4  A    between atoms: N_12  and  C_13 
REMARK    5  A    between atoms: C_15  and  N_16 
REMARK       I    between atoms: N_16  and  C_17 
REMARK    6  A    between atoms: C_17  and  C_18 
ROOT
HETATM    1  N   UNL     1      43.155 -15.989   3.837  1.00  0.00    -0.342 N 
HETATM    2  C   UNL     1      42.251 -15.089   4.359  1.00  0.00     0.320 C 
HETATM    3  N   UNL     1      42.838 -13.851   4.504  1.00  0.00    -0.309 N 
HETATM    4  O   UNL     1      41.121 -15.407   4.702  1.00  0.00    -0.247 OA
HETATM    5  H   UNL     1      43.914 -15.629   3.277  1.00  0.00     0.164 HD
HETATM    6  H   UNL     1      43.848 -13.867   4.513  1.00  0.00     0.170 HD
ENDROOT
BRANCH   3   7
HETATM    7  C   UNL     1      42.232 -12.697   5.037  1.00  0.00     0.038 A 
HETATM    8  C   UNL     1      42.386 -12.471   6.414  1.00  0.00     0.059 A 
HETATM    9  C   UNL     1      41.775 -11.382   7.038  1.00  0.00     0.037 A 
HETATM   10  C   UNL     1      41.046 -10.480   6.254  1.00  0.00     0.029 A 
HETATM   11  C   UNL     1      40.912 -10.681   4.879  1.00  0.00     0.004 A 
HETATM   12  C   UNL     1      41.497 -11.793   4.273  1.00  0.00     0.029 A 
BRANCH   9  13
HETATM   13  N   UNL     1      41.811 -11.146   8.431  1.00  0.00    -0.323 N 
HETATM   14  C   UNL     1      42.927 -10.911   9.218  1.00  0.00     0.258 C 
HETATM   15  O   UNL     1      44.073 -10.778   8.802  1.00  0.00    -0.267 OA
HETATM   16  H   UNL     1      40.920 -11.204   8.899  1.00  0.00     0.169 HD
BRANCH  14  17
HETATM   17  C   UNL     1      42.665 -10.836  10.653  1.00  0.00     0.056 A 
HETATM   18  C   UNL     1      41.477 -11.017  11.335  1.00  0.00     0.158 A 
HETATM   19  O   UNL     1      41.655 -10.878  12.675  1.00  0.00    -0.334 OA
HETATM   20  C   UNL     1      42.967 -10.607  12.875  1.00  0.00     0.142 A 
HETATM   21  C   UNL     1      43.632 -10.568  11.673  1.00  0.00     0.043 A 
ENDBRANCH  14  17
ENDBRANCH   9  13
ENDBRANCH   3   7
BRANCH   1  22
HETATM   22  C   UNL     1      42.919 -17.424   3.850  1.00  0.00     0.138 C 
BRANCH  22  23
HETATM   23  C   UNL     1      43.163 -18.094   2.460  1.00  0.00    -0.004 C 
HETATM   24  C   UNL     1      44.231 -17.319   1.651  1.00  0.00     0.021 C 
HETATM   25  C   UNL     1      41.847 -18.024   1.644  1.00  0.00     0.021 C 
BRANCH  23  26
HETATM   26  C   UNL     1      43.655 -19.538   2.679  1.00  0.00    -0.046 A 
HETATM   27  C   UNL     1      44.338 -19.880   3.859  1.00  0.00     0.027 A 
HETATM   28  C   UNL     1      44.792 -21.179   4.038  1.00  0.00     0.116 A 
HETATM   29  N   UNL     1      44.618 -22.166   3.139  1.00  0.00    -0.273 NA
HETATM   30  C   UNL     1      43.962 -21.833   2.010  1.00  0.00     0.116 A 
HETATM   31  C   UNL     1      43.470 -20.562   1.741  1.00  0.00     0.027 A 
ENDBRANCH  23  26
ENDBRANCH  22  23
ENDBRANCH   1  22
TORSDOF 6
ENDMDL
MODEL 4
REMARK VINA RESULT:      -8.5      7.092     10.623
REMARK  6 active torsions:
REMARK  status: ('A' for Active; 'I' for Inactive)
REMARK    1  A    between atoms: C_2  and  C_3 
REMARK    2  A    between atoms: C_2  and  C_9 
REMARK    3  A    between atoms: C_9  and  N_10 
REMARK       I    between atoms: N_10  and  C_11 
REMARK       I    between atoms: C_11  and  N_12 
REMARK    4  A    between atoms: N_12  and  C_13 
REMARK    5  A    between atoms: C_15  and  N_16 
REMARK       I    between atoms: N_16  and  C_17 
REMARK    6  A    between atoms: C_17  and  C_18 
ROOT
HETATM    1  N   UNL     1      41.938 -16.822   3.935  1.00  0.00    -0.342 N 
HETATM    2  C   UNL     1      41.594 -15.688   3.231  1.00  0.00     0.320 C 
HETATM    3  N   UNL     1      40.234 -15.482   3.291  1.00  0.00    -0.309 N 
HETATM    4  O   UNL     1      42.405 -15.031   2.592  1.00  0.00    -0.247 OA
HETATM    5  H   UNL     1      41.332 -17.116   4.686  1.00  0.00     0.164 HD
HETATM    6  H   UNL     1      39.698 -16.300   3.544  1.00  0.00     0.170 HD
ENDROOT
BRANCH   3   7
HETATM    7  C   UNL     1      39.517 -14.445   2.662  1.00  0.00     0.038 A 
HETATM    8  C   UNL     1      38.943 -14.729   1.414  1.00  0.00     0.059 A 
HETATM    9  C   UNL     1      38.262 -13.745   0.694  1.00  0.00     0.037 A 
HETATM   10  C   UNL     1      38.110 -12.476   1.266  1.00  0.00     0.029 A 
HETATM   11  C   UNL     1      38.653 -12.194   2.522  1.00  0.00     0.004 A 
HETATM   12  C   UNL     1      39.363 -13.175   3.214  1.00  0.00     0.029 A 
BRANCH   9  13
HETATM   13  N   UNL     1      37.740 -13.934  -0.606  1.00  0.00    -0.323 N 
HETATM   14  C   UNL     1      38.437 -13.921  -1.804  1.00  0.00     0.258 C 
HETATM   15  O   UNL     1      39.655 -13.832  -1.915  1.00  0.00    -0.267 OA
HETATM   16  H   UNL     1      36.739 -14.044  -0.655  1.00  0.00     0.169 HD
BRANCH  14  17
HETATM   17  C   UNL     1      37.606 -14.011  -3.002  1.00  0.00     0.056 A 
HETATM   18  C   UNL     1      37.304 -15.116  -3.775  1.00  0.00     0.158 A 
HETATM   19  O   UNL     1      36.479 -14.785  -4.803  1.00  0.00    -0.334 OA
HETATM   20  C   UNL     1      36.236 -13.455  -4.704  1.00  0.00     0.142 A 
HETATM   21  C   UNL     1      36.900 -12.931  -3.622  1.00  0.00     0.043 A 
ENDBRANCH  14  17
ENDBRANCH   9  13
ENDBRANCH   3   7
BRANCH   1  22
HETATM   22  C   UNL     1      43.243 -17.450   3.806  1.00  0.00     0.138 C 
BRANCH  22  23
HETATM   23  C   UNL     1      43.367 -18.342   2.530  1.00  0.00    -0.004 C 
HETATM   24  C   UNL     1      44.363 -17.725   1.518  1.00  0.00     0.021 C 
HETATM   25  C   UNL     1      41.987 -18.388   1.827  1.00  0.00     0.021 C 
BRANCH  23  26
HETATM   26  C   UNL     1      43.876 -19.738   2.941  1.00  0.00    -0.046 A 
HETATM   27  C   UNL     1      44.426 -19.941   4.219  1.00  0.00     0.027 A 
HETATM   28  C   UNL     1      44.897 -21.198   4.572  1.00  0.00     0.116 A 
HETATM   29  N   UNL     1      44.861 -22.269   3.756  1.00  0.00    -0.273 NA
HETATM   30  C   UNL     1      44.332 -22.069   2.534  1.00  0.00     0.116 A 
HETATM   31  C   UNL     1      43.835 -20.850   2.091  1.00  0.00     0.027 A 
ENDBRANCH  23  26
ENDBRANCH  22  23
ENDBRANCH   1  22
TORSDOF 6
ENDMDL
MODEL 5
REMARK VINA RESULT:      -8.3      3.352     10.575
REMARK  6 active torsions:
REMARK  status: ('A' for Active; 'I' for Inactive)
REMARK    1  A    between atoms: C_2  and  C_3 
REMARK    2  A    between atoms: C_2  and  C_9 
REMARK    3  A    between atoms: C_9  and  N_10 
REMARK       I    between atoms: N_10  and  C_11 
REMARK       I    between atoms: C_11  and  N_12 
REMARK    4  A    between atoms: N_12  and  C_13 
REMARK    5  A    between atoms: C_15  and  N_16 
REMARK       I    between atoms: N_16  and  C_17 
REMARK    6  A    between atoms: C_17  and  C_18 
ROOT
HETATM    1  N   UNL     1      41.067 -12.167   6.973  1.00  0.00    -0.342 N 
HETATM    2  C   UNL     1      41.181 -12.686   5.701  1.00  0.00     0.320 C 
HETATM    3  N   UNL     1      40.598 -13.932   5.639  1.00  0.00    -0.309 N 
HETATM    4  O   UNL     1      41.790 -12.119   4.805  1.00  0.00    -0.247 OA
HETATM    5  H   UNL     1      40.304 -12.488   7.550  1.00  0.00     0.164 HD
HETATM    6  H   UNL     1      40.475 -14.381   6.536  1.00  0.00     0.170 HD
ENDROOT
BRANCH   3   7
HETATM    7  C   UNL     1      40.552 -14.778   4.514  1.00  0.00     0.038 A 
HETATM    8  C   UNL     1      41.264 -15.985   4.591  1.00  0.00     0.059 A 
HETATM    9  C   UNL     1      41.319 -16.859   3.503  1.00  0.00     0.037 A 
HETATM   10  C   UNL     1      40.602 -16.538   2.345  1.00  0.00     0.029 A 
HETATM   11  C   UNL     1      39.866 -15.353   2.271  1.00  0.00     0.004 A 
HETATM   12  C   UNL     1      39.849 -14.470   3.351  1.00  0.00     0.029 A 
BRANCH   9  13
HETATM   13  N   UNL     1      42.090 -18.043   3.478  1.00  0.00    -0.323 N 
HETATM   14  C   UNL     1      43.335 -18.226   2.899  1.00  0.00     0.258 C 
HETATM   15  O   UNL     1      44.016 -17.344   2.387  1.00  0.00    -0.267 OA
HETATM   16  H   UNL     1      41.650 -18.850   3.892  1.00  0.00     0.169 HD
BRANCH  14  17
HETATM   17  C   UNL     1      43.827 -19.602   2.915  1.00  0.00     0.056 A 
HETATM   18  C   UNL     1      44.558 -20.257   3.888  1.00  0.00     0.158 A 
HETATM   19  O   UNL     1      44.807 -21.544   3.530  1.00  0.00    -0.334 OA
HETATM   20  C   UNL     1      44.236 -21.737   2.317  1.00  0.00     0.142 A 
HETATM   21  C   UNL     1      43.624 -20.582   1.892  1.00  0.00     0.043 A 
ENDBRANCH  14  17
ENDBRANCH   9  13
ENDBRANCH   3   7
BRANCH   1  22
HETATM   22  C   UNL     1      41.836 -11.014   7.414  1.00  0.00     0.138 C 
BRANCH  22  23
HETATM   23  C   UNL     1      41.160 -10.246   8.594  1.00  0.00    -0.004 C 
HETATM   24  C   UNL     1      39.639 -10.530   8.640  1.00  0.00     0.021 C 
HETATM   25  C   UNL     1      41.324  -8.725   8.348  1.00  0.00     0.021 C 
BRANCH  23  26
HETATM   26  C   UNL     1      41.792 -10.709   9.921  1.00  0.00    -0.046 A 
HETATM   27  C   UNL     1      41.000 -10.836  11.076  1.00  0.00     0.027 A 
HETATM   28  C   UNL     1      41.584 -11.238  12.269  1.00  0.00     0.116 A 
HETATM   29  N   UNL     1      42.892 -11.526  12.404  1.00  0.00    -0.273 NA
HETATM   30  C   UNL     1      43.647 -11.404  11.295  1.00  0.00     0.116 A 
HETATM   31  C   UNL     1      43.154 -11.010  10.057  1.00  0.00     0.027 A 
ENDBRANCH  23  26
ENDBRANCH  22  23
ENDBRANCH   1  22
TORSDOF 6
ENDMDL
MODEL 6
REMARK VINA RESULT:      -8.2      3.452      4.306
REMARK  6 active torsions:
REMARK  status: ('A' for Active; 'I' for Inactive)
REMARK    1  A    between atoms: C_2  and  C_3 
REMARK    2  A    between atoms: C_2  and  C_9 
REMARK    3  A    between atoms: C_9  and  N_10 
REMARK       I    between atoms: N_10  and  C_11 
REMARK       I    between atoms: C_11  and  N_12 
REMARK    4  A    between atoms: N_12  and  C_13 
REMARK    5  A    between atoms: C_15  and  N_16 
REMARK       I    between atoms: N_16  and  C_17 
REMARK    6  A    between atoms: C_17  and  C_18 
ROOT
HETATM    1  N   UNL     1      40.925 -16.971   4.527  1.00  0.00    -0.342 N 
HETATM    2  C   UNL     1      41.067 -15.689   5.014  1.00  0.00     0.320 C 
HETATM    3  N   UNL     1      39.989 -14.916   4.645  1.00  0.00    -0.309 N 
HETATM    4  O   UNL     1      42.063 -15.314   5.616  1.00  0.00    -0.247 OA
HETATM    5  H   UNL     1      39.991 -17.311   4.351  1.00  0.00     0.164 HD
HETATM    6  H   UNL     1      39.460 -15.280   3.865  1.00  0.00     0.170 HD
ENDROOT
BRANCH   3   7
HETATM    7  C   UNL     1      39.805 -13.548   4.931  1.00  0.00     0.038 A 
HETATM    8  C   UNL     1      39.845 -13.166   6.280  1.00  0.00     0.059 A 
HETATM    9  C   UNL     1      39.619 -11.842   6.660  1.00  0.00     0.037 A 
HETATM   10  C   UNL     1      39.407 -10.882   5.663  1.00  0.00     0.029 A 
HETATM   11  C   UNL     1      39.396 -11.249   4.316  1.00  0.00     0.004 A 
HETATM   12  C   UNL     1      39.586 -12.582   3.951  1.00  0.00     0.029 A 
BRANCH   9  13
HETATM   13  N   UNL     1      39.552 -11.404   8.003  1.00  0.00    -0.323 N 
HETATM   14  C   UNL     1      40.580 -10.886   8.773  1.00  0.00     0.258 C 
HETATM   15  O   UNL     1      41.711 -10.637   8.371  1.00  0.00    -0.267 OA
HETATM   16  H   UNL     1      38.658 -11.533   8.451  1.00  0.00     0.169 HD
BRANCH  14  17
HETATM   17  C   UNL     1      40.242 -10.647  10.174  1.00  0.00     0.056 A 
HETATM   18  C   UNL     1      39.224  -9.878  10.708  1.00  0.00     0.158 A 
HETATM   19  O   UNL     1      39.236  -9.926  12.066  1.00  0.00    -0.334 OA
HETATM   20  C   UNL     1      40.264 -10.731  12.427  1.00  0.00     0.142 A 
HETATM   21  C   UNL     1      40.914 -11.198  11.310  1.00  0.00     0.043 A 
ENDBRANCH  14  17
ENDBRANCH   9  13
ENDBRANCH   3   7
BRANCH   1  22
HETATM   22  C   UNL     1      42.027 -17.919   4.502  1.00  0.00     0.138 C 
BRANCH  22  23
HETATM   23  C   UNL     1      42.708 -18.024   3.101  1.00  0.00    -0.004 C 
HETATM   24  C   UNL     1      43.765 -16.909   2.913  1.00  0.00     0.021 C 
HETATM   25  C   UNL     1      41.628 -17.804   2.012  1.00  0.00     0.021 C 
BRANCH  23  26
HETATM   26  C   UNL     1      43.406 -19.394   2.984  1.00  0.00    -0.046 A 
HETATM   27  C   UNL     1      43.140 -20.231   1.886  1.00  0.00     0.027 A 
HETATM   28  C   UNL     1      43.761 -21.469   1.800  1.00  0.00     0.116 A 
HETATM   29  N   UNL     1      44.627 -21.940   2.718  1.00  0.00    -0.273 NA
HETATM   30  C   UNL     1      44.878 -21.134   3.768  1.00  0.00     0.116 A 
HETATM   31  C   UNL     1      44.307 -19.879   3.940  1.00  0.00     0.027 A 
ENDBRANCH  23  26
ENDBRANCH  22  23
ENDBRANCH   1  22
TORSDOF 6
ENDMDL
MODEL 7
REMARK VINA RESULT:      -8.1      7.531     11.825
REMARK  6 active torsions:
REMARK  status: ('A' for Active; 'I' for Inactive)
REMARK    1  A    between atoms: C_2  and  C_3 
REMARK    2  A    between atoms: C_2  and  C_9 
REMARK    3  A    between atoms: C_9  and  N_10 
REMARK       I    between atoms: N_10  and  C_11 
REMARK       I    between atoms: C_11  and  N_12 
REMARK    4  A    between atoms: N_12  and  C_13 
REMARK    5  A    between atoms: C_15  and  N_16 
REMARK       I    between atoms: N_16  and  C_17 
REMARK    6  A    between atoms: C_17  and  C_18 
ROOT
HETATM    1  N   UNL     1      41.673 -15.767   1.768  1.00  0.00    -0.342 N 
HETATM    2  C   UNL     1      41.584 -15.561   0.408  1.00  0.00     0.320 C 
HETATM    3  N   UNL     1      41.593 -14.212   0.128  1.00  0.00    -0.309 N 
HETATM    4  O   UNL     1      41.440 -16.473  -0.394  1.00  0.00    -0.247 OA
HETATM    5  H   UNL     1      42.115 -15.053   2.328  1.00  0.00     0.164 HD
HETATM    6  H   UNL     1      41.354 -13.621   0.911  1.00  0.00     0.170 HD
ENDROOT
BRANCH   3   7
HETATM    7  C   UNL     1      41.483 -13.624  -1.147  1.00  0.00     0.038 A 
HETATM    8  C   UNL     1      40.232 -13.697  -1.780  1.00  0.00     0.059 A 
HETATM    9  C   UNL     1      40.046 -13.189  -3.067  1.00  0.00     0.037 A 
HETATM   10  C   UNL     1      41.118 -12.550  -3.700  1.00  0.00     0.029 A 
HETATM   11  C   UNL     1      42.358 -12.446  -3.066  1.00  0.00     0.004 A 
HETATM   12  C   UNL     1      42.542 -12.990  -1.794  1.00  0.00     0.029 A 
BRANCH   9  13
HETATM   13  N   UNL     1      38.843 -13.310  -3.799  1.00  0.00    -0.323 N 
HETATM   14  C   UNL     1      37.612 -12.749  -3.497  1.00  0.00     0.258 C 
HETATM   15  O   UNL     1      37.395 -11.968  -2.577  1.00  0.00    -0.267 OA
HETATM   16  H   UNL     1      38.890 -13.914  -4.604  1.00  0.00     0.169 HD
BRANCH  14  17
HETATM   17  C   UNL     1      36.515 -13.163  -4.369  1.00  0.00     0.056 A 
HETATM   18  C   UNL     1      36.057 -14.436  -4.651  1.00  0.00     0.158 A 
HETATM   19  O   UNL     1      34.998 -14.398  -5.502  1.00  0.00    -0.334 OA
HETATM   20  C   UNL     1      34.758 -13.094  -5.779  1.00  0.00     0.142 A 
HETATM   21  C   UNL     1      35.656 -12.295  -5.114  1.00  0.00     0.043 A 
ENDBRANCH  14  17
ENDBRANCH   9  13
ENDBRANCH   3   7
BRANCH   1  22
HETATM   22  C   UNL     1      41.391 -17.056   2.379  1.00  0.00     0.138 C 
BRANCH  22  23
HETATM   23  C   UNL     1      42.285 -17.348   3.626  1.00  0.00    -0.004 C 
HETATM   24  C   UNL     1      41.418 -17.579   4.887  1.00  0.00     0.021 C 
HETATM   25  C   UNL     1      43.160 -16.101   3.906  1.00  0.00     0.021 C 
BRANCH  23  26
HETATM   26  C   UNL     1      43.119 -18.617   3.358  1.00  0.00    -0.046 A 
HETATM   27  C   UNL     1      42.959 -19.327   2.155  1.00  0.00     0.027 A 
HETATM   28  C   UNL     1      43.704 -20.477   1.932  1.00  0.00     0.116 A 
HETATM   29  N   UNL     1      44.597 -20.974   2.809  1.00  0.00    -0.273 NA
HETATM   30  C   UNL     1      44.747 -20.289   3.959  1.00  0.00     0.116 A 
HETATM   31  C   UNL     1      44.049 -19.129   4.271  1.00  0.00     0.027 A 
ENDBRANCH  23  26
ENDBRANCH  22  23
ENDBRANCH   1  22
TORSDOF 6
ENDMDL
MODEL 8
REMARK VINA RESULT:      -8.1      6.603     10.260
REMARK  6 active torsions:
REMARK  status: ('A' for Active; 'I' for Inactive)
REMARK    1  A    between atoms: C_2  and  C_3 
REMARK    2  A    between atoms: C_2  and  C_9 
REMARK    3  A    between atoms: C_9  and  N_10 
REMARK       I    between atoms: N_10  and  C_11 
REMARK       I    between atoms: C_11  and  N_12 
REMARK    4  A    between atoms: N_12  and  C_13 
REMARK    5  A    between atoms: C_15  and  N_16 
REMARK       I    between atoms: N_16  and  C_17 
REMARK    6  A    between atoms: C_17  and  C_18 
ROOT
HETATM    1  N   UNL     1      39.200 -12.891   0.865  1.00  0.00    -0.342 N 
HETATM    2  C   UNL     1      39.178 -13.973   1.719  1.00  0.00     0.320 C 
HETATM    3  N   UNL     1      40.261 -13.933   2.570  1.00  0.00    -0.309 N 
HETATM    4  O   UNL     1      38.339 -14.860   1.645  1.00  0.00    -0.247 OA
HETATM    5  H   UNL     1      39.678 -12.056   1.170  1.00  0.00     0.164 HD
HETATM    6  H   UNL     1      41.020 -13.347   2.252  1.00  0.00     0.170 HD
ENDROOT
BRANCH   3   7
HETATM    7  C   UNL     1      40.586 -14.889   3.552  1.00  0.00     0.038 A 
HETATM    8  C   UNL     1      41.266 -16.040   3.125  1.00  0.00     0.059 A 
HETATM    9  C   UNL     1      41.580 -17.064   4.021  1.00  0.00     0.037 A 
HETATM   10  C   UNL     1      41.256 -16.899   5.372  1.00  0.00     0.029 A 
HETATM   11  C   UNL     1      40.607 -15.743   5.811  1.00  0.00     0.004 A 
HETATM   12  C   UNL     1      40.265 -14.743   4.900  1.00  0.00     0.029 A 
BRANCH   9  13
HETATM   13  N   UNL     1      42.178 -18.288   3.644  1.00  0.00    -0.323 N 
HETATM   14  C   UNL     1      43.501 -18.665   3.806  1.00  0.00     0.258 C 
HETATM   15  O   UNL     1      44.357 -18.015   4.397  1.00  0.00    -0.267 OA
HETATM   16  H   UNL     1      41.570 -18.932   3.163  1.00  0.00     0.169 HD
BRANCH  14  17
HETATM   17  C   UNL     1      43.859 -19.943   3.194  1.00  0.00     0.056 A 
HETATM   18  C   UNL     1      44.665 -20.952   3.687  1.00  0.00     0.158 A 
HETATM   19  O   UNL     1      44.735 -21.992   2.815  1.00  0.00    -0.334 OA
HETATM   20  C   UNL     1      43.969 -21.666   1.745  1.00  0.00     0.142 A 
HETATM   21  C   UNL     1      43.411 -20.424   1.923  1.00  0.00     0.043 A 
ENDBRANCH  14  17
ENDBRANCH   9  13
ENDBRANCH   3   7
BRANCH   1  22
HETATM   22  C   UNL     1      38.365 -12.821  -0.323  1.00  0.00     0.138 C 
BRANCH  22  23
HETATM   23  C   UNL     1      39.184 -12.589  -1.632  1.00  0.00    -0.004 C 
HETATM   24  C   UNL     1      40.644 -12.188  -1.308  1.00  0.00     0.021 C 
HETATM   25  C   UNL     1      38.554 -11.401  -2.401  1.00  0.00     0.021 C 
BRANCH  23  26
HETATM   26  C   UNL     1      39.198 -13.894  -2.452  1.00  0.00    -0.046 A 
HETATM   27  C   UNL     1      38.069 -14.271  -3.200  1.00  0.00     0.027 A 
HETATM   28  C   UNL     1      38.086 -15.456  -3.921  1.00  0.00     0.116 A 
HETATM   29  N   UNL     1      39.139 -16.295  -3.961  1.00  0.00    -0.273 NA
HETATM   30  C   UNL     1      40.219 -15.929  -3.243  1.00  0.00     0.116 A 
HETATM   31  C   UNL     1      40.296 -14.763  -2.492  1.00  0.00     0.027 A 
ENDBRANCH  23  26
ENDBRANCH  22  23
ENDBRANCH   1  22
TORSDOF 6
ENDMDL
MODEL 9
REMARK VINA RESULT:      -8.0      7.409     10.759
REMARK  6 active torsions:
REMARK  status: ('A' for Active; 'I' for Inactive)
REMARK    1  A    between atoms: C_2  and  C_3 
REMARK    2  A    between atoms: C_2  and  C_9 
REMARK    3  A    between atoms: C_9  and  N_10 
REMARK       I    between atoms: N_10  and  C_11 
REMARK       I    between atoms: C_11  and  N_12 
REMARK    4  A    between atoms: N_12  and  C_13 
REMARK    5  A    between atoms: C_15  and  N_16 
REMARK       I    between atoms: N_16  and  C_17 
REMARK    6  A    between atoms: C_17  and  C_18 
ROOT
HETATM    1  N   UNL     1      41.943 -13.588  -0.591  1.00  0.00    -0.342 N 
HETATM    2  C   UNL     1      41.589 -14.651   0.210  1.00  0.00     0.320 C 
HETATM    3  N   UNL     1      41.991 -14.427   1.508  1.00  0.00    -0.309 N 
HETATM    4  O   UNL     1      41.062 -15.666  -0.226  1.00  0.00    -0.247 OA
HETATM    5  H   UNL     1      42.051 -12.683  -0.158  1.00  0.00     0.164 HD
HETATM    6  H   UNL     1      42.711 -13.726   1.607  1.00  0.00     0.170 HD
ENDROOT
BRANCH   3   7
HETATM    7  C   UNL     1      41.832 -15.307   2.596  1.00  0.00     0.038 A 
HETATM    8  C   UNL     1      42.576 -16.497   2.570  1.00  0.00     0.059 A 
HETATM    9  C   UNL     1      42.441 -17.452   3.579  1.00  0.00     0.037 A 
HETATM   10  C   UNL     1      41.588 -17.180   4.655  1.00  0.00     0.029 A 
HETATM   11  C   UNL     1      40.866 -15.985   4.703  1.00  0.00     0.004 A 
HETATM   12  C   UNL     1      40.982 -15.055   3.671  1.00  0.00     0.029 A 
BRANCH   9  13
HETATM   13  N   UNL     1      43.088 -18.710   3.570  1.00  0.00    -0.323 N 
HETATM   14  C   UNL     1      43.565 -19.404   2.470  1.00  0.00     0.258 C 
HETATM   15  O   UNL     1      43.582 -18.983   1.318  1.00  0.00    -0.267 OA
HETATM   16  H   UNL     1      43.161 -19.161   4.468  1.00  0.00     0.169 HD
BRANCH  14  17
HETATM   17  C   UNL     1      44.066 -20.746   2.757  1.00  0.00     0.056 A 
HETATM   18  C   UNL     1      44.210 -21.825   1.905  1.00  0.00     0.158 A 
HETATM   19  O   UNL     1      44.729 -22.898   2.557  1.00  0.00    -0.334 OA
HETATM   20  C   UNL     1      44.930 -22.522   3.843  1.00  0.00     0.142 A 
HETATM   21  C   UNL     1      44.540 -21.217   4.022  1.00  0.00     0.043 A 
ENDBRANCH  14  17
ENDBRANCH   9  13
ENDBRANCH   3   7
BRANCH   1  22
HETATM   22  C   UNL     1      41.917 -13.666  -2.043  1.00  0.00     0.138 C 
BRANCH  22  23
HETATM   23  C   UNL     1      40.745 -12.851  -2.677  1.00  0.00    -0.004 C 
HETATM   24  C   UNL     1      41.250 -11.972  -3.846  1.00  0.00     0.021 C 
HETATM   25  C   UNL     1      40.181 -11.887  -1.603  1.00  0.00     0.021 C 
BRANCH  23  26
HETATM   26  C   UNL     1      39.686 -13.833  -3.215  1.00  0.00    -0.046 A 
HETATM   27  C   UNL     1      38.334 -13.453  -3.272  1.00  0.00     0.027 A 
HETATM   28  C   UNL     1      37.387 -14.352  -3.743  1.00  0.00     0.116 A 
HETATM   29  N   UNL     1      37.678 -15.597  -4.164  1.00  0.00    -0.273 NA
HETATM   30  C   UNL     1      38.975 -15.956  -4.107  1.00  0.00     0.116 A 
HETATM   31  C   UNL     1      39.994 -15.127  -3.654  1.00  0.00     0.027 A 
ENDBRANCH  23  26
ENDBRANCH  22  23
ENDBRANCH   1  22
TORSDOF 6
ENDMDL
MODEL 10
REMARK VINA RESULT:      -7.9      2.598     10.643
REMARK  6 active torsions:
REMARK  status: ('A' for Active; 'I' for Inactive)
REMARK    1  A    between atoms: C_2  and  C_3 
REMARK    2  A    between atoms: C_2  and  C_9 
REMARK    3  A    between atoms: C_9  and  N_10 
REMARK       I    between atoms: N_10  and  C_11 
REMARK       I    between atoms: C_11  and  N_12 
REMARK    4  A    between atoms: N_12  and  C_13 
REMARK    5  A    between atoms: C_15  and  N_16 
REMARK       I    between atoms: N_16  and  C_17 
REMARK    6  A    between atoms: C_17  and  C_18 
ROOT
HETATM    1  N   UNL     1      43.784 -12.578   8.331  1.00  0.00    -0.342 N 
HETATM    2  C   UNL     1      43.248 -12.894   7.101  1.00  0.00     0.320 C 
HETATM    3  N   UNL     1      43.873 -14.005   6.579  1.00  0.00    -0.309 N 
HETATM    4  O   UNL     1      42.394 -12.211   6.554  1.00  0.00    -0.247 OA
HETATM    5  H   UNL     1      44.210 -13.319   8.867  1.00  0.00     0.164 HD
HETATM    6  H   UNL     1      44.773 -14.210   6.989  1.00  0.00     0.170 HD
ENDROOT
BRANCH   3   7
HETATM    7  C   UNL     1      43.614 -14.597   5.327  1.00  0.00     0.038 A 
HETATM    8  C   UNL     1      43.681 -15.997   5.254  1.00  0.00     0.059 A 
HETATM    9  C   UNL     1      43.493 -16.664   4.042  1.00  0.00     0.037 A 
HETATM   10  C   UNL     1      43.178 -15.915   2.903  1.00  0.00     0.029 A 
HETATM   11  C   UNL     1      43.079 -14.524   2.973  1.00  0.00     0.004 A 
HETATM   12  C   UNL     1      43.306 -13.865   4.182  1.00  0.00     0.029 A 
BRANCH   9  13
HETATM   13  N   UNL     1      43.638 -18.061   3.878  1.00  0.00    -0.323 N 
HETATM   14  C   UNL     1      44.490 -18.907   4.569  1.00  0.00     0.258 C 
HETATM   15  O   UNL     1      45.200 -18.582   5.514  1.00  0.00    -0.267 OA
HETATM   16  H   UNL     1      43.085 -18.465   3.138  1.00  0.00     0.169 HD
BRANCH  14  17
HETATM   17  C   UNL     1      44.517 -20.286   4.085  1.00  0.00     0.056 A 
HETATM   18  C   UNL     1      44.774 -21.451   4.782  1.00  0.00     0.158 A 
HETATM   19  O   UNL     1      44.687 -22.537   3.970  1.00  0.00    -0.334 OA
HETATM   20  C   UNL     1      44.369 -22.083   2.733  1.00  0.00     0.142 A 
HETATM   21  C   UNL     1      44.254 -20.714   2.745  1.00  0.00     0.043 A 
ENDBRANCH  14  17
ENDBRANCH   9  13
ENDBRANCH   3   7
BRANCH   1  22
HETATM   22  C   UNL     1      43.538 -11.301   8.982  1.00  0.00     0.138 C 
BRANCH  22  23
HETATM   23  C   UNL     1      44.135 -11.226  10.423  1.00  0.00    -0.004 C 
HETATM   24  C   UNL     1      45.507 -10.510  10.417  1.00  0.00     0.021 C 
HETATM   25  C   UNL     1      44.386 -12.670  10.926  1.00  0.00     0.021 C 
BRANCH  23  26
HETATM   26  C   UNL     1      43.166 -10.438  11.326  1.00  0.00    -0.046 A 
HETATM   27  C   UNL     1      43.630  -9.849  12.516  1.00  0.00     0.027 A 
HETATM   28  C   UNL     1      42.745  -9.156  13.330  1.00  0.00     0.116 A 
HETATM   29  N   UNL     1      41.436  -8.999  13.053  1.00  0.00    -0.273 NA
HETATM   30  C   UNL     1      40.998  -9.564  11.911  1.00  0.00     0.116 A 
HETATM   31  C   UNL     1      41.806 -10.275  11.033  1.00  0.00     0.027 A 
ENDBRANCH  23  26
ENDBRANCH  22  23
ENDBRANCH   1  22
TORSDOF 6
ENDMDL
