MODEL 1
REMARK VINA RESULT:      -8.4      0.000      0.000
REMARK  6 active torsions:
REMARK  status: ('A' for Active; 'I' for Inactive)
REMARK    1  A    between atoms: C_2  and  C_3 
REMARK    2  A    between atoms: C_3  and  C_4 
REMARK       I    between atoms: C_4  and  N_5 
REMARK    3  A    between atoms: N_5  and  C_6 
REMARK    4  A    between atoms: C_8  and  C_9 
REMARK    5  A    between atoms: C_9  and  N_10 
REMARK       I    between atoms: N_10  and  C_11 
REMARK    6  A    between atoms: C_11  and  C_12 
ROOT
HETATM    1  C   UNL     1      44.419 -17.448   7.414  1.00  0.00     0.161 C 
ENDROOT
BRANCH   1   2
HETATM    2  C   UNL     1      43.988 -16.205   6.686  1.00  0.00    -0.038 A 
HETATM    3  C   UNL     1      43.041 -16.280   5.651  1.00  0.00     0.038 A 
HETATM    4  C   UNL     1      42.550 -15.122   5.041  1.00  0.00     0.035 A 
HETATM    5  C   UNL     1      43.030 -13.877   5.463  1.00  0.00     0.029 A 
HETATM    6  C   UNL     1      44.006 -13.793   6.458  1.00  0.00     0.003 A 
HETATM    7  C   UNL     1      44.482 -14.951   7.068  1.00  0.00     0.009 A 
BRANCH   4   8
HETATM    8  N   UNL     1      41.535 -15.132   4.061  1.00  0.00    -0.327 N 
HETATM    9  C   UNL     1      41.693 -14.901   2.707  1.00  0.00     0.226 C 
HETATM   10  O   UNL     1      42.733 -14.499   2.188  1.00  0.00    -0.273 OA
HETATM   11  H   UNL     1      40.595 -15.199   4.418  1.00  0.00     0.169 HD
BRANCH   9  12
HETATM   12  C   UNL     1      40.484 -15.291   1.833  1.00  0.00     0.074 C 
HETATM   13  C   UNL     1      40.200 -16.792   1.974  1.00  0.00     0.020 C 
BRANCH  12  14
HETATM   14  C   UNL     1      40.524 -14.876   0.353  1.00  0.00     0.009 C 
HETATM   15  C   UNL     1      41.217 -15.864  -0.573  1.00  0.00     0.006 C 
ENDBRANCH  12  14
ENDBRANCH   9  12
ENDBRANCH   4   8
ENDBRANCH   1   2
BRANCH   1  16
HETATM   16  N   UNL     1      44.756 -18.524   6.523  1.00  0.00    -0.351 N 
HETATM   17  C   UNL     1      44.223 -19.780   6.730  1.00  0.00     0.273 C 
HETATM   18  O   UNL     1      43.649 -20.099   7.768  1.00  0.00    -0.266 OA
HETATM   19  H   UNL     1      45.054 -18.329   5.572  1.00  0.00     0.163 HD
BRANCH  17  20
HETATM   20  C   UNL     1      44.372 -20.689   5.582  1.00  0.00     0.157 A 
HETATM   21  N   UNL     1      44.702 -21.989   5.741  1.00  0.00    -0.168 NA
HETATM   22  N   UNL     1      44.760 -22.460   4.483  1.00  0.00    -0.277 N 
HETATM   23  H   UNL     1      44.996 -23.437   4.347  1.00  0.00     0.189 HD
HETATM   24  C   UNL     1      44.495 -21.532   3.515  1.00  0.00     0.063 A 
HETATM   25  C   UNL     1      44.232 -20.354   4.203  1.00  0.00     0.029 A 
HETATM   26  C   UNL     1      44.467 -21.623   2.121  1.00  0.00     0.032 A 
HETATM   27  C   UNL     1      43.923 -19.193   3.467  1.00  0.00     0.023 A 
HETATM   28  C   UNL     1      43.890 -19.249   2.063  1.00  0.00    -0.061 A 
HETATM   29  C   UNL     1      44.160 -20.457   1.409  1.00  0.00     0.009 A 
HETATM   30  C   UNL     1      43.566 -18.005   1.286  1.00  0.00     0.048 C 
ENDBRANCH  17  20
ENDBRANCH   1  16
TORSDOF 6
ENDMDL
MODEL 2
REMARK VINA RESULT:      -8.3      4.402      8.504
REMARK  6 active torsions:
REMARK  status: ('A' for Active; 'I' for Inactive)
REMARK    1  A    between atoms: C_2  and  C_3 
REMARK    2  A    between atoms: C_3  and  C_4 
REMARK       I    between atoms: C_4  and  N_5 
REMARK    3  A    between atoms: N_5  and  C_6 
REMARK    4  A    between atoms: C_8  and  C_9 
REMARK    5  A    between atoms: C_9  and  N_10 
REMARK       I    between atoms: N_10  and  C_11 
REMARK    6  A    between atoms: C_11  and  C_12 
ROOT
HETATM    1  C   UNL     1      44.771 -13.852   6.852  1.00  0.00     0.161 C 
ENDROOT
BRANCH   1   2
HETATM    2  C   UNL     1      43.684 -14.466   6.013  1.00  0.00    -0.038 A 
HETATM    3  C   UNL     1      43.822 -15.772   5.515  1.00  0.00     0.038 A 
HETATM    4  C   UNL     1      42.775 -16.394   4.829  1.00  0.00     0.035 A 
HETATM    5  C   UNL     1      41.584 -15.690   4.625  1.00  0.00     0.029 A 
HETATM    6  C   UNL     1      41.452 -14.374   5.074  1.00  0.00     0.003 A 
HETATM    7  C   UNL     1      42.496 -13.765   5.766  1.00  0.00     0.009 A 
BRANCH   4   8
HETATM    8  N   UNL     1      42.826 -17.733   4.386  1.00  0.00    -0.327 N 
HETATM    9  C   UNL     1      43.516 -18.213   3.287  1.00  0.00     0.226 C 
HETATM   10  O   UNL     1      44.064 -17.502   2.446  1.00  0.00    -0.273 OA
HETATM   11  H   UNL     1      42.199 -18.366   4.858  1.00  0.00     0.169 HD
BRANCH   9  12
HETATM   12  C   UNL     1      43.659 -19.748   3.227  1.00  0.00     0.074 C 
HETATM   13  C   UNL     1      44.843 -20.196   4.093  1.00  0.00     0.020 C 
BRANCH  12  14
HETATM   14  C   UNL     1      43.724 -20.392   1.831  1.00  0.00     0.009 C 
HETATM   15  C   UNL     1      44.081 -21.870   1.822  1.00  0.00     0.006 C 
ENDBRANCH  12  14
ENDBRANCH   9  12
ENDBRANCH   4   8
ENDBRANCH   1   2
BRANCH   1  16
HETATM   16  N   UNL     1      44.359 -13.617   8.208  1.00  0.00    -0.351 N 
HETATM   17  C   UNL     1      44.951 -12.609   8.941  1.00  0.00     0.273 C 
HETATM   18  O   UNL     1      45.977 -12.036   8.581  1.00  0.00    -0.266 OA
HETATM   19  H   UNL     1      43.433 -13.896   8.520  1.00  0.00     0.163 HD
BRANCH  17  20
HETATM   20  C   UNL     1      44.224 -12.259  10.172  1.00  0.00     0.157 A 
HETATM   21  N   UNL     1      44.437 -12.911  11.335  1.00  0.00    -0.168 NA
HETATM   22  N   UNL     1      43.584 -12.323  12.192  1.00  0.00    -0.277 N 
HETATM   23  H   UNL     1      43.564 -12.652  13.151  1.00  0.00     0.189 HD
HETATM   24  C   UNL     1      42.821 -11.330  11.643  1.00  0.00     0.063 A 
HETATM   25  C   UNL     1      43.218 -11.257  10.314  1.00  0.00     0.029 A 
HETATM   26  C   UNL     1      41.833 -10.506  12.189  1.00  0.00     0.032 A 
HETATM   27  C   UNL     1      42.599 -10.313   9.472  1.00  0.00     0.023 A 
HETATM   28  C   UNL     1      41.599  -9.471   9.987  1.00  0.00    -0.061 A 
HETATM   29  C   UNL     1      41.229  -9.576  11.334  1.00  0.00     0.009 A 
HETATM   30  C   UNL     1      40.940  -8.473   9.079  1.00  0.00     0.048 C 
ENDBRANCH  17  20
ENDBRANCH   1  16
TORSDOF 6
ENDMDL
MODEL 3
REMARK VINA RESULT:      -8.0      2.154      6.594
REMARK  6 active torsions:
REMARK  status: ('A' for Active; 'I' for Inactive)
REMARK    1  A    between atoms: C_2  and  C_3 
REMARK    2  A    between atoms: C_3  and  C_4 
REMARK       I    between atoms: C_4  and  N_5 
REMARK    3  A    between atoms: N_5  and  C_6 
REMARK    4  A    between atoms: C_8  and  C_9 
REMARK    5  A    between atoms: C_9  and  N_10 
REMARK       I    between atoms: N_10  and  C_11 
REMARK    6  A    between atoms: C_11  and  C_12 
ROOT
HETATM    1  C   UNL     1      41.721 -13.470   4.423  1.00  0.00     0.161 C 
ENDROOT
BRANCH   1   2
HETATM    2  C   UNL     1      42.544 -14.483   5.171  1.00  0.00    -0.038 A 
HETATM    3  C   UNL     1      42.512 -15.838   4.801  1.00  0.00     0.038 A 
HETATM    4  C   UNL     1      43.353 -16.770   5.415  1.00  0.00     0.035 A 
HETATM    5  C   UNL     1      44.222 -16.340   6.423  1.00  0.00     0.029 A 
HETATM    6  C   UNL     1      44.230 -15.005   6.831  1.00  0.00     0.003 A 
HETATM    7  C   UNL     1      43.396 -14.080   6.208  1.00  0.00     0.009 A 
BRANCH   4   8
HETATM    8  N   UNL     1      43.427 -18.124   5.022  1.00  0.00    -0.327 N 
HETATM    9  C   UNL     1      43.856 -18.606   3.799  1.00  0.00     0.226 C 
HETATM   10  O   UNL     1      44.093 -17.902   2.819  1.00  0.00    -0.273 OA
HETATM   11  H   UNL     1      43.010 -18.780   5.665  1.00  0.00     0.169 HD
BRANCH   9  12
HETATM   12  C   UNL     1      44.137 -20.122   3.759  1.00  0.00     0.074 C 
HETATM   13  C   UNL     1      44.902 -20.546   5.019  1.00  0.00     0.020 C 
BRANCH  12  14
HETATM   14  C   UNL     1      44.811 -20.677   2.493  1.00  0.00     0.009 C 
HETATM   15  C   UNL     1      44.123 -21.885   1.875  1.00  0.00     0.006 C 
ENDBRANCH  12  14
ENDBRANCH   9  12
ENDBRANCH   4   8
ENDBRANCH   1   2
BRANCH   1  16
HETATM   16  N   UNL     1      41.224 -13.974   3.173  1.00  0.00    -0.351 N 
HETATM   17  C   UNL     1      41.928 -13.742   2.009  1.00  0.00     0.273 C 
HETATM   18  O   UNL     1      42.849 -12.932   1.937  1.00  0.00    -0.266 OA
HETATM   19  H   UNL     1      40.604 -14.778   3.153  1.00  0.00     0.163 HD
BRANCH  17  20
HETATM   20  C   UNL     1      41.501 -14.578   0.876  1.00  0.00     0.157 A 
HETATM   21  N   UNL     1      41.006 -15.822   1.055  1.00  0.00    -0.168 NA
HETATM   22  N   UNL     1      40.761 -16.250  -0.196  1.00  0.00    -0.277 N 
HETATM   23  H   UNL     1      40.376 -17.181  -0.317  1.00  0.00     0.189 HD
HETATM   24  C   UNL     1      41.080 -15.354  -1.178  1.00  0.00     0.063 A 
HETATM   25  C   UNL     1      41.568 -14.239  -0.508  1.00  0.00     0.029 A 
HETATM   26  C   UNL     1      40.986 -15.426  -2.570  1.00  0.00     0.032 A 
HETATM   27  C   UNL     1      41.990 -13.127  -1.262  1.00  0.00     0.023 A 
HETATM   28  C   UNL     1      41.914 -13.167  -2.665  1.00  0.00    -0.061 A 
HETATM   29  C   UNL     1      41.414 -14.310  -3.300  1.00  0.00     0.009 A 
HETATM   30  C   UNL     1      42.373 -11.979  -3.460  1.00  0.00     0.048 C 
ENDBRANCH  17  20
ENDBRANCH   1  16
TORSDOF 6
ENDMDL
MODEL 4
REMARK VINA RESULT:      -8.0      4.863      6.920
REMARK  6 active torsions:
REMARK  status: ('A' for Active; 'I' for Inactive)
REMARK    1  A    between atoms: C_2  and  C_3 
REMARK    2  A    between atoms: C_3  and  C_4 
REMARK       I    between atoms: C_4  and  N_5 
REMARK    3  A    between atoms: N_5  and  C_6 
REMARK    4  A    between atoms: C_8  and  C_9 
REMARK    5  A    between atoms: C_9  and  N_10 
REMARK       I    between atoms: N_10  and  C_11 
REMARK    6  A    between atoms: C_11  and  C_12 
ROOT
HETATM    1  C   UNL     1      44.621 -13.141   7.457  1.00  0.00     0.161 C 
ENDROOT
BRANCH   1   2
HETATM    2  C   UNL     1      44.520 -12.170   8.601  1.00  0.00    -0.038 A 
HETATM    3  C   UNL     1      43.368 -11.383   8.765  1.00  0.00     0.038 A 
HETATM    4  C   UNL     1      43.215 -10.559   9.884  1.00  0.00     0.035 A 
HETATM    5  C   UNL     1      44.237 -10.511  10.837  1.00  0.00     0.029 A 
HETATM    6  C   UNL     1      45.407 -11.253  10.661  1.00  0.00     0.003 A 
HETATM    7  C   UNL     1      45.548 -12.080   9.549  1.00  0.00     0.009 A 
BRANCH   4   8
HETATM    8  N   UNL     1      42.043  -9.816  10.145  1.00  0.00    -0.327 N 
HETATM    9  C   UNL     1      40.998 -10.187  10.971  1.00  0.00     0.226 C 
HETATM   10  O   UNL     1      40.877 -11.300  11.481  1.00  0.00    -0.273 OA
HETATM   11  H   UNL     1      41.920  -8.995   9.574  1.00  0.00     0.169 HD
BRANCH   9  12
HETATM   12  C   UNL     1      40.010  -9.055  11.321  1.00  0.00     0.074 C 
HETATM   13  C   UNL     1      39.786  -9.007  12.838  1.00  0.00     0.020 C 
BRANCH  12  14
HETATM   14  C   UNL     1      38.670  -9.035  10.566  1.00  0.00     0.009 C 
HETATM   15  C   UNL     1      38.595  -9.967   9.366  1.00  0.00     0.006 C 
ENDBRANCH  12  14
ENDBRANCH   9  12
ENDBRANCH   4   8
ENDBRANCH   1   2
BRANCH   1  16
HETATM   16  N   UNL     1      44.280 -14.484   7.837  1.00  0.00    -0.351 N 
HETATM   17  C   UNL     1      43.664 -15.320   6.928  1.00  0.00     0.273 C 
HETATM   18  O   UNL     1      43.180 -14.918   5.873  1.00  0.00    -0.266 OA
HETATM   19  H   UNL     1      44.785 -14.950   8.585  1.00  0.00     0.163 HD
BRANCH  17  20
HETATM   20  C   UNL     1      43.673 -16.738   7.320  1.00  0.00     0.157 A 
HETATM   21  N   UNL     1      43.550 -17.122   8.609  1.00  0.00    -0.168 NA
HETATM   22  N   UNL     1      43.626 -18.463   8.552  1.00  0.00    -0.277 N 
HETATM   23  H   UNL     1      43.557 -18.985   9.418  1.00  0.00     0.189 HD
HETATM   24  C   UNL     1      43.803 -18.970   7.294  1.00  0.00     0.063 A 
HETATM   25  C   UNL     1      43.836 -17.862   6.456  1.00  0.00     0.029 A 
HETATM   26  C   UNL     1      43.938 -20.281   6.830  1.00  0.00     0.032 A 
HETATM   27  C   UNL     1      44.014 -18.063   5.074  1.00  0.00     0.023 A 
HETATM   28  C   UNL     1      44.156 -19.368   4.573  1.00  0.00    -0.061 A 
HETATM   29  C   UNL     1      44.116 -20.457   5.452  1.00  0.00     0.009 A 
HETATM   30  C   UNL     1      44.352 -19.571   3.098  1.00  0.00     0.048 C 
ENDBRANCH  17  20
ENDBRANCH   1  16
TORSDOF 6
ENDMDL
MODEL 5
REMARK VINA RESULT:      -7.9      1.725      2.581
REMARK  6 active torsions:
REMARK  status: ('A' for Active; 'I' for Inactive)
REMARK    1  A    between atoms: C_2  and  C_3 
REMARK    2  A    between atoms: C_3  and  C_4 
REMARK       I    between atoms: C_4  and  N_5 
REMARK    3  A    between atoms: N_5  and  C_6 
REMARK    4  A    between atoms: C_8  and  C_9 
REMARK    5  A    between atoms: C_9  and  N_10 
REMARK       I    between atoms: N_10  and  C_11 
REMARK    6  A    between atoms: C_11  and  C_12 
ROOT
HETATM    1  C   UNL     1      43.311 -14.970   6.458  1.00  0.00     0.161 C 
ENDROOT
BRANCH   1   2
HETATM    2  C   UNL     1      42.276 -14.517   5.466  1.00  0.00    -0.038 A 
HETATM    3  C   UNL     1      42.619 -14.328   4.117  1.00  0.00     0.038 A 
HETATM    4  C   UNL     1      41.644 -14.014   3.165  1.00  0.00     0.035 A 
HETATM    5  C   UNL     1      40.315 -13.870   3.577  1.00  0.00     0.029 A 
HETATM    6  C   UNL     1      39.970 -14.008   4.922  1.00  0.00     0.003 A 
HETATM    7  C   UNL     1      40.945 -14.331   5.863  1.00  0.00     0.009 A 
BRANCH   4   8
HETATM    8  N   UNL     1      41.917 -13.902   1.785  1.00  0.00    -0.327 N 
HETATM    9  C   UNL     1      41.461 -14.740   0.783  1.00  0.00     0.226 C 
HETATM   10  O   UNL     1      40.869 -15.800   0.980  1.00  0.00    -0.273 OA
HETATM   11  H   UNL     1      42.607 -13.211   1.539  1.00  0.00     0.169 HD
BRANCH   9  12
HETATM   12  C   UNL     1      41.643 -14.200  -0.651  1.00  0.00     0.074 C 
HETATM   13  C   UNL     1      41.877 -12.685  -0.613  1.00  0.00     0.020 C 
BRANCH  12  14
HETATM   14  C   UNL     1      40.559 -14.564  -1.680  1.00  0.00     0.009 C 
HETATM   15  C   UNL     1      40.901 -15.737  -2.586  1.00  0.00     0.006 C 
ENDBRANCH  12  14
ENDBRANCH   9  12
ENDBRANCH   4   8
ENDBRANCH   1   2
BRANCH   1  16
HETATM   16  N   UNL     1      43.853 -16.263   6.142  1.00  0.00    -0.351 N 
HETATM   17  C   UNL     1      43.259 -17.401   6.649  1.00  0.00     0.273 C 
HETATM   18  O   UNL     1      42.420 -17.371   7.547  1.00  0.00    -0.266 OA
HETATM   19  H   UNL     1      44.401 -16.398   5.297  1.00  0.00     0.163 HD
BRANCH  17  20
HETATM   20  C   UNL     1      43.693 -18.644   5.995  1.00  0.00     0.157 A 
HETATM   21  N   UNL     1      44.045 -19.738   6.706  1.00  0.00    -0.168 NA
HETATM   22  N   UNL     1      44.392 -20.633   5.764  1.00  0.00    -0.277 N 
HETATM   23  H   UNL     1      44.698 -21.552   6.064  1.00  0.00     0.189 HD
HETATM   24  C   UNL     1      44.294 -20.174   4.480  1.00  0.00     0.063 A 
HETATM   25  C   UNL     1      43.833 -18.869   4.593  1.00  0.00     0.029 A 
HETATM   26  C   UNL     1      44.567 -20.782   3.251  1.00  0.00     0.032 A 
HETATM   27  C   UNL     1      43.632 -18.116   3.420  1.00  0.00     0.023 A 
HETATM   28  C   UNL     1      43.901 -18.694   2.167  1.00  0.00    -0.061 A 
HETATM   29  C   UNL     1      44.363 -20.014   2.097  1.00  0.00     0.009 A 
HETATM   30  C   UNL     1      43.690 -17.881   0.923  1.00  0.00     0.048 C 
ENDBRANCH  17  20
ENDBRANCH   1  16
TORSDOF 6
ENDMDL
MODEL 6
REMARK VINA RESULT:      -7.8      2.841      7.521
REMARK  6 active torsions:
REMARK  status: ('A' for Active; 'I' for Inactive)
REMARK    1  A    between atoms: C_2  and  C_3 
REMARK    2  A    between atoms: C_3  and  C_4 
REMARK       I    between atoms: C_4  and  N_5 
REMARK    3  A    between atoms: N_5  and  C_6 
REMARK    4  A    between atoms: C_8  and  C_9 
REMARK    5  A    between atoms: C_9  and  N_10 
REMARK       I    between atoms: N_10  and  C_11 
REMARK    6  A    between atoms: C_11  and  C_12 
ROOT
HETATM    1  C   UNL     1      42.715 -13.695   3.966  1.00  0.00     0.161 C 
ENDROOT
BRANCH   1   2
HETATM    2  C   UNL     1      42.255 -15.079   4.332  1.00  0.00    -0.038 A 
HETATM    3  C   UNL     1      43.027 -16.200   3.983  1.00  0.00     0.038 A 
HETATM    4  C   UNL     1      42.669 -17.481   4.412  1.00  0.00     0.035 A 
HETATM    5  C   UNL     1      41.513 -17.640   5.184  1.00  0.00     0.029 A 
HETATM    6  C   UNL     1      40.713 -16.539   5.498  1.00  0.00     0.003 A 
HETATM    7  C   UNL     1      41.082 -15.264   5.075  1.00  0.00     0.009 A 
BRANCH   4   8
HETATM    8  N   UNL     1      43.453 -18.628   4.167  1.00  0.00    -0.327 N 
HETATM    9  C   UNL     1      43.495 -19.364   2.997  1.00  0.00     0.226 C 
HETATM   10  O   UNL     1      42.729 -19.205   2.048  1.00  0.00    -0.273 OA
HETATM   11  H   UNL     1      43.932 -19.000   4.972  1.00  0.00     0.169 HD
BRANCH   9  12
HETATM   12  C   UNL     1      44.668 -20.362   2.897  1.00  0.00     0.074 C 
HETATM   13  C   UNL     1      44.236 -21.596   2.095  1.00  0.00     0.020 C 
BRANCH  12  14
HETATM   14  C   UNL     1      45.354 -20.772   4.211  1.00  0.00     0.009 C 
HETATM   15  C   UNL     1      44.793 -22.025   4.865  1.00  0.00     0.006 C 
ENDBRANCH  12  14
ENDBRANCH   9  12
ENDBRANCH   4   8
ENDBRANCH   1   2
BRANCH   1  16
HETATM   16  N   UNL     1      42.821 -13.504   2.546  1.00  0.00    -0.351 N 
HETATM   17  C   UNL     1      41.762 -12.967   1.843  1.00  0.00     0.273 C 
HETATM   18  O   UNL     1      40.637 -12.847   2.321  1.00  0.00    -0.266 OA
HETATM   19  H   UNL     1      43.732 -13.398   2.109  1.00  0.00     0.163 HD
BRANCH  17  20
HETATM   20  C   UNL     1      42.112 -12.519   0.485  1.00  0.00     0.157 A 
HETATM   21  N   UNL     1      42.740 -11.344   0.262  1.00  0.00    -0.168 NA
HETATM   22  N   UNL     1      42.857 -11.294  -1.076  1.00  0.00    -0.277 N 
HETATM   23  H   UNL     1      43.308 -10.485  -1.489  1.00  0.00     0.189 HD
HETATM   24  C   UNL     1      42.329 -12.370  -1.735  1.00  0.00     0.063 A 
HETATM   25  C   UNL     1      41.832 -13.199  -0.737  1.00  0.00     0.029 A 
HETATM   26  C   UNL     1      42.244 -12.679  -3.095  1.00  0.00     0.032 A 
HETATM   27  C   UNL     1      41.211 -14.408  -1.107  1.00  0.00     0.023 A 
HETATM   28  C   UNL     1      41.105 -14.748  -2.467  1.00  0.00    -0.061 A 
HETATM   29  C   UNL     1      41.621 -13.884  -3.441  1.00  0.00     0.009 A 
HETATM   30  C   UNL     1      40.435 -16.036  -2.851  1.00  0.00     0.048 C 
ENDBRANCH  17  20
ENDBRANCH   1  16
TORSDOF 6
ENDMDL
MODEL 7
REMARK VINA RESULT:      -7.8      2.308      4.275
REMARK  6 active torsions:
REMARK  status: ('A' for Active; 'I' for Inactive)
REMARK    1  A    between atoms: C_2  and  C_3 
REMARK    2  A    between atoms: C_3  and  C_4 
REMARK       I    between atoms: C_4  and  N_5 
REMARK    3  A    between atoms: N_5  and  C_6 
REMARK    4  A    between atoms: C_8  and  C_9 
REMARK    5  A    between atoms: C_9  and  N_10 
REMARK       I    between atoms: N_10  and  C_11 
REMARK    6  A    between atoms: C_11  and  C_12 
ROOT
HETATM    1  C   UNL     1      42.925 -14.520   3.913  1.00  0.00     0.161 C 
ENDROOT
BRANCH   1   2
HETATM    2  C   UNL     1      41.708 -14.367   3.042  1.00  0.00    -0.038 A 
HETATM    3  C   UNL     1      41.842 -14.250   1.649  1.00  0.00     0.038 A 
HETATM    4  C   UNL     1      40.718 -14.219   0.819  1.00  0.00     0.035 A 
HETATM    5  C   UNL     1      39.446 -14.287   1.397  1.00  0.00     0.029 A 
HETATM    6  C   UNL     1      39.299 -14.356   2.784  1.00  0.00     0.003 A 
HETATM    7  C   UNL     1      40.425 -14.397   3.603  1.00  0.00     0.009 A 
BRANCH   4   8
HETATM    8  N   UNL     1      40.795 -14.192  -0.590  1.00  0.00    -0.327 N 
HETATM    9  C   UNL     1      40.983 -15.277  -1.427  1.00  0.00     0.226 C 
HETATM   10  O   UNL     1      41.264 -16.411  -1.041  1.00  0.00    -0.273 OA
HETATM   11  H   UNL     1      40.834 -13.272  -1.000  1.00  0.00     0.169 HD
BRANCH   9  12
HETATM   12  C   UNL     1      40.705 -15.005  -2.919  1.00  0.00     0.074 C 
HETATM   13  C   UNL     1      41.404 -13.712  -3.354  1.00  0.00     0.020 C 
BRANCH  12  14
HETATM   14  C   UNL     1      39.235 -15.015  -3.371  1.00  0.00     0.009 C 
HETATM   15  C   UNL     1      38.871 -16.119  -4.352  1.00  0.00     0.006 C 
ENDBRANCH  12  14
ENDBRANCH   9  12
ENDBRANCH   4   8
ENDBRANCH   1   2
BRANCH   1  16
HETATM   16  N   UNL     1      43.052 -15.841   4.462  1.00  0.00    -0.351 N 
HETATM   17  C   UNL     1      43.667 -16.835   3.728  1.00  0.00     0.273 C 
HETATM   18  O   UNL     1      43.919 -16.720   2.531  1.00  0.00    -0.266 OA
HETATM   19  H   UNL     1      43.048 -15.983   5.468  1.00  0.00     0.163 HD
BRANCH  17  20
HETATM   20  C   UNL     1      44.027 -18.024   4.515  1.00  0.00     0.157 A 
HETATM   21  N   UNL     1      44.289 -17.950   5.839  1.00  0.00    -0.168 NA
HETATM   22  N   UNL     1      44.590 -19.216   6.176  1.00  0.00    -0.277 N 
HETATM   23  H   UNL     1      44.827 -19.412   7.142  1.00  0.00     0.189 HD
HETATM   24  C   UNL     1      44.548 -20.107   5.139  1.00  0.00     0.063 A 
HETATM   25  C   UNL     1      44.177 -19.357   4.030  1.00  0.00     0.029 A 
HETATM   26  C   UNL     1      44.802 -21.480   5.080  1.00  0.00     0.032 A 
HETATM   27  C   UNL     1      44.050 -20.004   2.785  1.00  0.00     0.023 A 
HETATM   28  C   UNL     1      44.302 -21.384   2.690  1.00  0.00    -0.061 A 
HETATM   29  C   UNL     1      44.672 -22.103   3.833  1.00  0.00     0.009 A 
HETATM   30  C   UNL     1      44.171 -22.063   1.357  1.00  0.00     0.048 C 
ENDBRANCH  17  20
ENDBRANCH   1  16
TORSDOF 6
ENDMDL
MODEL 8
REMARK VINA RESULT:      -7.8      4.248      9.130
REMARK  6 active torsions:
REMARK  status: ('A' for Active; 'I' for Inactive)
REMARK    1  A    between atoms: C_2  and  C_3 
REMARK    2  A    between atoms: C_3  and  C_4 
REMARK       I    between atoms: C_4  and  N_5 
REMARK    3  A    between atoms: N_5  and  C_6 
REMARK    4  A    between atoms: C_8  and  C_9 
REMARK    5  A    between atoms: C_9  and  N_10 
REMARK       I    between atoms: N_10  and  C_11 
REMARK    6  A    between atoms: C_11  and  C_12 
ROOT
HETATM    1  C   UNL     1      41.983 -13.187   5.401  1.00  0.00     0.161 C 
ENDROOT
BRANCH   1   2
HETATM    2  C   UNL     1      41.686 -14.657   5.288  1.00  0.00    -0.038 A 
HETATM    3  C   UNL     1      42.366 -15.449   4.347  1.00  0.00     0.038 A 
HETATM    4  C   UNL     1      42.180 -16.834   4.306  1.00  0.00     0.035 A 
HETATM    5  C   UNL     1      41.288 -17.426   5.207  1.00  0.00     0.029 A 
HETATM    6  C   UNL     1      40.572 -16.644   6.115  1.00  0.00     0.003 A 
HETATM    7  C   UNL     1      40.770 -15.265   6.156  1.00  0.00     0.009 A 
BRANCH   4   8
HETATM    8  N   UNL     1      42.901 -17.687   3.445  1.00  0.00    -0.327 N 
HETATM    9  C   UNL     1      43.914 -18.559   3.804  1.00  0.00     0.226 C 
HETATM   10  O   UNL     1      44.432 -18.599   4.918  1.00  0.00    -0.273 OA
HETATM   11  H   UNL     1      42.731 -17.547   2.461  1.00  0.00     0.169 HD
BRANCH   9  12
HETATM   12  C   UNL     1      44.298 -19.592   2.724  1.00  0.00     0.074 C 
HETATM   13  C   UNL     1      43.207 -19.653   1.648  1.00  0.00     0.020 C 
BRANCH  12  14
HETATM   14  C   UNL     1      44.674 -21.003   3.206  1.00  0.00     0.009 C 
HETATM   15  C   UNL     1      44.474 -22.107   2.180  1.00  0.00     0.006 C 
ENDBRANCH  12  14
ENDBRANCH   9  12
ENDBRANCH   4   8
ENDBRANCH   1   2
BRANCH   1  16
HETATM   16  N   UNL     1      41.558 -12.631   6.656  1.00  0.00    -0.351 N 
HETATM   17  C   UNL     1      41.077 -11.338   6.707  1.00  0.00     0.273 C 
HETATM   18  O   UNL     1      41.199 -10.544   5.778  1.00  0.00    -0.266 OA
HETATM   19  H   UNL     1      41.253 -13.238   7.411  1.00  0.00     0.163 HD
BRANCH  17  20
HETATM   20  C   UNL     1      40.375 -11.010   7.958  1.00  0.00     0.157 A 
HETATM   21  N   UNL     1      39.028 -10.932   8.020  1.00  0.00    -0.168 NA
HETATM   22  N   UNL     1      38.787 -10.597   9.300  1.00  0.00    -0.277 N 
HETATM   23  H   UNL     1      37.822 -10.479   9.591  1.00  0.00     0.189 HD
HETATM   24  C   UNL     1      39.906 -10.444  10.069  1.00  0.00     0.063 A 
HETATM   25  C   UNL     1      40.972 -10.712   9.219  1.00  0.00     0.029 A 
HETATM   26  C   UNL     1      40.072 -10.097  11.413  1.00  0.00     0.032 A 
HETATM   27  C   UNL     1      42.283 -10.630   9.728  1.00  0.00     0.023 A 
HETATM   28  C   UNL     1      42.486 -10.280  11.074  1.00  0.00    -0.061 A 
HETATM   29  C   UNL     1      41.384 -10.019  11.898  1.00  0.00     0.009 A 
HETATM   30  C   UNL     1      43.887 -10.189  11.606  1.00  0.00     0.048 C 
ENDBRANCH  17  20
ENDBRANCH   1  16
TORSDOF 6
ENDMDL
MODEL 9
REMARK VINA RESULT:      -7.7      2.607      4.873
REMARK  6 active torsions:
REMARK  status: ('A' for Active; 'I' for Inactive)
REMARK    1  A    between atoms: C_2  and  C_3 
REMARK    2  A    between atoms: C_3  and  C_4 
REMARK       I    between atoms: C_4  and  N_5 
REMARK    3  A    between atoms: N_5  and  C_6 
REMARK    4  A    between atoms: C_8  and  C_9 
REMARK    5  A    between atoms: C_9  and  N_10 
REMARK       I    between atoms: N_10  and  C_11 
REMARK    6  A    between atoms: C_11  and  C_12 
ROOT
HETATM    1  C   UNL     1      41.731 -14.467   3.674  1.00  0.00     0.161 C 
ENDROOT
BRANCH   1   2
HETATM    2  C   UNL     1      41.557 -15.092   2.316  1.00  0.00    -0.038 A 
HETATM    3  C   UNL     1      40.569 -14.617   1.438  1.00  0.00     0.038 A 
HETATM    4  C   UNL     1      40.469 -15.113   0.134  1.00  0.00     0.035 A 
HETATM    5  C   UNL     1      41.358 -16.109  -0.283  1.00  0.00     0.029 A 
HETATM    6  C   UNL     1      42.313 -16.621   0.596  1.00  0.00     0.003 A 
HETATM    7  C   UNL     1      42.414 -16.115   1.890  1.00  0.00     0.009 A 
BRANCH   4   8
HETATM    8  N   UNL     1      39.556 -14.611  -0.817  1.00  0.00    -0.327 N 
HETATM    9  C   UNL     1      39.861 -13.858  -1.937  1.00  0.00     0.226 C 
HETATM   10  O   UNL     1      40.973 -13.390  -2.177  1.00  0.00    -0.273 OA
HETATM   11  H   UNL     1      38.583 -14.719  -0.578  1.00  0.00     0.169 HD
BRANCH   9  12
HETATM   12  C   UNL     1      38.718 -13.724  -2.964  1.00  0.00     0.074 C 
HETATM   13  C   UNL     1      37.661 -12.741  -2.443  1.00  0.00     0.020 C 
BRANCH  12  14
HETATM   14  C   UNL     1      38.063 -15.024  -3.458  1.00  0.00     0.009 C 
HETATM   15  C   UNL     1      39.008 -15.998  -4.145  1.00  0.00     0.006 C 
ENDBRANCH  12  14
ENDBRANCH   9  12
ENDBRANCH   4   8
ENDBRANCH   1   2
BRANCH   1  16
HETATM   16  N   UNL     1      42.384 -15.343   4.607  1.00  0.00    -0.351 N 
HETATM   17  C   UNL     1      41.638 -16.026   5.547  1.00  0.00     0.273 C 
HETATM   18  O   UNL     1      40.463 -15.759   5.787  1.00  0.00    -0.266 OA
HETATM   19  H   UNL     1      43.283 -15.758   4.380  1.00  0.00     0.163 HD
BRANCH  17  20
HETATM   20  C   UNL     1      42.366 -17.121   6.206  1.00  0.00     0.157 A 
HETATM   21  N   UNL     1      42.473 -17.196   7.551  1.00  0.00    -0.168 NA
HETATM   22  N   UNL     1      43.213 -18.301   7.750  1.00  0.00    -0.277 N 
HETATM   23  H   UNL     1      43.430 -18.568   8.705  1.00  0.00     0.189 HD
HETATM   24  C   UNL     1      43.600 -18.941   6.606  1.00  0.00     0.063 A 
HETATM   25  C   UNL     1      43.057 -18.194   5.569  1.00  0.00     0.029 A 
HETATM   26  C   UNL     1      44.368 -20.090   6.396  1.00  0.00     0.032 A 
HETATM   27  C   UNL     1      43.288 -18.606   4.242  1.00  0.00     0.023 A 
HETATM   28  C   UNL     1      44.060 -19.754   3.995  1.00  0.00    -0.061 A 
HETATM   29  C   UNL     1      44.588 -20.480   5.069  1.00  0.00     0.009 A 
HETATM   30  C   UNL     1      44.307 -20.181   2.577  1.00  0.00     0.048 C 
ENDBRANCH  17  20
ENDBRANCH   1  16
TORSDOF 6
ENDMDL
MODEL 10
REMARK VINA RESULT:      -7.7      4.043      7.134
REMARK  6 active torsions:
REMARK  status: ('A' for Active; 'I' for Inactive)
REMARK    1  A    between atoms: C_2  and  C_3 
REMARK    2  A    between atoms: C_3  and  C_4 
REMARK       I    between atoms: C_4  and  N_5 
REMARK    3  A    between atoms: N_5  and  C_6 
REMARK    4  A    between atoms: C_8  and  C_9 
REMARK    5  A    between atoms: C_9  and  N_10 
REMARK       I    between atoms: N_10  and  C_11 
REMARK    6  A    between atoms: C_11  and  C_12 
ROOT
HETATM    1  C   UNL     1      41.671 -12.128   4.593  1.00  0.00     0.161 C 
ENDROOT
BRANCH   1   2
HETATM    2  C   UNL     1      41.580 -11.193   5.768  1.00  0.00    -0.038 A 
HETATM    3  C   UNL     1      42.052 -11.590   7.030  1.00  0.00     0.038 A 
HETATM    4  C   UNL     1      42.075 -10.694   8.103  1.00  0.00     0.035 A 
HETATM    5  C   UNL     1      41.602  -9.392   7.910  1.00  0.00     0.029 A 
HETATM    6  C   UNL     1      41.087  -9.000   6.673  1.00  0.00     0.003 A 
HETATM    7  C   UNL     1      41.077  -9.896   5.606  1.00  0.00     0.009 A 
BRANCH   4   8
HETATM    8  N   UNL     1      42.620 -11.011   9.365  1.00  0.00    -0.327 N 
HETATM    9  C   UNL     1      43.962 -11.054   9.698  1.00  0.00     0.226 C 
HETATM   10  O   UNL     1      44.882 -10.967   8.886  1.00  0.00    -0.273 OA
HETATM   11  H   UNL     1      41.958 -11.352  10.045  1.00  0.00     0.169 HD
BRANCH   9  12
HETATM   12  C   UNL     1      44.257 -11.109  11.211  1.00  0.00     0.074 C 
HETATM   13  C   UNL     1      44.012 -12.527  11.740  1.00  0.00     0.020 C 
BRANCH  12  14
HETATM   14  C   UNL     1      43.563 -10.063  12.099  1.00  0.00     0.009 C 
HETATM   15  C   UNL     1      42.784 -10.633  13.275  1.00  0.00     0.006 C 
ENDBRANCH  12  14
ENDBRANCH   9  12
ENDBRANCH   4   8
ENDBRANCH   1   2
BRANCH   1  16
HETATM   16  N   UNL     1      41.998 -13.473   4.979  1.00  0.00    -0.351 N 
HETATM   17  C   UNL     1      43.181 -14.042   4.553  1.00  0.00     0.273 C 
HETATM   18  O   UNL     1      43.879 -13.548   3.670  1.00  0.00    -0.266 OA
HETATM   19  H   UNL     1      41.598 -13.878   5.821  1.00  0.00     0.163 HD
BRANCH  17  20
HETATM   20  C   UNL     1      43.547 -15.270   5.275  1.00  0.00     0.157 A 
HETATM   21  N   UNL     1      43.890 -15.253   6.582  1.00  0.00    -0.168 NA
HETATM   22  N   UNL     1      44.169 -16.539   6.856  1.00  0.00    -0.277 N 
HETATM   23  H   UNL     1      44.456 -16.778   7.799  1.00  0.00     0.189 HD
HETATM   24  C   UNL     1      44.035 -17.390   5.794  1.00  0.00     0.063 A 
HETATM   25  C   UNL     1      43.623 -16.589   4.735  1.00  0.00     0.029 A 
HETATM   26  C   UNL     1      44.239 -18.767   5.672  1.00  0.00     0.032 A 
HETATM   27  C   UNL     1      43.401 -17.186   3.479  1.00  0.00     0.023 A 
HETATM   28  C   UNL     1      43.600 -18.568   3.321  1.00  0.00    -0.061 A 
HETATM   29  C   UNL     1      44.014 -19.339   4.414  1.00  0.00     0.009 A 
HETATM   30  C   UNL     1      43.367 -19.194   1.976  1.00  0.00     0.048 C 
ENDBRANCH  17  20
ENDBRANCH   1  16
TORSDOF 6
ENDMDL
