MODEL 1
REMARK VINA RESULT:      -8.9      0.000      0.000
REMARK  5 active torsions:
REMARK  status: ('A' for Active; 'I' for Inactive)
REMARK    1  A    between atoms: C_5  and  C_6 
REMARK    2  A    between atoms: C_10  and  C_11 
REMARK       I    between atoms: C_11  and  N_12 
REMARK    3  A    between atoms: N_12  and  C_13 
REMARK    4  A    between atoms: C_15  and  O_16 
REMARK    5  A    between atoms: C_19  and  O_20 
ROOT
HETATM    1  C   UNL     1      43.346 -17.385   3.317  1.00  0.00     0.068 A 
HETATM    2  N   UNL     1      43.636 -16.611   4.391  1.00  0.00    -0.248 NA
HETATM    3  C   UNL     1      43.125 -15.373   4.486  1.00  0.00     0.068 A 
HETATM    4  C   UNL     1      42.303 -14.796   3.498  1.00  0.00     0.008 A 
HETATM    5  C   UNL     1      42.103 -15.580   2.338  1.00  0.00     0.047 A 
HETATM    6  C   UNL     1      42.619 -16.877   2.256  1.00  0.00     0.050 A 
HETATM    7  C   UNL     1      43.405 -14.649   5.638  1.00  0.00     0.032 A 
HETATM    8  C   UNL     1      42.868 -13.381   5.865  1.00  0.00     0.002 A 
HETATM    9  C   UNL     1      42.012 -12.822   4.929  1.00  0.00     0.001 A 
HETATM   10  C   UNL     1      41.723 -13.525   3.760  1.00  0.00     0.015 A 
ENDROOT
BRANCH   5  11
HETATM   11  C   UNL     1      41.292 -15.153   1.165  1.00  0.00     0.257 C 
HETATM   12  N   UNL     1      41.999 -14.782   0.036  1.00  0.00    -0.323 N 
HETATM   13  H   UNL     1      43.009 -14.799   0.091  1.00  0.00     0.169 HD
HETATM   14  O   UNL     1      40.072 -15.185   1.289  1.00  0.00    -0.267 OA
BRANCH  12  15
HETATM   15  C   UNL     1      41.450 -14.305  -1.179  1.00  0.00     0.040 A 
HETATM   16  C   UNL     1      41.433 -12.952  -1.536  1.00  0.00     0.066 A 
HETATM   17  C   UNL     1      40.880 -12.543  -2.751  1.00  0.00     0.073 A 
HETATM   18  C   UNL     1      40.363 -13.501  -3.623  1.00  0.00     0.073 A 
HETATM   19  C   UNL     1      40.391 -14.855  -3.292  1.00  0.00     0.073 A 
HETATM   20  C   UNL     1      40.905 -15.253  -2.056  1.00  0.00     0.066 A 
BRANCH  17  21
HETATM   21  O   UNL     1      40.790 -11.252  -3.197  1.00  0.00    -0.356 OA
HETATM   22  C   UNL     1      40.361 -11.063  -4.540  1.00  0.00     0.210 C 
ENDBRANCH  17  21
BRANCH  19  23
HETATM   23  O   UNL     1      39.873 -15.692  -4.243  1.00  0.00    -0.356 OA
HETATM   24  C   UNL     1      38.458 -15.833  -4.252  1.00  0.00     0.210 C 
ENDBRANCH  19  23
ENDBRANCH  12  15
ENDBRANCH   5  11
BRANCH   1  25
HETATM   25  C   UNL     1      43.799 -18.793   3.392  1.00  0.00    -0.007 A 
HETATM   26  C   UNL     1      43.705 -19.666   2.291  1.00  0.00     0.014 A 
HETATM   27  C   UNL     1      44.080 -21.012   2.386  1.00  0.00     0.007 A 
HETATM   28  C   UNL     1      44.552 -21.532   3.592  1.00  0.00    -0.062 A 
HETATM   29  C   UNL     1      44.938 -22.976   3.710  1.00  0.00     0.048 C 
HETATM   30  C   UNL     1      44.667 -20.680   4.693  1.00  0.00     0.007 A 
HETATM   31  C   UNL     1      44.293 -19.334   4.592  1.00  0.00     0.014 A 
ENDBRANCH   1  25
TORSDOF 5
ENDMDL
MODEL 2
REMARK VINA RESULT:      -8.9      0.498      2.136
REMARK  5 active torsions:
REMARK  status: ('A' for Active; 'I' for Inactive)
REMARK    1  A    between atoms: C_5  and  C_6 
REMARK    2  A    between atoms: C_10  and  C_11 
REMARK       I    between atoms: C_11  and  N_12 
REMARK    3  A    between atoms: N_12  and  C_13 
REMARK    4  A    between atoms: C_15  and  O_16 
REMARK    5  A    between atoms: C_19  and  O_20 
ROOT
HETATM    1  C   UNL     1      43.350 -17.424   3.507  1.00  0.00     0.068 A 
HETATM    2  N   UNL     1      43.606 -16.601   4.553  1.00  0.00    -0.248 NA
HETATM    3  C   UNL     1      43.079 -15.367   4.583  1.00  0.00     0.068 A 
HETATM    4  C   UNL     1      42.274 -14.843   3.553  1.00  0.00     0.008 A 
HETATM    5  C   UNL     1      42.109 -15.678   2.423  1.00  0.00     0.047 A 
HETATM    6  C   UNL     1      42.641 -16.971   2.408  1.00  0.00     0.050 A 
HETATM    7  C   UNL     1      43.324 -14.591   5.708  1.00  0.00     0.032 A 
HETATM    8  C   UNL     1      42.768 -13.321   5.869  1.00  0.00     0.002 A 
HETATM    9  C   UNL     1      41.927 -12.813   4.891  1.00  0.00     0.001 A 
HETATM   10  C   UNL     1      41.673 -13.569   3.746  1.00  0.00     0.015 A 
ENDROOT
BRANCH   5  11
HETATM   11  C   UNL     1      41.320 -15.312   1.215  1.00  0.00     0.257 C 
HETATM   12  N   UNL     1      42.049 -14.961   0.093  1.00  0.00    -0.323 N 
HETATM   13  H   UNL     1      43.057 -14.951   0.176  1.00  0.00     0.169 HD
HETATM   14  O   UNL     1      40.098 -15.371   1.307  1.00  0.00    -0.267 OA
BRANCH  12  15
HETATM   15  C   UNL     1      41.523 -14.539  -1.152  1.00  0.00     0.040 A 
HETATM   16  C   UNL     1      40.937 -15.414  -2.074  1.00  0.00     0.066 A 
HETATM   17  C   UNL     1      40.431 -14.938  -3.285  1.00  0.00     0.073 A 
HETATM   18  C   UNL     1      40.494 -13.572  -3.562  1.00  0.00     0.073 A 
HETATM   19  C   UNL     1      41.057 -12.684  -2.646  1.00  0.00     0.073 A 
HETATM   20  C   UNL     1      41.600 -13.173  -1.456  1.00  0.00     0.066 A 
BRANCH  17  21
HETATM   21  O   UNL     1      39.855 -15.697  -4.268  1.00  0.00    -0.356 OA
HETATM   22  C   UNL     1      38.440 -15.835  -4.229  1.00  0.00     0.210 C 
ENDBRANCH  17  21
BRANCH  19  23
HETATM   23  O   UNL     1      41.036 -11.371  -3.029  1.00  0.00    -0.356 OA
HETATM   24  C   UNL     1      42.300 -10.724  -3.122  1.00  0.00     0.210 C 
ENDBRANCH  19  23
ENDBRANCH  12  15
ENDBRANCH   5  11
BRANCH   1  25
HETATM   25  C   UNL     1      43.816 -18.822   3.652  1.00  0.00    -0.007 A 
HETATM   26  C   UNL     1      43.857 -19.712   2.562  1.00  0.00     0.014 A 
HETATM   27  C   UNL     1      44.243 -21.049   2.718  1.00  0.00     0.007 A 
HETATM   28  C   UNL     1      44.592 -21.543   3.976  1.00  0.00    -0.062 A 
HETATM   29  C   UNL     1      44.989 -22.978   4.158  1.00  0.00     0.048 C 
HETATM   30  C   UNL     1      44.573 -20.674   5.069  1.00  0.00     0.007 A 
HETATM   31  C   UNL     1      44.188 -19.336   4.907  1.00  0.00     0.014 A 
ENDBRANCH   1  25
TORSDOF 5
ENDMDL
MODEL 3
REMARK VINA RESULT:      -8.9      1.766      5.189
REMARK  5 active torsions:
REMARK  status: ('A' for Active; 'I' for Inactive)
REMARK    1  A    between atoms: C_5  and  C_6 
REMARK    2  A    between atoms: C_10  and  C_11 
REMARK       I    between atoms: C_11  and  N_12 
REMARK    3  A    between atoms: N_12  and  C_13 
REMARK    4  A    between atoms: C_15  and  O_16 
REMARK    5  A    between atoms: C_19  and  O_20 
ROOT
HETATM    1  C   UNL     1      43.213 -16.624   4.571  1.00  0.00     0.068 A 
HETATM    2  N   UNL     1      43.853 -17.807   4.742  1.00  0.00    -0.248 NA
HETATM    3  C   UNL     1      43.772 -18.759   3.799  1.00  0.00     0.068 A 
HETATM    4  C   UNL     1      43.019 -18.616   2.618  1.00  0.00     0.008 A 
HETATM    5  C   UNL     1      42.273 -17.419   2.510  1.00  0.00     0.047 A 
HETATM    6  C   UNL     1      42.381 -16.422   3.485  1.00  0.00     0.050 A 
HETATM    7  C   UNL     1      44.498 -19.925   3.999  1.00  0.00     0.032 A 
HETATM    8  C   UNL     1      44.536 -20.948   3.050  1.00  0.00     0.002 A 
HETATM    9  C   UNL     1      43.847 -20.799   1.857  1.00  0.00     0.001 A 
HETATM   10  C   UNL     1      43.101 -19.641   1.636  1.00  0.00     0.015 A 
ENDROOT
BRANCH   5  11
HETATM   11  C   UNL     1      41.393 -17.077   1.359  1.00  0.00     0.257 C 
HETATM   12  N   UNL     1      41.610 -15.845   0.770  1.00  0.00    -0.323 N 
HETATM   13  H   UNL     1      42.325 -15.254   1.173  1.00  0.00     0.169 HD
HETATM   14  O   UNL     1      40.569 -17.919   1.017  1.00  0.00    -0.267 OA
BRANCH  12  15
HETATM   15  C   UNL     1      40.877 -15.288  -0.306  1.00  0.00     0.040 A 
HETATM   16  C   UNL     1      40.948 -15.772  -1.617  1.00  0.00     0.066 A 
HETATM   17  C   UNL     1      40.198 -15.183  -2.636  1.00  0.00     0.073 A 
HETATM   18  C   UNL     1      39.353 -14.116  -2.332  1.00  0.00     0.073 A 
HETATM   19  C   UNL     1      39.254 -13.634  -1.027  1.00  0.00     0.073 A 
HETATM   20  C   UNL     1      40.041 -14.199  -0.021  1.00  0.00     0.066 A 
BRANCH  17  21
HETATM   21  O   UNL     1      40.200 -15.557  -3.953  1.00  0.00    -0.356 OA
HETATM   22  C   UNL     1      39.010 -16.153  -4.455  1.00  0.00     0.210 C 
ENDBRANCH  17  21
BRANCH  19  23
HETATM   23  O   UNL     1      38.373 -12.600  -0.860  1.00  0.00    -0.356 OA
HETATM   24  C   UNL     1      37.467 -12.718   0.231  1.00  0.00     0.210 C 
ENDBRANCH  19  23
ENDBRANCH  12  15
ENDBRANCH   5  11
BRANCH   1  25
HETATM   25  C   UNL     1      43.514 -15.574   5.570  1.00  0.00    -0.007 A 
HETATM   26  C   UNL     1      43.090 -14.242   5.403  1.00  0.00     0.014 A 
HETATM   27  C   UNL     1      43.429 -13.241   6.322  1.00  0.00     0.007 A 
HETATM   28  C   UNL     1      44.214 -13.539   7.437  1.00  0.00    -0.062 A 
HETATM   29  C   UNL     1      44.598 -12.472   8.417  1.00  0.00     0.048 C 
HETATM   30  C   UNL     1      44.633 -14.858   7.630  1.00  0.00     0.007 A 
HETATM   31  C   UNL     1      44.290 -15.856   6.709  1.00  0.00     0.014 A 
ENDBRANCH   1  25
TORSDOF 5
ENDMDL
MODEL 4
REMARK VINA RESULT:      -8.7      3.181      7.466
REMARK  5 active torsions:
REMARK  status: ('A' for Active; 'I' for Inactive)
REMARK    1  A    between atoms: C_5  and  C_6 
REMARK    2  A    between atoms: C_10  and  C_11 
REMARK       I    between atoms: C_11  and  N_12 
REMARK    3  A    between atoms: N_12  and  C_13 
REMARK    4  A    between atoms: C_15  and  O_16 
REMARK    5  A    between atoms: C_19  and  O_20 
ROOT
HETATM    1  C   UNL     1      43.131 -17.717   2.590  1.00  0.00     0.068 A 
HETATM    2  N   UNL     1      42.415 -17.555   1.451  1.00  0.00    -0.248 NA
HETATM    3  C   UNL     1      42.051 -16.325   1.053  1.00  0.00     0.068 A 
HETATM    4  C   UNL     1      42.351 -15.156   1.779  1.00  0.00     0.008 A 
HETATM    5  C   UNL     1      43.004 -15.357   3.018  1.00  0.00     0.047 A 
HETATM    6  C   UNL     1      43.400 -16.639   3.415  1.00  0.00     0.050 A 
HETATM    7  C   UNL     1      41.373 -16.214  -0.153  1.00  0.00     0.032 A 
HETATM    8  C   UNL     1      41.010 -14.978  -0.690  1.00  0.00     0.002 A 
HETATM    9  C   UNL     1      41.347 -13.815  -0.016  1.00  0.00     0.001 A 
HETATM   10  C   UNL     1      42.020 -13.899   1.203  1.00  0.00     0.015 A 
ENDROOT
BRANCH   5  11
HETATM   11  C   UNL     1      43.389 -14.265   3.952  1.00  0.00     0.257 C 
HETATM   12  N   UNL     1      42.900 -14.364   5.242  1.00  0.00    -0.323 N 
HETATM   13  H   UNL     1      42.297 -15.148   5.454  1.00  0.00     0.169 HD
HETATM   14  O   UNL     1      44.121 -13.386   3.511  1.00  0.00    -0.267 OA
BRANCH  12  15
HETATM   15  C   UNL     1      43.098 -13.431   6.289  1.00  0.00     0.040 A 
HETATM   16  C   UNL     1      42.261 -12.330   6.506  1.00  0.00     0.066 A 
HETATM   17  C   UNL     1      42.506 -11.446   7.558  1.00  0.00     0.073 A 
HETATM   18  C   UNL     1      43.584 -11.682   8.411  1.00  0.00     0.073 A 
HETATM   19  C   UNL     1      44.416 -12.784   8.221  1.00  0.00     0.073 A 
HETATM   20  C   UNL     1      44.192 -13.640   7.141  1.00  0.00     0.066 A 
BRANCH  17  21
HETATM   21  O   UNL     1      41.771 -10.330   7.856  1.00  0.00    -0.356 OA
HETATM   22  C   UNL     1      41.840  -9.852   9.194  1.00  0.00     0.210 C 
ENDBRANCH  17  21
BRANCH  19  23
HETATM   23  O   UNL     1      45.422 -12.913   9.140  1.00  0.00    -0.356 OA
HETATM   24  C   UNL     1      45.391 -12.006  10.236  1.00  0.00     0.210 C 
ENDBRANCH  19  23
ENDBRANCH  12  15
ENDBRANCH   5  11
BRANCH   1  25
HETATM   25  C   UNL     1      43.643 -19.082   2.845  1.00  0.00    -0.007 A 
HETATM   26  C   UNL     1      43.491 -20.123   1.910  1.00  0.00     0.014 A 
HETATM   27  C   UNL     1      43.925 -21.426   2.182  1.00  0.00     0.007 A 
HETATM   28  C   UNL     1      44.519 -21.733   3.407  1.00  0.00    -0.062 A 
HETATM   29  C   UNL     1      44.971 -23.129   3.716  1.00  0.00     0.048 C 
HETATM   30  C   UNL     1      44.694 -20.713   4.344  1.00  0.00     0.007 A 
HETATM   31  C   UNL     1      44.260 -19.410   4.066  1.00  0.00     0.014 A 
ENDBRANCH   1  25
TORSDOF 5
ENDMDL
MODEL 5
REMARK VINA RESULT:      -8.5      1.565      4.875
REMARK  5 active torsions:
REMARK  status: ('A' for Active; 'I' for Inactive)
REMARK    1  A    between atoms: C_5  and  C_6 
REMARK    2  A    between atoms: C_10  and  C_11 
REMARK       I    between atoms: C_11  and  N_12 
REMARK    3  A    between atoms: N_12  and  C_13 
REMARK    4  A    between atoms: C_15  and  O_16 
REMARK    5  A    between atoms: C_19  and  O_20 
ROOT
HETATM    1  C   UNL     1      43.120 -16.193   4.810  1.00  0.00     0.068 A 
HETATM    2  N   UNL     1      43.769 -17.376   4.940  1.00  0.00    -0.248 NA
HETATM    3  C   UNL     1      43.658 -18.314   3.985  1.00  0.00     0.068 A 
HETATM    4  C   UNL     1      42.863 -18.155   2.834  1.00  0.00     0.008 A 
HETATM    5  C   UNL     1      42.109 -16.960   2.771  1.00  0.00     0.047 A 
HETATM    6  C   UNL     1      42.248 -15.978   3.757  1.00  0.00     0.050 A 
HETATM    7  C   UNL     1      44.394 -19.480   4.141  1.00  0.00     0.032 A 
HETATM    8  C   UNL     1      44.402 -20.487   3.175  1.00  0.00     0.002 A 
HETATM    9  C   UNL     1      43.670 -20.323   2.010  1.00  0.00     0.001 A 
HETATM   10  C   UNL     1      42.914 -19.164   1.833  1.00  0.00     0.015 A 
ENDROOT
BRANCH   5  11
HETATM   11  C   UNL     1      41.188 -16.603   1.658  1.00  0.00     0.257 C 
HETATM   12  N   UNL     1      41.596 -15.568   0.835  1.00  0.00    -0.323 N 
HETATM   13  H   UNL     1      42.470 -15.111   1.060  1.00  0.00     0.169 HD
HETATM   14  O   UNL     1      40.162 -17.265   1.549  1.00  0.00    -0.267 OA
BRANCH  12  15
HETATM   15  C   UNL     1      40.874 -15.030  -0.257  1.00  0.00     0.040 A 
HETATM   16  C   UNL     1      40.129 -13.848  -0.177  1.00  0.00     0.066 A 
HETATM   17  C   UNL     1      39.439 -13.364  -1.291  1.00  0.00     0.073 A 
HETATM   18  C   UNL     1      39.518 -14.059  -2.497  1.00  0.00     0.073 A 
HETATM   19  C   UNL     1      40.272 -15.228  -2.600  1.00  0.00     0.073 A 
HETATM   20  C   UNL     1      40.923 -15.730  -1.471  1.00  0.00     0.066 A 
BRANCH  17  21
HETATM   21  O   UNL     1      38.667 -12.235  -1.327  1.00  0.00    -0.356 OA
HETATM   22  C   UNL     1      38.447 -11.646  -2.604  1.00  0.00     0.210 C 
ENDBRANCH  17  21
BRANCH  19  23
HETATM   23  O   UNL     1      40.284 -15.799  -3.843  1.00  0.00    -0.356 OA
HETATM   24  C   UNL     1      39.018 -16.164  -4.378  1.00  0.00     0.210 C 
ENDBRANCH  19  23
ENDBRANCH  12  15
ENDBRANCH   5  11
BRANCH   1  25
HETATM   25  C   UNL     1      43.452 -15.158   5.815  1.00  0.00    -0.007 A 
HETATM   26  C   UNL     1      42.883 -13.871   5.776  1.00  0.00     0.014 A 
HETATM   27  C   UNL     1      43.246 -12.877   6.693  1.00  0.00     0.007 A 
HETATM   28  C   UNL     1      44.203 -13.137   7.676  1.00  0.00    -0.062 A 
HETATM   29  C   UNL     1      44.613 -12.075   8.652  1.00  0.00     0.048 C 
HETATM   30  C   UNL     1      44.770 -14.412   7.743  1.00  0.00     0.007 A 
HETATM   31  C   UNL     1      44.400 -15.403   6.824  1.00  0.00     0.014 A 
ENDBRANCH   1  25
TORSDOF 5
ENDMDL
MODEL 6
REMARK VINA RESULT:      -8.5      3.163      6.831
REMARK  5 active torsions:
REMARK  status: ('A' for Active; 'I' for Inactive)
REMARK    1  A    between atoms: C_5  and  C_6 
REMARK    2  A    between atoms: C_10  and  C_11 
REMARK       I    between atoms: C_11  and  N_12 
REMARK    3  A    between atoms: N_12  and  C_13 
REMARK    4  A    between atoms: C_15  and  O_16 
REMARK    5  A    between atoms: C_19  and  O_20 
ROOT
HETATM    1  C   UNL     1      42.998 -17.449   3.121  1.00  0.00     0.068 A 
HETATM    2  N   UNL     1      42.486 -17.503   1.867  1.00  0.00    -0.248 NA
HETATM    3  C   UNL     1      42.039 -16.385   1.273  1.00  0.00     0.068 A 
HETATM    4  C   UNL     1      42.041 -15.123   1.897  1.00  0.00     0.008 A 
HETATM    5  C   UNL     1      42.478 -15.108   3.242  1.00  0.00     0.047 A 
HETATM    6  C   UNL     1      42.964 -16.272   3.847  1.00  0.00     0.050 A 
HETATM    7  C   UNL     1      41.583 -16.491  -0.034  1.00  0.00     0.032 A 
HETATM    8  C   UNL     1      41.161 -15.379  -0.765  1.00  0.00     0.002 A 
HETATM    9  C   UNL     1      41.211 -14.121  -0.185  1.00  0.00     0.001 A 
HETATM   10  C   UNL     1      41.655 -13.989   1.131  1.00  0.00     0.015 A 
ENDROOT
BRANCH   5  11
HETATM   11  C   UNL     1      42.537 -13.889   4.093  1.00  0.00     0.257 C 
HETATM   12  N   UNL     1      41.390 -13.585   4.805  1.00  0.00    -0.323 N 
HETATM   13  H   UNL     1      40.589 -14.190   4.679  1.00  0.00     0.169 HD
HETATM   14  O   UNL     1      43.596 -13.270   4.111  1.00  0.00    -0.267 OA
BRANCH  12  15
HETATM   15  C   UNL     1      41.196 -12.461   5.644  1.00  0.00     0.040 A 
HETATM   16  C   UNL     1      42.112 -12.068   6.626  1.00  0.00     0.066 A 
HETATM   17  C   UNL     1      41.867 -10.947   7.422  1.00  0.00     0.073 A 
HETATM   18  C   UNL     1      40.705 -10.204   7.214  1.00  0.00     0.073 A 
HETATM   19  C   UNL     1      39.791 -10.570   6.227  1.00  0.00     0.073 A 
HETATM   20  C   UNL     1      40.021 -11.717   5.464  1.00  0.00     0.066 A 
BRANCH  17  21
HETATM   21  O   UNL     1      42.677 -10.480   8.421  1.00  0.00    -0.356 OA
HETATM   22  C   UNL     1      43.656 -11.378   8.929  1.00  0.00     0.210 C 
ENDBRANCH  17  21
BRANCH  19  23
HETATM   23  O   UNL     1      38.706  -9.744   6.111  1.00  0.00    -0.356 OA
HETATM   24  C   UNL     1      38.896  -8.397   6.524  1.00  0.00     0.210 C 
ENDBRANCH  19  23
ENDBRANCH  12  15
ENDBRANCH   5  11
BRANCH   1  25
HETATM   25  C   UNL     1      43.634 -18.691   3.616  1.00  0.00    -0.007 A 
HETATM   26  C   UNL     1      44.009 -19.734   2.748  1.00  0.00     0.014 A 
HETATM   27  C   UNL     1      44.556 -20.930   3.229  1.00  0.00     0.007 A 
HETATM   28  C   UNL     1      44.736 -21.126   4.599  1.00  0.00    -0.062 A 
HETATM   29  C   UNL     1      45.304 -22.410   5.126  1.00  0.00     0.048 C 
HETATM   30  C   UNL     1      44.385 -20.098   5.477  1.00  0.00     0.007 A 
HETATM   31  C   UNL     1      43.840 -18.902   4.991  1.00  0.00     0.014 A 
ENDBRANCH   1  25
TORSDOF 5
ENDMDL
MODEL 7
REMARK VINA RESULT:      -8.4      3.172      6.902
REMARK  5 active torsions:
REMARK  status: ('A' for Active; 'I' for Inactive)
REMARK    1  A    between atoms: C_5  and  C_6 
REMARK    2  A    between atoms: C_10  and  C_11 
REMARK       I    between atoms: C_11  and  N_12 
REMARK    3  A    between atoms: N_12  and  C_13 
REMARK    4  A    between atoms: C_15  and  O_16 
REMARK    5  A    between atoms: C_19  and  O_20 
ROOT
HETATM    1  C   UNL     1      42.953 -17.419   3.083  1.00  0.00     0.068 A 
HETATM    2  N   UNL     1      42.453 -17.486   1.825  1.00  0.00    -0.248 NA
HETATM    3  C   UNL     1      42.003 -16.375   1.220  1.00  0.00     0.068 A 
HETATM    4  C   UNL     1      41.990 -15.109   1.836  1.00  0.00     0.008 A 
HETATM    5  C   UNL     1      42.414 -15.082   3.185  1.00  0.00     0.047 A 
HETATM    6  C   UNL     1      42.904 -16.238   3.801  1.00  0.00     0.050 A 
HETATM    7  C   UNL     1      41.561 -16.493  -0.091  1.00  0.00     0.032 A 
HETATM    8  C   UNL     1      41.136 -15.389  -0.832  1.00  0.00     0.002 A 
HETATM    9  C   UNL     1      41.171 -14.127  -0.260  1.00  0.00     0.001 A 
HETATM   10  C   UNL     1      41.602 -13.984   1.059  1.00  0.00     0.015 A 
ENDROOT
BRANCH   5  11
HETATM   11  C   UNL     1      42.455 -13.857   4.029  1.00  0.00     0.257 C 
HETATM   12  N   UNL     1      41.294 -13.549   4.715  1.00  0.00    -0.323 N 
HETATM   13  H   UNL     1      40.496 -14.155   4.577  1.00  0.00     0.169 HD
HETATM   14  O   UNL     1      43.514 -13.237   4.063  1.00  0.00    -0.267 OA
BRANCH  12  15
HETATM   15  C   UNL     1      41.083 -12.419   5.543  1.00  0.00     0.040 A 
HETATM   16  C   UNL     1      39.941 -11.615   5.467  1.00  0.00     0.066 A 
HETATM   17  C   UNL     1      39.787 -10.515   6.313  1.00  0.00     0.073 A 
HETATM   18  C   UNL     1      40.776 -10.236   7.256  1.00  0.00     0.073 A 
HETATM   19  C   UNL     1      41.911 -11.039   7.358  1.00  0.00     0.073 A 
HETATM   20  C   UNL     1      42.079 -12.111   6.479  1.00  0.00     0.066 A 
BRANCH  17  21
HETATM   21  O   UNL     1      38.727  -9.649   6.319  1.00  0.00    -0.356 OA
HETATM   22  C   UNL     1      38.771  -8.583   7.260  1.00  0.00     0.210 C 
ENDBRANCH  17  21
BRANCH  19  23
HETATM   23  O   UNL     1      42.793 -10.670   8.338  1.00  0.00    -0.356 OA
HETATM   24  C   UNL     1      42.221 -10.264   9.576  1.00  0.00     0.210 C 
ENDBRANCH  19  23
ENDBRANCH  12  15
ENDBRANCH   5  11
BRANCH   1  25
HETATM   25  C   UNL     1      43.595 -18.653   3.592  1.00  0.00    -0.007 A 
HETATM   26  C   UNL     1      43.998 -19.693   2.733  1.00  0.00     0.014 A 
HETATM   27  C   UNL     1      44.550 -20.882   3.226  1.00  0.00     0.007 A 
HETATM   28  C   UNL     1      44.707 -21.073   4.600  1.00  0.00    -0.062 A 
HETATM   29  C   UNL     1      45.280 -22.350   5.139  1.00  0.00     0.048 C 
HETATM   30  C   UNL     1      44.328 -20.048   5.469  1.00  0.00     0.007 A 
HETATM   31  C   UNL     1      43.779 -18.860   4.971  1.00  0.00     0.014 A 
ENDBRANCH   1  25
TORSDOF 5
ENDMDL
MODEL 8
REMARK VINA RESULT:      -8.3      3.237      6.684
REMARK  5 active torsions:
REMARK  status: ('A' for Active; 'I' for Inactive)
REMARK    1  A    between atoms: C_5  and  C_6 
REMARK    2  A    between atoms: C_10  and  C_11 
REMARK       I    between atoms: C_11  and  N_12 
REMARK    3  A    between atoms: N_12  and  C_13 
REMARK    4  A    between atoms: C_15  and  O_16 
REMARK    5  A    between atoms: C_19  and  O_20 
ROOT
HETATM    1  C   UNL     1      42.938 -17.366   3.124  1.00  0.00     0.068 A 
HETATM    2  N   UNL     1      42.448 -17.406   1.860  1.00  0.00    -0.248 NA
HETATM    3  C   UNL     1      42.000 -16.283   1.276  1.00  0.00     0.068 A 
HETATM    4  C   UNL     1      41.979 -15.031   1.919  1.00  0.00     0.008 A 
HETATM    5  C   UNL     1      42.392 -15.032   3.272  1.00  0.00     0.047 A 
HETATM    6  C   UNL     1      42.880 -16.200   3.867  1.00  0.00     0.050 A 
HETATM    7  C   UNL     1      41.568 -16.373  -0.041  1.00  0.00     0.032 A 
HETATM    8  C   UNL     1      41.147 -15.254  -0.761  1.00  0.00     0.002 A 
HETATM    9  C   UNL     1      41.173 -14.005  -0.161  1.00  0.00     0.001 A 
HETATM   10  C   UNL     1      41.594 -13.890   1.164  1.00  0.00     0.015 A 
ENDROOT
BRANCH   5  11
HETATM   11  C   UNL     1      42.423 -13.826   4.142  1.00  0.00     0.257 C 
HETATM   12  N   UNL     1      41.201 -13.378   4.610  1.00  0.00    -0.323 N 
HETATM   13  H   UNL     1      40.375 -13.879   4.310  1.00  0.00     0.169 HD
HETATM   14  O   UNL     1      43.524 -13.343   4.389  1.00  0.00    -0.267 OA
BRANCH  12  15
HETATM   15  C   UNL     1      40.977 -12.235   5.415  1.00  0.00     0.040 A 
HETATM   16  C   UNL     1      41.605 -11.004   5.194  1.00  0.00     0.066 A 
HETATM   17  C   UNL     1      41.342  -9.911   6.021  1.00  0.00     0.073 A 
HETATM   18  C   UNL     1      40.424 -10.048   7.062  1.00  0.00     0.073 A 
HETATM   19  C   UNL     1      39.774 -11.262   7.285  1.00  0.00     0.073 A 
HETATM   20  C   UNL     1      40.075 -12.364   6.481  1.00  0.00     0.066 A 
BRANCH  17  21
HETATM   21  O   UNL     1      41.907  -8.669   5.914  1.00  0.00    -0.356 OA
HETATM   22  C   UNL     1      41.029  -7.552   5.995  1.00  0.00     0.210 C 
ENDBRANCH  17  21
BRANCH  19  23
HETATM   23  O   UNL     1      38.882 -11.256   8.323  1.00  0.00    -0.356 OA
HETATM   24  C   UNL     1      38.949 -10.140   9.202  1.00  0.00     0.210 C 
ENDBRANCH  19  23
ENDBRANCH  12  15
ENDBRANCH   5  11
BRANCH   1  25
HETATM   25  C   UNL     1      43.579 -18.608   3.611  1.00  0.00    -0.007 A 
HETATM   26  C   UNL     1      44.004 -19.622   2.731  1.00  0.00     0.014 A 
HETATM   27  C   UNL     1      44.556 -20.820   3.202  1.00  0.00     0.007 A 
HETATM   28  C   UNL     1      44.689 -21.048   4.572  1.00  0.00    -0.062 A 
HETATM   29  C   UNL     1      45.261 -22.335   5.088  1.00  0.00     0.048 C 
HETATM   30  C   UNL     1      44.288 -20.049   5.462  1.00  0.00     0.007 A 
HETATM   31  C   UNL     1      43.739 -18.851   4.987  1.00  0.00     0.014 A 
ENDBRANCH   1  25
TORSDOF 5
ENDMDL
MODEL 9
REMARK VINA RESULT:      -8.3      2.762      8.471
REMARK  5 active torsions:
REMARK  status: ('A' for Active; 'I' for Inactive)
REMARK    1  A    between atoms: C_5  and  C_6 
REMARK    2  A    between atoms: C_10  and  C_11 
REMARK       I    between atoms: C_11  and  N_12 
REMARK    3  A    between atoms: N_12  and  C_13 
REMARK    4  A    between atoms: C_15  and  O_16 
REMARK    5  A    between atoms: C_19  and  O_20 
ROOT
HETATM    1  C   UNL     1      41.024 -13.450   0.645  1.00  0.00     0.068 A 
HETATM    2  N   UNL     1      40.373 -12.572   1.448  1.00  0.00    -0.248 NA
HETATM    3  C   UNL     1      40.092 -12.902   2.718  1.00  0.00     0.068 A 
HETATM    4  C   UNL     1      40.415 -14.150   3.284  1.00  0.00     0.008 A 
HETATM    5  C   UNL     1      40.996 -15.089   2.399  1.00  0.00     0.047 A 
HETATM    6  C   UNL     1      41.307 -14.731   1.084  1.00  0.00     0.050 A 
HETATM    7  C   UNL     1      39.480 -11.940   3.511  1.00  0.00     0.032 A 
HETATM    8  C   UNL     1      39.206 -12.157   4.862  1.00  0.00     0.002 A 
HETATM    9  C   UNL     1      39.569 -13.360   5.449  1.00  0.00     0.001 A 
HETATM   10  C   UNL     1      40.177 -14.346   4.672  1.00  0.00     0.015 A 
ENDROOT
BRANCH   5  11
HETATM   11  C   UNL     1      41.391 -16.472   2.782  1.00  0.00     0.257 C 
HETATM   12  N   UNL     1      42.665 -16.622   3.298  1.00  0.00    -0.323 N 
HETATM   13  H   UNL     1      43.246 -15.796   3.354  1.00  0.00     0.169 HD
HETATM   14  O   UNL     1      40.552 -17.355   2.630  1.00  0.00    -0.267 OA
BRANCH  12  15
HETATM   15  C   UNL     1      43.273 -17.839   3.692  1.00  0.00     0.040 A 
HETATM   16  C   UNL     1      43.832 -18.748   2.786  1.00  0.00     0.066 A 
HETATM   17  C   UNL     1      44.421 -19.931   3.235  1.00  0.00     0.073 A 
HETATM   18  C   UNL     1      44.471 -20.192   4.604  1.00  0.00     0.073 A 
HETATM   19  C   UNL     1      43.937 -19.288   5.522  1.00  0.00     0.073 A 
HETATM   20  C   UNL     1      43.309 -18.128   5.063  1.00  0.00     0.066 A 
BRANCH  17  21
HETATM   21  O   UNL     1      44.981 -20.899   2.445  1.00  0.00    -0.356 OA
HETATM   22  C   UNL     1      44.092 -21.838   1.851  1.00  0.00     0.210 C 
ENDBRANCH  17  21
BRANCH  19  23
HETATM   23  O   UNL     1      44.070 -19.652   6.834  1.00  0.00    -0.356 OA
HETATM   24  C   UNL     1      44.027 -18.596   7.786  1.00  0.00     0.210 C 
ENDBRANCH  19  23
ENDBRANCH  12  15
ENDBRANCH   5  11
BRANCH   1  25
HETATM   25  C   UNL     1      41.453 -12.928  -0.672  1.00  0.00    -0.007 A 
HETATM   26  C   UNL     1      42.428 -11.919  -0.793  1.00  0.00     0.014 A 
HETATM   27  C   UNL     1      42.787 -11.389  -2.039  1.00  0.00     0.007 A 
HETATM   28  C   UNL     1      42.172 -11.846  -3.206  1.00  0.00    -0.062 A 
HETATM   29  C   UNL     1      42.536 -11.272  -4.543  1.00  0.00     0.048 C 
HETATM   30  C   UNL     1      41.214 -12.857  -3.111  1.00  0.00     0.007 A 
HETATM   31  C   UNL     1      40.860 -13.386  -1.862  1.00  0.00     0.014 A 
ENDBRANCH   1  25
TORSDOF 5
ENDMDL
MODEL 10
REMARK VINA RESULT:      -8.0      4.146      8.042
REMARK  5 active torsions:
REMARK  status: ('A' for Active; 'I' for Inactive)
REMARK    1  A    between atoms: C_5  and  C_6 
REMARK    2  A    between atoms: C_10  and  C_11 
REMARK       I    between atoms: C_11  and  N_12 
REMARK    3  A    between atoms: N_12  and  C_13 
REMARK    4  A    between atoms: C_15  and  O_16 
REMARK    5  A    between atoms: C_19  and  O_20 
ROOT
HETATM    1  C   UNL     1      41.074 -15.909   3.134  1.00  0.00     0.068 A 
HETATM    2  N   UNL     1      40.027 -15.865   2.275  1.00  0.00    -0.248 NA
HETATM    3  C   UNL     1      39.331 -14.728   2.119  1.00  0.00     0.068 A 
HETATM    4  C   UNL     1      39.609 -13.546   2.834  1.00  0.00     0.008 A 
HETATM    5  C   UNL     1      40.634 -13.645   3.803  1.00  0.00     0.047 A 
HETATM    6  C   UNL     1      41.370 -14.826   3.943  1.00  0.00     0.050 A 
HETATM    7  C   UNL     1      38.308 -14.723   1.180  1.00  0.00     0.032 A 
HETATM    8  C   UNL     1      37.569 -13.575   0.893  1.00  0.00     0.002 A 
HETATM    9  C   UNL     1      37.867 -12.389   1.546  1.00  0.00     0.001 A 
HETATM   10  C   UNL     1      38.883 -12.369   2.502  1.00  0.00     0.015 A 
ENDROOT
BRANCH   5  11
HETATM   11  C   UNL     1      41.070 -12.527   4.683  1.00  0.00     0.257 C 
HETATM   12  N   UNL     1      40.434 -12.430   5.907  1.00  0.00    -0.323 N 
HETATM   13  H   UNL     1      39.704 -13.101   6.108  1.00  0.00     0.169 HD
HETATM   14  O   UNL     1      41.967 -11.803   4.263  1.00  0.00    -0.267 OA
BRANCH  12  15
HETATM   15  C   UNL     1      40.650 -11.432   6.889  1.00  0.00     0.040 A 
HETATM   16  C   UNL     1      39.667 -10.519   7.286  1.00  0.00     0.066 A 
HETATM   17  C   UNL     1      39.939  -9.559   8.263  1.00  0.00     0.073 A 
HETATM   18  C   UNL     1      41.199  -9.532   8.860  1.00  0.00     0.073 A 
HETATM   19  C   UNL     1      42.184 -10.446   8.490  1.00  0.00     0.073 A 
HETATM   20  C   UNL     1      41.919 -11.375   7.481  1.00  0.00     0.066 A 
BRANCH  17  21
HETATM   21  O   UNL     1      39.066  -8.608   8.717  1.00  0.00    -0.356 OA
HETATM   22  C   UNL     1      38.564  -8.772  10.038  1.00  0.00     0.210 C 
ENDBRANCH  17  21
BRANCH  19  23
HETATM   23  O   UNL     1      43.367 -10.326   9.168  1.00  0.00    -0.356 OA
HETATM   24  C   UNL     1      43.671 -11.366  10.089  1.00  0.00     0.210 C 
ENDBRANCH  19  23
ENDBRANCH  12  15
ENDBRANCH   5  11
BRANCH   1  25
HETATM   25  C   UNL     1      41.892 -17.143   3.098  1.00  0.00    -0.007 A 
HETATM   26  C   UNL     1      42.576 -17.619   4.232  1.00  0.00     0.014 A 
HETATM   27  C   UNL     1      43.395 -18.753   4.176  1.00  0.00     0.007 A 
HETATM   28  C   UNL     1      43.565 -19.445   2.975  1.00  0.00    -0.062 A 
HETATM   29  C   UNL     1      44.453 -20.650   2.899  1.00  0.00     0.048 C 
HETATM   30  C   UNL     1      42.883 -18.999   1.840  1.00  0.00     0.007 A 
HETATM   31  C   UNL     1      42.063 -17.865   1.903  1.00  0.00     0.014 A 
ENDBRANCH   1  25
TORSDOF 5
ENDMDL
