MODEL 1
REMARK VINA RESULT:      -8.6      0.000      0.000
REMARK  6 active torsions:
REMARK  status: ('A' for Active; 'I' for Inactive)
REMARK    1  A    between atoms: C_8  and  C_9 
REMARK    2  A    between atoms: C_9  and  C_10 
REMARK       I    between atoms: C_10  and  N_11 
REMARK    3  A    between atoms: N_11  and  C_12 
REMARK    4  A    between atoms: C_12  and  C_13 
REMARK    5  A    between atoms: C_16  and  N_17 
REMARK       I    between atoms: N_17  and  C_18 
REMARK    6  A    between atoms: C_18  and  C_19 
ROOT
HETATM    1  C   UNL     1      40.574 -15.155   2.224  1.00  0.00     0.161 C 
ENDROOT
BRANCH   1   2
HETATM    2  N   UNL     1      40.774 -16.575   2.087  1.00  0.00    -0.357 N 
HETATM    3  C   UNL     1      41.872 -17.067   1.416  1.00  0.00     0.222 C 
HETATM    4  O   UNL     1      42.695 -16.337   0.866  1.00  0.00    -0.273 OA
HETATM    5  H   UNL     1      40.091 -17.212   2.478  1.00  0.00     0.162 HD
BRANCH   3   6
HETATM    6  C   UNL     1      42.010 -18.572   1.444  1.00  0.00     0.143 C 
BRANCH   6   7
HETATM    7  C   UNL     1      43.016 -19.140   2.402  1.00  0.00    -0.022 A 
HETATM    8  C   UNL     1      43.458 -18.678   3.691  1.00  0.00    -0.001 A 
HETATM    9  C   UNL     1      43.137 -17.592   4.536  1.00  0.00     0.014 A 
HETATM   10  C   UNL     1      44.434 -19.575   4.141  1.00  0.00     0.042 A 
HETATM   11  C   UNL     1      43.801 -17.431   5.759  1.00  0.00     0.001 A 
HETATM   12  C   UNL     1      44.772 -18.338   6.163  1.00  0.00     0.002 A 
HETATM   13  C   UNL     1      45.104 -19.432   5.364  1.00  0.00     0.030 A 
HETATM   14  N   UNL     1      44.563 -20.553   3.187  1.00  0.00    -0.365 N 
HETATM   15  H   UNL     1      45.189 -21.343   3.258  1.00  0.00     0.165 HD
HETATM   16  C   UNL     1      43.724 -20.301   2.140  1.00  0.00     0.097 A 
ENDBRANCH   6   7
ENDBRANCH   3   6
ENDBRANCH   1   2
BRANCH   1  17
HETATM   17  C   UNL     1      41.211 -14.616   3.475  1.00  0.00    -0.040 A 
HETATM   18  C   UNL     1      40.680 -14.914   4.736  1.00  0.00     0.011 A 
HETATM   19  C   UNL     1      41.300 -14.448   5.902  1.00  0.00     0.030 A 
HETATM   20  C   UNL     1      42.460 -13.676   5.827  1.00  0.00     0.035 A 
HETATM   21  C   UNL     1      42.969 -13.345   4.565  1.00  0.00     0.030 A 
HETATM   22  C   UNL     1      42.349 -13.805   3.400  1.00  0.00     0.011 A 
BRANCH  20  23
HETATM   23  N   UNL     1      43.181 -13.223   6.947  1.00  0.00    -0.321 N 
HETATM   24  C   UNL     1      44.444 -13.599   7.368  1.00  0.00     0.279 C 
HETATM   25  O   UNL     1      45.134 -14.477   6.861  1.00  0.00    -0.265 OA
HETATM   26  H   UNL     1      42.752 -12.493   7.507  1.00  0.00     0.169 HD
BRANCH  24  27
HETATM   27  C   UNL     1      44.903 -12.821   8.506  1.00  0.00     0.142 A 
HETATM   28  O   UNL     1      44.369 -13.060   9.748  1.00  0.00    -0.317 OA
HETATM   29  C   UNL     1      44.954 -12.189  10.610  1.00  0.00     0.143 A 
HETATM   30  C   UNL     1      45.860 -11.392   9.951  1.00  0.00     0.027 A 
HETATM   31  C   UNL     1      45.830 -11.799   8.595  1.00  0.00     0.045 A 
ENDBRANCH  24  27
ENDBRANCH  20  23
ENDBRANCH   1  17
TORSDOF 6
ENDMDL
MODEL 2
REMARK VINA RESULT:      -8.3      2.792      7.227
REMARK  6 active torsions:
REMARK  status: ('A' for Active; 'I' for Inactive)
REMARK    1  A    between atoms: C_8  and  C_9 
REMARK    2  A    between atoms: C_9  and  C_10 
REMARK       I    between atoms: C_10  and  N_11 
REMARK    3  A    between atoms: N_11  and  C_12 
REMARK    4  A    between atoms: C_12  and  C_13 
REMARK    5  A    between atoms: C_16  and  N_17 
REMARK       I    between atoms: N_17  and  C_18 
REMARK    6  A    between atoms: C_18  and  C_19 
ROOT
HETATM    1  C   UNL     1      40.978 -15.424   6.016  1.00  0.00     0.161 C 
ENDROOT
BRANCH   1   2
HETATM    2  N   UNL     1      42.065 -16.346   6.224  1.00  0.00    -0.357 N 
HETATM    3  C   UNL     1      43.371 -15.909   6.195  1.00  0.00     0.222 C 
HETATM    4  O   UNL     1      43.675 -14.745   5.942  1.00  0.00    -0.273 OA
HETATM    5  H   UNL     1      41.862 -17.326   6.381  1.00  0.00     0.162 HD
BRANCH   3   6
HETATM    6  C   UNL     1      44.401 -16.963   6.536  1.00  0.00     0.143 C 
BRANCH   6   7
HETATM    7  C   UNL     1      44.374 -18.220   5.718  1.00  0.00    -0.022 A 
HETATM    8  C   UNL     1      44.164 -18.428   4.310  1.00  0.00    -0.001 A 
HETATM    9  C   UNL     1      43.935 -17.594   3.192  1.00  0.00     0.014 A 
HETATM   10  C   UNL     1      44.217 -19.808   4.081  1.00  0.00     0.042 A 
HETATM   11  C   UNL     1      43.748 -18.154   1.922  1.00  0.00     0.001 A 
HETATM   12  C   UNL     1      43.797 -19.531   1.740  1.00  0.00     0.002 A 
HETATM   13  C   UNL     1      44.038 -20.384   2.816  1.00  0.00     0.030 A 
HETATM   14  N   UNL     1      44.474 -20.413   5.285  1.00  0.00    -0.365 N 
HETATM   15  H   UNL     1      44.581 -21.410   5.414  1.00  0.00     0.165 HD
HETATM   16  C   UNL     1      44.565 -19.475   6.273  1.00  0.00     0.097 A 
ENDBRANCH   6   7
ENDBRANCH   3   6
ENDBRANCH   1   2
BRANCH   1  17
HETATM   17  C   UNL     1      40.600 -15.318   4.564  1.00  0.00    -0.040 A 
HETATM   18  C   UNL     1      40.039 -14.142   4.053  1.00  0.00     0.011 A 
HETATM   19  C   UNL     1      39.729 -14.030   2.692  1.00  0.00     0.030 A 
HETATM   20  C   UNL     1      39.973 -15.092   1.821  1.00  0.00     0.035 A 
HETATM   21  C   UNL     1      40.498 -16.282   2.338  1.00  0.00     0.030 A 
HETATM   22  C   UNL     1      40.804 -16.397   3.697  1.00  0.00     0.011 A 
BRANCH  20  23
HETATM   23  N   UNL     1      39.752 -15.040   0.432  1.00  0.00    -0.321 N 
HETATM   24  C   UNL     1      40.632 -14.663  -0.567  1.00  0.00     0.279 C 
HETATM   25  O   UNL     1      41.763 -14.220  -0.393  1.00  0.00    -0.265 OA
HETATM   26  H   UNL     1      38.849 -15.360   0.097  1.00  0.00     0.169 HD
BRANCH  24  27
HETATM   27  C   UNL     1      40.077 -14.856  -1.896  1.00  0.00     0.142 A 
HETATM   28  O   UNL     1      38.980 -14.126  -2.283  1.00  0.00    -0.317 OA
HETATM   29  C   UNL     1      38.665 -14.517  -3.544  1.00  0.00     0.143 A 
HETATM   30  C   UNL     1      39.537 -15.484  -3.984  1.00  0.00     0.027 A 
HETATM   31  C   UNL     1      40.449 -15.702  -2.924  1.00  0.00     0.045 A 
ENDBRANCH  24  27
ENDBRANCH  20  23
ENDBRANCH   1  17
TORSDOF 6
ENDMDL
MODEL 3
REMARK VINA RESULT:      -8.2      2.620      5.248
REMARK  6 active torsions:
REMARK  status: ('A' for Active; 'I' for Inactive)
REMARK    1  A    between atoms: C_8  and  C_9 
REMARK    2  A    between atoms: C_9  and  C_10 
REMARK       I    between atoms: C_10  and  N_11 
REMARK    3  A    between atoms: N_11  and  C_12 
REMARK    4  A    between atoms: C_12  and  C_13 
REMARK    5  A    between atoms: C_16  and  N_17 
REMARK       I    between atoms: N_17  and  C_18 
REMARK    6  A    between atoms: C_18  and  C_19 
ROOT
HETATM    1  C   UNL     1      43.075 -18.218   3.647  1.00  0.00     0.161 C 
ENDROOT
BRANCH   1   2
HETATM    2  N   UNL     1      42.122 -17.721   2.687  1.00  0.00    -0.357 N 
HETATM    3  C   UNL     1      42.491 -17.514   1.376  1.00  0.00     0.222 C 
HETATM    4  O   UNL     1      43.641 -17.686   0.976  1.00  0.00    -0.273 OA
HETATM    5  H   UNL     1      41.177 -17.513   2.987  1.00  0.00     0.162 HD
BRANCH   3   6
HETATM    6  C   UNL     1      41.365 -17.095   0.458  1.00  0.00     0.143 C 
BRANCH   6   7
HETATM    7  C   UNL     1      41.381 -15.675  -0.025  1.00  0.00    -0.022 A 
HETATM    8  C   UNL     1      41.100 -15.113  -1.319  1.00  0.00    -0.001 A 
HETATM    9  C   UNL     1      40.701 -15.626  -2.574  1.00  0.00     0.014 A 
HETATM   10  C   UNL     1      41.290 -13.730  -1.222  1.00  0.00     0.042 A 
HETATM   11  C   UNL     1      40.531 -14.765  -3.665  1.00  0.00     0.001 A 
HETATM   12  C   UNL     1      40.741 -13.398  -3.529  1.00  0.00     0.002 A 
HETATM   13  C   UNL     1      41.120 -12.854  -2.302  1.00  0.00     0.030 A 
HETATM   14  N   UNL     1      41.643 -13.455   0.075  1.00  0.00    -0.365 N 
HETATM   15  H   UNL     1      41.826 -12.529   0.434  1.00  0.00     0.165 HD
HETATM   16  C   UNL     1      41.706 -14.610   0.800  1.00  0.00     0.097 A 
ENDBRANCH   6   7
ENDBRANCH   3   6
ENDBRANCH   1   2
BRANCH   1  17
HETATM   17  C   UNL     1      43.440 -17.174   4.667  1.00  0.00    -0.040 A 
HETATM   18  C   UNL     1      43.135 -15.825   4.453  1.00  0.00     0.011 A 
HETATM   19  C   UNL     1      43.435 -14.860   5.423  1.00  0.00     0.030 A 
HETATM   20  C   UNL     1      44.048 -15.229   6.621  1.00  0.00     0.035 A 
HETATM   21  C   UNL     1      44.388 -16.572   6.819  1.00  0.00     0.030 A 
HETATM   22  C   UNL     1      44.093 -17.535   5.850  1.00  0.00     0.011 A 
BRANCH  20  23
HETATM   23  N   UNL     1      44.325 -14.337   7.673  1.00  0.00    -0.321 N 
HETATM   24  C   UNL     1      45.276 -13.334   7.725  1.00  0.00     0.279 C 
HETATM   25  O   UNL     1      46.116 -13.101   6.861  1.00  0.00    -0.265 OA
HETATM   26  H   UNL     1      43.731 -14.393   8.494  1.00  0.00     0.169 HD
BRANCH  24  27
HETATM   27  C   UNL     1      45.181 -12.540   8.939  1.00  0.00     0.142 A 
HETATM   28  O   UNL     1      44.444 -13.012   9.997  1.00  0.00    -0.317 OA
HETATM   29  C   UNL     1      44.507 -12.074  10.977  1.00  0.00     0.143 A 
HETATM   30  C   UNL     1      45.272 -11.006  10.576  1.00  0.00     0.027 A 
HETATM   31  C   UNL     1      45.709 -11.305   9.263  1.00  0.00     0.045 A 
ENDBRANCH  24  27
ENDBRANCH  20  23
ENDBRANCH   1  17
TORSDOF 6
ENDMDL
MODEL 4
REMARK VINA RESULT:      -8.1      3.325      9.093
REMARK  6 active torsions:
REMARK  status: ('A' for Active; 'I' for Inactive)
REMARK    1  A    between atoms: C_8  and  C_9 
REMARK    2  A    between atoms: C_9  and  C_10 
REMARK       I    between atoms: C_10  and  N_11 
REMARK    3  A    between atoms: N_11  and  C_12 
REMARK    4  A    between atoms: C_12  and  C_13 
REMARK    5  A    between atoms: C_16  and  N_17 
REMARK       I    between atoms: N_17  and  C_18 
REMARK    6  A    between atoms: C_18  and  C_19 
ROOT
HETATM    1  C   UNL     1      40.774 -12.682   5.875  1.00  0.00     0.161 C 
ENDROOT
BRANCH   1   2
HETATM    2  N   UNL     1      41.585 -12.154   6.942  1.00  0.00    -0.357 N 
HETATM    3  C   UNL     1      41.368 -10.881   7.423  1.00  0.00     0.222 C 
HETATM    4  O   UNL     1      40.526 -10.125   6.942  1.00  0.00    -0.273 OA
HETATM    5  H   UNL     1      42.326 -12.724   7.331  1.00  0.00     0.162 HD
BRANCH   3   6
HETATM    6  C   UNL     1      42.219 -10.500   8.613  1.00  0.00     0.143 C 
BRANCH   6   7
HETATM    7  C   UNL     1      41.592 -10.654   9.967  1.00  0.00    -0.022 A 
HETATM    8  C   UNL     1      42.106 -10.385  11.284  1.00  0.00    -0.001 A 
HETATM    9  C   UNL     1      43.317  -9.880  11.808  1.00  0.00     0.014 A 
HETATM   10  C   UNL     1      41.105 -10.732  12.200  1.00  0.00     0.042 A 
HETATM   11  C   UNL     1      43.492  -9.764  13.193  1.00  0.00     0.001 A 
HETATM   12  C   UNL     1      42.477 -10.130  14.068  1.00  0.00     0.002 A 
HETATM   13  C   UNL     1      41.261 -10.616  13.588  1.00  0.00     0.030 A 
HETATM   14  N   UNL     1      40.022 -11.166  11.478  1.00  0.00    -0.365 N 
HETATM   15  H   UNL     1      39.147 -11.466  11.884  1.00  0.00     0.165 HD
HETATM   16  C   UNL     1      40.302 -11.129  10.142  1.00  0.00     0.097 A 
ENDBRANCH   6   7
ENDBRANCH   3   6
ENDBRANCH   1   2
BRANCH   1  17
HETATM   17  C   UNL     1      41.294 -14.002   5.375  1.00  0.00    -0.040 A 
HETATM   18  C   UNL     1      40.689 -15.204   5.763  1.00  0.00     0.011 A 
HETATM   19  C   UNL     1      41.146 -16.429   5.262  1.00  0.00     0.030 A 
HETATM   20  C   UNL     1      42.216 -16.473   4.367  1.00  0.00     0.035 A 
HETATM   21  C   UNL     1      42.845 -15.275   4.009  1.00  0.00     0.030 A 
HETATM   22  C   UNL     1      42.393 -14.052   4.512  1.00  0.00     0.011 A 
BRANCH  20  23
HETATM   23  N   UNL     1      42.695 -17.652   3.767  1.00  0.00    -0.321 N 
HETATM   24  C   UNL     1      43.757 -18.448   4.157  1.00  0.00     0.279 C 
HETATM   25  O   UNL     1      44.530 -18.205   5.078  1.00  0.00    -0.265 OA
HETATM   26  H   UNL     1      42.181 -18.003   2.965  1.00  0.00     0.169 HD
BRANCH  24  27
HETATM   27  C   UNL     1      43.872 -19.653   3.353  1.00  0.00     0.142 A 
HETATM   28  O   UNL     1      44.547 -20.738   3.856  1.00  0.00    -0.317 OA
HETATM   29  C   UNL     1      44.519 -21.703   2.901  1.00  0.00     0.143 A 
HETATM   30  C   UNL     1      43.837 -21.266   1.791  1.00  0.00     0.027 A 
HETATM   31  C   UNL     1      43.417 -19.946   2.081  1.00  0.00     0.045 A 
ENDBRANCH  24  27
ENDBRANCH  20  23
ENDBRANCH   1  17
TORSDOF 6
ENDMDL
MODEL 5
REMARK VINA RESULT:      -8.0      3.659      6.024
REMARK  6 active torsions:
REMARK  status: ('A' for Active; 'I' for Inactive)
REMARK    1  A    between atoms: C_8  and  C_9 
REMARK    2  A    between atoms: C_9  and  C_10 
REMARK       I    between atoms: C_10  and  N_11 
REMARK    3  A    between atoms: N_11  and  C_12 
REMARK    4  A    between atoms: C_12  and  C_13 
REMARK    5  A    between atoms: C_16  and  N_17 
REMARK       I    between atoms: N_17  and  C_18 
REMARK    6  A    between atoms: C_18  and  C_19 
ROOT
HETATM    1  C   UNL     1      44.837 -13.106   7.990  1.00  0.00     0.161 C 
ENDROOT
BRANCH   1   2
HETATM    2  N   UNL     1      44.015 -14.267   7.764  1.00  0.00    -0.357 N 
HETATM    3  C   UNL     1      43.761 -14.708   6.484  1.00  0.00     0.222 C 
HETATM    4  O   UNL     1      44.168 -14.117   5.486  1.00  0.00    -0.273 OA
HETATM    5  H   UNL     1      43.613 -14.752   8.557  1.00  0.00     0.162 HD
BRANCH   3   6
HETATM    6  C   UNL     1      42.975 -15.997   6.402  1.00  0.00     0.143 C 
BRANCH   6   7
HETATM    7  C   UNL     1      43.656 -17.161   5.745  1.00  0.00    -0.022 A 
HETATM    8  C   UNL     1      43.439 -17.786   4.467  1.00  0.00    -0.001 A 
HETATM    9  C   UNL     1      42.572 -17.566   3.373  1.00  0.00     0.014 A 
HETATM   10  C   UNL     1      44.341 -18.852   4.367  1.00  0.00     0.042 A 
HETATM   11  C   UNL     1      42.620 -18.409   2.256  1.00  0.00     0.001 A 
HETATM   12  C   UNL     1      43.523 -19.463   2.201  1.00  0.00     0.002 A 
HETATM   13  C   UNL     1      44.406 -19.702   3.254  1.00  0.00     0.030 A 
HETATM   14  N   UNL     1      45.093 -18.861   5.515  1.00  0.00    -0.365 N 
HETATM   15  H   UNL     1      45.836 -19.518   5.707  1.00  0.00     0.165 HD
HETATM   16  C   UNL     1      44.690 -17.859   6.350  1.00  0.00     0.097 A 
ENDBRANCH   6   7
ENDBRANCH   3   6
ENDBRANCH   1   2
BRANCH   1  17
HETATM   17  C   UNL     1      44.311 -12.253   9.112  1.00  0.00    -0.040 A 
HETATM   18  C   UNL     1      43.362 -11.253   8.867  1.00  0.00     0.011 A 
HETATM   19  C   UNL     1      42.840 -10.490   9.919  1.00  0.00     0.030 A 
HETATM   20  C   UNL     1      43.259 -10.713  11.232  1.00  0.00     0.035 A 
HETATM   21  C   UNL     1      44.235 -11.687  11.471  1.00  0.00     0.030 A 
HETATM   22  C   UNL     1      44.761 -12.446  10.422  1.00  0.00     0.011 A 
BRANCH  20  23
HETATM   23  N   UNL     1      42.739 -10.039  12.352  1.00  0.00    -0.321 N 
HETATM   24  C   UNL     1      41.710 -10.427  13.191  1.00  0.00     0.279 C 
HETATM   25  O   UNL     1      41.005 -11.420  13.044  1.00  0.00    -0.265 OA
HETATM   26  H   UNL     1      43.195  -9.173  12.621  1.00  0.00     0.169 HD
BRANCH  24  27
HETATM   27  C   UNL     1      41.540  -9.522  14.315  1.00  0.00     0.142 A 
HETATM   28  O   UNL     1      40.542  -8.579  14.277  1.00  0.00    -0.317 OA
HETATM   29  C   UNL     1      40.623  -7.865  15.429  1.00  0.00     0.143 A 
HETATM   30  C   UNL     1      41.651  -8.329  16.215  1.00  0.00     0.027 A 
HETATM   31  C   UNL     1      42.241  -9.399  15.499  1.00  0.00     0.045 A 
ENDBRANCH  24  27
ENDBRANCH  20  23
ENDBRANCH   1  17
TORSDOF 6
ENDMDL
MODEL 6
REMARK VINA RESULT:      -7.9      3.063      3.722
REMARK  6 active torsions:
REMARK  status: ('A' for Active; 'I' for Inactive)
REMARK    1  A    between atoms: C_8  and  C_9 
REMARK    2  A    between atoms: C_9  and  C_10 
REMARK       I    between atoms: C_10  and  N_11 
REMARK    3  A    between atoms: N_11  and  C_12 
REMARK    4  A    between atoms: C_12  and  C_13 
REMARK    5  A    between atoms: C_16  and  N_17 
REMARK       I    between atoms: N_17  and  C_18 
REMARK    6  A    between atoms: C_18  and  C_19 
ROOT
HETATM    1  C   UNL     1      40.498 -15.242   1.976  1.00  0.00     0.161 C 
ENDROOT
BRANCH   1   2
HETATM    2  N   UNL     1      41.759 -15.938   1.958  1.00  0.00    -0.357 N 
HETATM    3  C   UNL     1      41.840 -17.230   1.487  1.00  0.00     0.222 C 
HETATM    4  O   UNL     1      40.855 -17.863   1.114  1.00  0.00    -0.273 OA
HETATM    5  H   UNL     1      42.588 -15.474   2.308  1.00  0.00     0.162 HD
BRANCH   3   6
HETATM    6  C   UNL     1      43.241 -17.797   1.426  1.00  0.00     0.143 C 
BRANCH   6   7
HETATM    7  C   UNL     1      43.729 -18.519   2.647  1.00  0.00    -0.022 A 
HETATM    8  C   UNL     1      44.039 -19.908   2.864  1.00  0.00    -0.001 A 
HETATM    9  C   UNL     1      44.032 -21.076   2.069  1.00  0.00     0.014 A 
HETATM   10  C   UNL     1      44.430 -20.042   4.201  1.00  0.00     0.042 A 
HETATM   11  C   UNL     1      44.386 -22.310   2.629  1.00  0.00     0.001 A 
HETATM   12  C   UNL     1      44.758 -22.403   3.964  1.00  0.00     0.002 A 
HETATM   13  C   UNL     1      44.793 -21.269   4.775  1.00  0.00     0.030 A 
HETATM   14  N   UNL     1      44.389 -18.794   4.768  1.00  0.00    -0.365 N 
HETATM   15  H   UNL     1      44.639 -18.591   5.725  1.00  0.00     0.165 HD
HETATM   16  C   UNL     1      43.966 -17.875   3.851  1.00  0.00     0.097 A 
ENDBRANCH   6   7
ENDBRANCH   3   6
ENDBRANCH   1   2
BRANCH   1  17
HETATM   17  C   UNL     1      40.249 -14.563   3.295  1.00  0.00    -0.040 A 
HETATM   18  C   UNL     1      40.599 -15.186   4.499  1.00  0.00     0.011 A 
HETATM   19  C   UNL     1      40.407 -14.535   5.724  1.00  0.00     0.030 A 
HETATM   20  C   UNL     1      39.861 -13.252   5.765  1.00  0.00     0.035 A 
HETATM   21  C   UNL     1      39.475 -12.644   4.564  1.00  0.00     0.030 A 
HETATM   22  C   UNL     1      39.661 -13.295   3.341  1.00  0.00     0.011 A 
BRANCH  20  23
HETATM   23  N   UNL     1      39.695 -12.502   6.943  1.00  0.00    -0.321 N 
HETATM   24  C   UNL     1      40.474 -11.463   7.421  1.00  0.00     0.279 C 
HETATM   25  O   UNL     1      41.519 -11.064   6.917  1.00  0.00    -0.265 OA
HETATM   26  H   UNL     1      38.877 -12.706   7.508  1.00  0.00     0.169 HD
BRANCH  24  27
HETATM   27  C   UNL     1      39.915 -10.854   8.616  1.00  0.00     0.142 A 
HETATM   28  O   UNL     1      38.681 -10.253   8.554  1.00  0.00    -0.317 OA
HETATM   29  C   UNL     1      38.416  -9.756   9.789  1.00  0.00     0.143 A 
HETATM   30  C   UNL     1      39.451 -10.026  10.652  1.00  0.00     0.027 A 
HETATM   31  C   UNL     1      40.417 -10.736   9.898  1.00  0.00     0.045 A 
ENDBRANCH  24  27
ENDBRANCH  20  23
ENDBRANCH   1  17
TORSDOF 6
ENDMDL
MODEL 7
REMARK VINA RESULT:      -7.9      2.050      2.894
REMARK  6 active torsions:
REMARK  status: ('A' for Active; 'I' for Inactive)
REMARK    1  A    between atoms: C_8  and  C_9 
REMARK    2  A    between atoms: C_9  and  C_10 
REMARK       I    between atoms: C_10  and  N_11 
REMARK    3  A    between atoms: N_11  and  C_12 
REMARK    4  A    between atoms: C_12  and  C_13 
REMARK    5  A    between atoms: C_16  and  N_17 
REMARK       I    between atoms: N_17  and  C_18 
REMARK    6  A    between atoms: C_18  and  C_19 
ROOT
HETATM    1  C   UNL     1      39.453 -14.560   2.493  1.00  0.00     0.161 C 
ENDROOT
BRANCH   1   2
HETATM    2  N   UNL     1      39.871 -15.920   2.271  1.00  0.00    -0.357 N 
HETATM    3  C   UNL     1      40.948 -16.199   1.459  1.00  0.00     0.222 C 
HETATM    4  O   UNL     1      41.565 -15.326   0.851  1.00  0.00    -0.273 OA
HETATM    5  H   UNL     1      39.357 -16.675   2.708  1.00  0.00     0.162 HD
BRANCH   3   6
HETATM    6  C   UNL     1      41.340 -17.659   1.403  1.00  0.00     0.143 C 
BRANCH   6   7
HETATM    7  C   UNL     1      42.406 -18.107   2.359  1.00  0.00    -0.022 A 
HETATM    8  C   UNL     1      43.120 -19.352   2.463  1.00  0.00    -0.001 A 
HETATM    9  C   UNL     1      43.127 -20.571   1.748  1.00  0.00     0.014 A 
HETATM   10  C   UNL     1      43.991 -19.242   3.553  1.00  0.00     0.042 A 
HETATM   11  C   UNL     1      43.965 -21.619   2.150  1.00  0.00     0.001 A 
HETATM   12  C   UNL     1      44.806 -21.473   3.246  1.00  0.00     0.002 A 
HETATM   13  C   UNL     1      44.839 -20.279   3.966  1.00  0.00     0.030 A 
HETATM   14  N   UNL     1      43.838 -17.982   4.074  1.00  0.00    -0.365 N 
HETATM   15  H   UNL     1      44.357 -17.622   4.862  1.00  0.00     0.165 HD
HETATM   16  C   UNL     1      42.890 -17.295   3.372  1.00  0.00     0.097 A 
ENDBRANCH   6   7
ENDBRANCH   3   6
ENDBRANCH   1   2
BRANCH   1  17
HETATM   17  C   UNL     1      40.191 -13.925   3.640  1.00  0.00    -0.040 A 
HETATM   18  C   UNL     1      41.056 -12.846   3.425  1.00  0.00     0.011 A 
HETATM   19  C   UNL     1      41.709 -12.228   4.499  1.00  0.00     0.030 A 
HETATM   20  C   UNL     1      41.509 -12.680   5.804  1.00  0.00     0.035 A 
HETATM   21  C   UNL     1      40.673 -13.784   6.014  1.00  0.00     0.030 A 
HETATM   22  C   UNL     1      40.025 -14.405   4.943  1.00  0.00     0.011 A 
BRANCH  20  23
HETATM   23  N   UNL     1      42.072 -12.078   6.943  1.00  0.00    -0.321 N 
HETATM   24  C   UNL     1      41.750 -10.865   7.526  1.00  0.00     0.279 C 
HETATM   25  O   UNL     1      40.945 -10.051   7.083  1.00  0.00    -0.265 OA
HETATM   26  H   UNL     1      42.780 -12.607   7.443  1.00  0.00     0.169 HD
BRANCH  24  27
HETATM   27  C   UNL     1      42.470 -10.637   8.767  1.00  0.00     0.142 A 
HETATM   28  O   UNL     1      43.803 -10.960   8.844  1.00  0.00    -0.317 OA
HETATM   29  C   UNL     1      44.213 -10.668  10.105  1.00  0.00     0.143 A 
HETATM   30  C   UNL     1      43.174 -10.158  10.846  1.00  0.00     0.027 A 
HETATM   31  C   UNL     1      42.051 -10.135   9.985  1.00  0.00     0.045 A 
ENDBRANCH  24  27
ENDBRANCH  20  23
ENDBRANCH   1  17
TORSDOF 6
ENDMDL
MODEL 8
REMARK VINA RESULT:      -7.8      2.408      6.577
REMARK  6 active torsions:
REMARK  status: ('A' for Active; 'I' for Inactive)
REMARK    1  A    between atoms: C_8  and  C_9 
REMARK    2  A    between atoms: C_9  and  C_10 
REMARK       I    between atoms: C_10  and  N_11 
REMARK    3  A    between atoms: N_11  and  C_12 
REMARK    4  A    between atoms: C_12  and  C_13 
REMARK    5  A    between atoms: C_16  and  N_17 
REMARK       I    between atoms: N_17  and  C_18 
REMARK    6  A    between atoms: C_18  and  C_19 
ROOT
HETATM    1  C   UNL     1      43.768 -15.054   6.775  1.00  0.00     0.161 C 
ENDROOT
BRANCH   1   2
HETATM    2  N   UNL     1      44.368 -16.360   6.681  1.00  0.00    -0.357 N 
HETATM    3  C   UNL     1      43.678 -17.480   7.092  1.00  0.00     0.222 C 
HETATM    4  O   UNL     1      42.559 -17.421   7.598  1.00  0.00    -0.273 OA
HETATM    5  H   UNL     1      45.310 -16.449   6.321  1.00  0.00     0.162 HD
BRANCH   3   6
HETATM    6  C   UNL     1      44.386 -18.791   6.835  1.00  0.00     0.143 C 
BRANCH   6   7
HETATM    7  C   UNL     1      44.394 -19.287   5.419  1.00  0.00    -0.022 A 
HETATM    8  C   UNL     1      43.633 -18.876   4.269  1.00  0.00    -0.001 A 
HETATM    9  C   UNL     1      42.650 -17.895   4.012  1.00  0.00     0.014 A 
HETATM   10  C   UNL     1      44.021 -19.692   3.201  1.00  0.00     0.042 A 
HETATM   11  C   UNL     1      42.087 -17.780   2.734  1.00  0.00     0.001 A 
HETATM   12  C   UNL     1      42.492 -18.618   1.703  1.00  0.00     0.002 A 
HETATM   13  C   UNL     1      43.472 -19.588   1.915  1.00  0.00     0.030 A 
HETATM   14  N   UNL     1      44.993 -20.542   3.667  1.00  0.00    -0.365 N 
HETATM   15  H   UNL     1      45.467 -21.233   3.102  1.00  0.00     0.165 HD
HETATM   16  C   UNL     1      45.221 -20.313   4.993  1.00  0.00     0.097 A 
ENDBRANCH   6   7
ENDBRANCH   3   6
ENDBRANCH   1   2
BRANCH   1  17
HETATM   17  C   UNL     1      43.000 -14.698   5.532  1.00  0.00    -0.040 A 
HETATM   18  C   UNL     1      43.660 -14.225   4.392  1.00  0.00     0.011 A 
HETATM   19  C   UNL     1      42.949 -13.936   3.221  1.00  0.00     0.030 A 
HETATM   20  C   UNL     1      41.565 -14.113   3.172  1.00  0.00     0.035 A 
HETATM   21  C   UNL     1      40.900 -14.548   4.324  1.00  0.00     0.030 A 
HETATM   22  C   UNL     1      41.608 -14.833   5.495  1.00  0.00     0.011 A 
BRANCH  20  23
HETATM   23  N   UNL     1      40.784 -13.909   2.020  1.00  0.00    -0.321 N 
HETATM   24  C   UNL     1      40.925 -14.484   0.770  1.00  0.00     0.279 C 
HETATM   25  O   UNL     1      41.834 -15.233   0.427  1.00  0.00    -0.265 OA
HETATM   26  H   UNL     1      39.980 -13.296   2.111  1.00  0.00     0.169 HD
BRANCH  24  27
HETATM   27  C   UNL     1      39.849 -14.116  -0.135  1.00  0.00     0.142 A 
HETATM   28  O   UNL     1      40.044 -14.211  -1.491  1.00  0.00    -0.317 OA
HETATM   29  C   UNL     1      38.901 -13.790  -2.090  1.00  0.00     0.143 A 
HETATM   30  C   UNL     1      37.967 -13.428  -1.149  1.00  0.00     0.027 A 
HETATM   31  C   UNL     1      38.575 -13.640   0.112  1.00  0.00     0.045 A 
ENDBRANCH  24  27
ENDBRANCH  20  23
ENDBRANCH   1  17
TORSDOF 6
ENDMDL
MODEL 9
REMARK VINA RESULT:      -7.7      1.371      2.327
REMARK  6 active torsions:
REMARK  status: ('A' for Active; 'I' for Inactive)
REMARK    1  A    between atoms: C_8  and  C_9 
REMARK    2  A    between atoms: C_9  and  C_10 
REMARK       I    between atoms: C_10  and  N_11 
REMARK    3  A    between atoms: N_11  and  C_12 
REMARK    4  A    between atoms: C_12  and  C_13 
REMARK    5  A    between atoms: C_16  and  N_17 
REMARK       I    between atoms: N_17  and  C_18 
REMARK    6  A    between atoms: C_18  and  C_19 
ROOT
HETATM    1  C   UNL     1      39.959 -14.644   2.512  1.00  0.00     0.161 C 
ENDROOT
BRANCH   1   2
HETATM    2  N   UNL     1      40.307 -16.016   2.242  1.00  0.00    -0.357 N 
HETATM    3  C   UNL     1      41.341 -16.321   1.384  1.00  0.00     0.222 C 
HETATM    4  O   UNL     1      41.974 -15.460   0.776  1.00  0.00    -0.273 OA
HETATM    5  H   UNL     1      39.775 -16.759   2.679  1.00  0.00     0.162 HD
BRANCH   3   6
HETATM    6  C   UNL     1      41.665 -17.794   1.279  1.00  0.00     0.143 C 
BRANCH   6   7
HETATM    7  C   UNL     1      42.663 -18.337   2.259  1.00  0.00    -0.022 A 
HETATM    8  C   UNL     1      43.275 -19.635   2.364  1.00  0.00    -0.001 A 
HETATM    9  C   UNL     1      43.210 -20.841   1.630  1.00  0.00     0.014 A 
HETATM   10  C   UNL     1      44.117 -19.608   3.481  1.00  0.00     0.042 A 
HETATM   11  C   UNL     1      43.952 -21.956   2.040  1.00  0.00     0.001 A 
HETATM   12  C   UNL     1      44.768 -21.891   3.163  1.00  0.00     0.002 A 
HETATM   13  C   UNL     1      44.870 -20.713   3.902  1.00  0.00     0.030 A 
HETATM   14  N   UNL     1      44.045 -18.347   4.018  1.00  0.00    -0.365 N 
HETATM   15  H   UNL     1      44.566 -18.039   4.827  1.00  0.00     0.165 HD
HETATM   16  C   UNL     1      43.175 -17.579   3.299  1.00  0.00     0.097 A 
ENDBRANCH   6   7
ENDBRANCH   3   6
ENDBRANCH   1   2
BRANCH   1  17
HETATM   17  C   UNL     1      40.716 -14.094   3.689  1.00  0.00    -0.040 A 
HETATM   18  C   UNL     1      41.883 -13.343   3.503  1.00  0.00     0.011 A 
HETATM   19  C   UNL     1      42.563 -12.794   4.598  1.00  0.00     0.030 A 
HETATM   20  C   UNL     1      42.089 -12.989   5.896  1.00  0.00     0.035 A 
HETATM   21  C   UNL     1      40.944 -13.772   6.085  1.00  0.00     0.030 A 
HETATM   22  C   UNL     1      40.267 -14.325   4.994  1.00  0.00     0.011 A 
BRANCH  20  23
HETATM   23  N   UNL     1      42.672 -12.421   7.043  1.00  0.00    -0.321 N 
HETATM   24  C   UNL     1      43.847 -12.778   7.680  1.00  0.00     0.279 C 
HETATM   25  O   UNL     1      44.557 -13.734   7.385  1.00  0.00    -0.265 OA
HETATM   26  H   UNL     1      42.206 -11.613   7.444  1.00  0.00     0.169 HD
BRANCH  24  27
HETATM   27  C   UNL     1      44.184 -11.876   8.769  1.00  0.00     0.142 A 
HETATM   28  O   UNL     1      45.482 -11.454   8.918  1.00  0.00    -0.317 OA
HETATM   29  C   UNL     1      45.517 -10.649  10.011  1.00  0.00     0.143 A 
HETATM   30  C   UNL     1      44.266 -10.538  10.570  1.00  0.00     0.027 A 
HETATM   31  C   UNL     1      43.405 -11.326   9.769  1.00  0.00     0.045 A 
ENDBRANCH  24  27
ENDBRANCH  20  23
ENDBRANCH   1  17
TORSDOF 6
ENDMDL
MODEL 10
REMARK VINA RESULT:      -7.6      1.914      2.050
REMARK  6 active torsions:
REMARK  status: ('A' for Active; 'I' for Inactive)
REMARK    1  A    between atoms: C_8  and  C_9 
REMARK    2  A    between atoms: C_9  and  C_10 
REMARK       I    between atoms: C_10  and  N_11 
REMARK    3  A    between atoms: N_11  and  C_12 
REMARK    4  A    between atoms: C_12  and  C_13 
REMARK    5  A    between atoms: C_16  and  N_17 
REMARK       I    between atoms: N_17  and  C_18 
REMARK    6  A    between atoms: C_18  and  C_19 
ROOT
HETATM    1  C   UNL     1      40.635 -15.162   2.076  1.00  0.00     0.161 C 
ENDROOT
BRANCH   1   2
HETATM    2  N   UNL     1      40.979 -16.557   2.185  1.00  0.00    -0.357 N 
HETATM    3  C   UNL     1      42.182 -17.022   1.699  1.00  0.00     0.222 C 
HETATM    4  O   UNL     1      42.984 -16.299   1.112  1.00  0.00    -0.273 OA
HETATM    5  H   UNL     1      40.323 -17.199   2.612  1.00  0.00     0.162 HD
BRANCH   3   6
HETATM    6  C   UNL     1      42.457 -18.483   1.977  1.00  0.00     0.143 C 
BRANCH   6   7
HETATM    7  C   UNL     1      43.356 -18.789   3.138  1.00  0.00    -0.022 A 
HETATM    8  C   UNL     1      43.638 -18.047   4.338  1.00  0.00    -0.001 A 
HETATM    9  C   UNL     1      43.201 -16.822   4.889  1.00  0.00     0.014 A 
HETATM   10  C   UNL     1      44.573 -18.785   5.073  1.00  0.00     0.042 A 
HETATM   11  C   UNL     1      43.716 -16.376   6.113  1.00  0.00     0.001 A 
HETATM   12  C   UNL     1      44.652 -17.134   6.806  1.00  0.00     0.002 A 
HETATM   13  C   UNL     1      45.095 -18.356   6.302  1.00  0.00     0.030 A 
HETATM   14  N   UNL     1      44.830 -19.935   4.372  1.00  0.00    -0.365 N 
HETATM   15  H   UNL     1      45.459 -20.664   4.678  1.00  0.00     0.165 HD
HETATM   16  C   UNL     1      44.112 -19.948   3.210  1.00  0.00     0.097 A 
ENDBRANCH   6   7
ENDBRANCH   3   6
ENDBRANCH   1   2
BRANCH   1  17
HETATM   17  C   UNL     1      40.941 -14.408   3.341  1.00  0.00    -0.040 A 
HETATM   18  C   UNL     1      40.131 -14.549   4.474  1.00  0.00     0.011 A 
HETATM   19  C   UNL     1      40.443 -13.881   5.665  1.00  0.00     0.030 A 
HETATM   20  C   UNL     1      41.567 -13.058   5.741  1.00  0.00     0.035 A 
HETATM   21  C   UNL     1      42.355 -12.886   4.596  1.00  0.00     0.030 A 
HETATM   22  C   UNL     1      42.043 -13.549   3.406  1.00  0.00     0.011 A 
BRANCH  20  23
HETATM   23  N   UNL     1      41.988 -12.403   6.912  1.00  0.00    -0.321 N 
HETATM   24  C   UNL     1      41.869 -11.064   7.242  1.00  0.00     0.279 C 
HETATM   25  O   UNL     1      41.432 -10.184   6.507  1.00  0.00    -0.265 OA
HETATM   26  H   UNL     1      42.397 -12.979   7.641  1.00  0.00     0.169 HD
BRANCH  24  27
HETATM   27  C   UNL     1      42.316 -10.785   8.596  1.00  0.00     0.142 A 
HETATM   28  O   UNL     1      41.431 -10.257   9.504  1.00  0.00    -0.317 OA
HETATM   29  C   UNL     1      42.110 -10.078  10.666  1.00  0.00     0.143 A 
HETATM   30  C   UNL     1      43.416 -10.482  10.531  1.00  0.00     0.027 A 
HETATM   31  C   UNL     1      43.550 -10.941   9.198  1.00  0.00     0.045 A 
ENDBRANCH  24  27
ENDBRANCH  20  23
ENDBRANCH   1  17
TORSDOF 6
ENDMDL
