MODEL 1
REMARK VINA RESULT:      -8.1      0.000      0.000
REMARK  8 active torsions:
REMARK  status: ('A' for Active; 'I' for Inactive)
REMARK       I    between atoms: C_2  and  N_3 
REMARK    1  A    between atoms: N_3  and  C_4 
REMARK    2  A    between atoms: C_6  and  C_7 
REMARK    3  A    between atoms: C_7  and  N_8 
REMARK    4  A    between atoms: C_11  and  C_12 
REMARK    5  A    between atoms: C_14  and  S_15 
REMARK    6  A    between atoms: S_15  and  C_16 
REMARK    7  A    between atoms: C_16  and  C_17 
REMARK    8  A    between atoms: C_17  and  N_18 
ROOT
HETATM    1  N   UNL     1      41.656 -14.691   0.786  1.00  0.00    -0.066 N 
HETATM    2  H   UNL     1      42.562 -14.805   1.260  1.00  0.00     0.280 HD
HETATM    3  C   UNL     1      40.620 -14.573   1.885  1.00  0.00     0.246 C 
HETATM    4  C   UNL     1      40.585 -15.814   2.783  1.00  0.00     0.064 C 
HETATM    5  C   UNL     1      40.515 -17.113   1.969  1.00  0.00     0.014 C 
HETATM    6  C   UNL     1      41.518 -17.166   0.823  1.00  0.00     0.028 C 
HETATM    7  C   UNL     1      41.442 -15.927  -0.056  1.00  0.00     0.235 C 
ENDROOT
BRANCH   4   8
HETATM    8  C   UNL     1      41.715 -15.826   3.806  1.00  0.00     0.044 A 
HETATM    9  N   UNL     1      42.099 -17.010   4.358  1.00  0.00    -0.227 NA
HETATM   10  C   UNL     1      43.008 -16.918   5.359  1.00  0.00     0.188 A 
HETATM   11  N   UNL     1      43.637 -15.798   5.734  1.00  0.00    -0.235 NA
HETATM   12  C   UNL     1      43.250 -14.658   5.145  1.00  0.00     0.121 A 
HETATM   13  C   UNL     1      42.276 -14.613   4.181  1.00  0.00     0.047 A 
BRANCH  10  14
HETATM   14  S   UNL     1      43.374 -18.329   6.375  1.00  0.00    -0.088 SA
BRANCH  14  15
HETATM   15  C   UNL     1      44.815 -19.035   5.542  1.00  0.00     0.110 C 
BRANCH  15  16
HETATM   16  C   UNL     1      44.563 -20.454   5.029  1.00  0.00     0.245 C 
BRANCH  16  17
HETATM   17  N   UNL     1      44.960 -20.654   3.587  1.00  0.00    -0.070 N 
HETATM   18  H   UNL     1      45.990 -20.599   3.528  1.00  0.00     0.279 HD
HETATM   19  C   UNL     1      44.389 -19.568   2.681  1.00  0.00     0.235 C 
HETATM   20  C   UNL     1      43.203 -20.239   2.026  1.00  0.00     0.029 C 
HETATM   21  C   UNL     1      43.742 -21.623   1.733  1.00  0.00     0.029 C 
HETATM   22  C   UNL     1      44.522 -21.986   2.985  1.00  0.00     0.235 C 
ENDBRANCH  16  17
ENDBRANCH  15  16
ENDBRANCH  14  15
ENDBRANCH  10  14
ENDBRANCH   4   8
BRANCH   1  23
HETATM   23  C   UNL     1      41.721 -13.440  -0.080  1.00  0.00     0.280 C 
BRANCH  23  24
HETATM   24  C   UNL     1      41.030 -13.604  -1.398  1.00  0.00     0.010 A 
HETATM   25  S   UNL     1      39.326 -13.424  -1.527  1.00  0.00    -0.075 SA
HETATM   26  C   UNL     1      39.363 -13.670  -3.204  1.00  0.00     0.076 A 
HETATM   27  C   UNL     1      40.616 -13.992  -3.661  1.00  0.00     0.038 A 
HETATM   28  C   UNL     1      41.583 -13.969  -2.610  1.00  0.00     0.019 A 
BRANCH  26  29
HETATM   29  N   UNL     1      38.150 -13.533  -3.834  1.00  0.00    -0.322 N 
HETATM   30  C   UNL     1      37.304 -14.603  -4.059  1.00  0.00     0.218 C 
HETATM   31  C   UNL     1      35.993 -14.193  -4.676  1.00  0.00     0.117 C 
HETATM   32  O   UNL     1      37.591 -15.783  -3.866  1.00  0.00    -0.274 OA
HETATM   33  H   UNL     1      37.910 -12.621  -4.207  1.00  0.00     0.169 HD
ENDBRANCH  26  29
ENDBRANCH  23  24
ENDBRANCH   1  23
TORSDOF 8
ENDMDL
MODEL 2
REMARK VINA RESULT:      -7.9      3.197      8.117
REMARK  8 active torsions:
REMARK  status: ('A' for Active; 'I' for Inactive)
REMARK       I    between atoms: C_2  and  N_3 
REMARK    1  A    between atoms: N_3  and  C_4 
REMARK    2  A    between atoms: C_6  and  C_7 
REMARK    3  A    between atoms: C_7  and  N_8 
REMARK    4  A    between atoms: C_11  and  C_12 
REMARK    5  A    between atoms: C_14  and  S_15 
REMARK    6  A    between atoms: S_15  and  C_16 
REMARK    7  A    between atoms: C_16  and  C_17 
REMARK    8  A    between atoms: C_17  and  N_18 
ROOT
HETATM    1  N   UNL     1      43.774 -18.646   6.830  1.00  0.00    -0.066 N 
HETATM    2  H   UNL     1      42.998 -18.587   6.157  1.00  0.00     0.280 HD
HETATM    3  C   UNL     1      45.046 -18.594   6.009  1.00  0.00     0.246 C 
HETATM    4  C   UNL     1      45.137 -19.750   5.009  1.00  0.00     0.064 C 
HETATM    5  C   UNL     1      44.851 -21.106   5.667  1.00  0.00     0.014 C 
HETATM    6  C   UNL     1      43.608 -21.103   6.549  1.00  0.00     0.028 C 
HETATM    7  C   UNL     1      43.629 -19.964   7.556  1.00  0.00     0.235 C 
ENDROOT
BRANCH   4   8
HETATM    8  C   UNL     1      44.287 -19.514   3.765  1.00  0.00     0.044 A 
HETATM    9  N   UNL     1      43.650 -18.320   3.615  1.00  0.00    -0.227 NA
HETATM   10  C   UNL     1      42.804 -18.242   2.558  1.00  0.00     0.188 A 
HETATM   11  N   UNL     1      42.663 -19.173   1.608  1.00  0.00    -0.235 NA
HETATM   12  C   UNL     1      43.331 -20.322   1.779  1.00  0.00     0.121 A 
HETATM   13  C   UNL     1      44.149 -20.552   2.856  1.00  0.00     0.047 A 
BRANCH  10  14
HETATM   14  S   UNL     1      41.679 -16.875   2.405  1.00  0.00    -0.088 SA
BRANCH  14  15
HETATM   15  C   UNL     1      41.393 -16.814   0.621  1.00  0.00     0.110 C 
BRANCH  15  16
HETATM   16  C   UNL     1      41.083 -15.401   0.122  1.00  0.00     0.245 C 
BRANCH  16  17
HETATM   17  N   UNL     1      41.693 -15.089  -1.222  1.00  0.00    -0.070 N 
HETATM   18  H   UNL     1      42.640 -15.502  -1.248  1.00  0.00     0.279 HD
HETATM   19  C   UNL     1      41.842 -13.587  -1.447  1.00  0.00     0.235 C 
HETATM   20  C   UNL     1      40.677 -13.246  -2.348  1.00  0.00     0.029 C 
HETATM   21  C   UNL     1      40.663 -14.417  -3.307  1.00  0.00     0.029 C 
HETATM   22  C   UNL     1      40.910 -15.623  -2.417  1.00  0.00     0.235 C 
ENDBRANCH  16  17
ENDBRANCH  15  16
ENDBRANCH  14  15
ENDBRANCH  10  14
ENDBRANCH   4   8
BRANCH   1  23
HETATM   23  C   UNL     1      43.663 -17.472   7.794  1.00  0.00     0.280 C 
BRANCH  23  24
HETATM   24  C   UNL     1      43.559 -16.151   7.098  1.00  0.00     0.010 A 
HETATM   25  S   UNL     1      42.216 -15.793   6.087  1.00  0.00    -0.075 SA
HETATM   26  C   UNL     1      42.782 -14.224   5.782  1.00  0.00     0.076 A 
HETATM   27  C   UNL     1      44.016 -13.994   6.336  1.00  0.00     0.038 A 
HETATM   28  C   UNL     1      44.476 -15.118   7.089  1.00  0.00     0.019 A 
BRANCH  26  29
HETATM   29  N   UNL     1      41.943 -13.446   5.023  1.00  0.00    -0.322 N 
HETATM   30  C   UNL     1      41.459 -12.227   5.462  1.00  0.00     0.218 C 
HETATM   31  C   UNL     1      40.639 -11.513   4.420  1.00  0.00     0.117 C 
HETATM   32  O   UNL     1      41.593 -11.784   6.601  1.00  0.00    -0.274 OA
HETATM   33  H   UNL     1      41.617 -13.822   4.139  1.00  0.00     0.169 HD
ENDBRANCH  26  29
ENDBRANCH  23  24
ENDBRANCH   1  23
TORSDOF 8
ENDMDL
MODEL 3
REMARK VINA RESULT:      -7.8      4.130      7.317
REMARK  8 active torsions:
REMARK  status: ('A' for Active; 'I' for Inactive)
REMARK       I    between atoms: C_2  and  N_3 
REMARK    1  A    between atoms: N_3  and  C_4 
REMARK    2  A    between atoms: C_6  and  C_7 
REMARK    3  A    between atoms: C_7  and  N_8 
REMARK    4  A    between atoms: C_11  and  C_12 
REMARK    5  A    between atoms: C_14  and  S_15 
REMARK    6  A    between atoms: S_15  and  C_16 
REMARK    7  A    between atoms: C_16  and  C_17 
REMARK    8  A    between atoms: C_17  and  N_18 
ROOT
HETATM    1  N   UNL     1      42.030 -16.219   2.134  1.00  0.00    -0.066 N 
HETATM    2  H   UNL     1      42.621 -15.642   2.748  1.00  0.00     0.280 HD
HETATM    3  C   UNL     1      41.520 -17.358   2.993  1.00  0.00     0.246 C 
HETATM    4  C   UNL     1      42.660 -18.207   3.565  1.00  0.00     0.064 C 
HETATM    5  C   UNL     1      43.672 -18.616   2.487  1.00  0.00     0.014 C 
HETATM    6  C   UNL     1      44.105 -17.462   1.591  1.00  0.00     0.028 C 
HETATM    7  C   UNL     1      42.914 -16.714   1.013  1.00  0.00     0.235 C 
ENDROOT
BRANCH   4   8
HETATM    8  C   UNL     1      43.324 -17.553   4.772  1.00  0.00     0.044 A 
HETATM    9  N   UNL     1      43.015 -16.264   5.082  1.00  0.00    -0.227 NA
HETATM   10  C   UNL     1      43.751 -15.713   6.078  1.00  0.00     0.188 A 
HETATM   11  N   UNL     1      44.632 -16.367   6.844  1.00  0.00    -0.235 NA
HETATM   12  C   UNL     1      44.886 -17.643   6.523  1.00  0.00     0.121 A 
HETATM   13  C   UNL     1      44.268 -18.284   5.479  1.00  0.00     0.047 A 
BRANCH  10  14
HETATM   14  S   UNL     1      43.679 -13.964   6.388  1.00  0.00    -0.088 SA
BRANCH  14  15
HETATM   15  C   UNL     1      44.986 -13.741   7.618  1.00  0.00     0.110 C 
BRANCH  15  16
HETATM   16  C   UNL     1      44.912 -12.382   8.315  1.00  0.00     0.245 C 
BRANCH  16  17
HETATM   17  N   UNL     1      43.829 -12.298   9.363  1.00  0.00    -0.070 N 
HETATM   18  H   UNL     1      43.116 -13.013   9.144  1.00  0.00     0.279 HD
HETATM   19  C   UNL     1      43.134 -10.940   9.359  1.00  0.00     0.235 C 
HETATM   20  C   UNL     1      43.761 -10.218  10.530  1.00  0.00     0.029 C 
HETATM   21  C   UNL     1      43.842 -11.312  11.573  1.00  0.00     0.029 C 
HETATM   22  C   UNL     1      44.308 -12.529  10.793  1.00  0.00     0.235 C 
ENDBRANCH  16  17
ENDBRANCH  15  16
ENDBRANCH  14  15
ENDBRANCH  10  14
ENDBRANCH   4   8
BRANCH   1  23
HETATM   23  C   UNL     1      40.900 -15.350   1.600  1.00  0.00     0.280 C 
BRANCH  23  24
HETATM   24  C   UNL     1      40.866 -13.987   2.221  1.00  0.00     0.010 A 
HETATM   25  S   UNL     1      40.582 -13.796   3.905  1.00  0.00    -0.075 SA
HETATM   26  C   UNL     1      40.763 -12.112   3.809  1.00  0.00     0.076 A 
HETATM   27  C   UNL     1      40.926 -11.674   2.519  1.00  0.00     0.038 A 
HETATM   28  C   UNL     1      40.971 -12.762   1.593  1.00  0.00     0.019 A 
BRANCH  26  29
HETATM   29  N   UNL     1      40.699 -11.455   5.013  1.00  0.00    -0.322 N 
HETATM   30  C   UNL     1      39.501 -11.073   5.588  1.00  0.00     0.218 C 
HETATM   31  C   UNL     1      39.675 -10.456   6.951  1.00  0.00     0.117 C 
HETATM   32  O   UNL     1      38.402 -11.137   5.039  1.00  0.00    -0.274 OA
HETATM   33  H   UNL     1      41.571 -11.183   5.452  1.00  0.00     0.169 HD
ENDBRANCH  26  29
ENDBRANCH  23  24
ENDBRANCH   1  23
TORSDOF 8
ENDMDL
MODEL 4
REMARK VINA RESULT:      -7.8      1.530      2.822
REMARK  8 active torsions:
REMARK  status: ('A' for Active; 'I' for Inactive)
REMARK       I    between atoms: C_2  and  N_3 
REMARK    1  A    between atoms: N_3  and  C_4 
REMARK    2  A    between atoms: C_6  and  C_7 
REMARK    3  A    between atoms: C_7  and  N_8 
REMARK    4  A    between atoms: C_11  and  C_12 
REMARK    5  A    between atoms: C_14  and  S_15 
REMARK    6  A    between atoms: S_15  and  C_16 
REMARK    7  A    between atoms: C_16  and  C_17 
REMARK    8  A    between atoms: C_17  and  N_18 
ROOT
HETATM    1  N   UNL     1      41.997 -13.107   3.070  1.00  0.00    -0.066 N 
HETATM    2  H   UNL     1      41.349 -13.904   3.141  1.00  0.00     0.280 HD
HETATM    3  C   UNL     1      43.368 -13.651   3.413  1.00  0.00     0.246 C 
HETATM    4  C   UNL     1      43.421 -14.239   4.827  1.00  0.00     0.064 C 
HETATM    5  C   UNL     1      42.826 -13.285   5.871  1.00  0.00     0.014 C 
HETATM    6  C   UNL     1      41.482 -12.696   5.460  1.00  0.00     0.028 C 
HETATM    7  C   UNL     1      41.535 -12.075   4.072  1.00  0.00     0.235 C 
ENDROOT
BRANCH   4   8
HETATM    8  C   UNL     1      42.814 -15.636   4.900  1.00  0.00     0.044 A 
HETATM    9  N   UNL     1      43.296 -16.522   5.814  1.00  0.00    -0.227 NA
HETATM   10  C   UNL     1      42.804 -17.782   5.719  1.00  0.00     0.188 A 
HETATM   11  N   UNL     1      41.812 -18.167   4.910  1.00  0.00    -0.235 NA
HETATM   12  C   UNL     1      41.345 -17.256   4.044  1.00  0.00     0.121 A 
HETATM   13  C   UNL     1      41.826 -15.972   3.986  1.00  0.00     0.047 A 
BRANCH  10  14
HETATM   14  S   UNL     1      43.553 -19.111   6.632  1.00  0.00    -0.088 SA
BRANCH  14  15
HETATM   15  C   UNL     1      44.929 -19.583   5.558  1.00  0.00     0.110 C 
BRANCH  15  16
HETATM   16  C   UNL     1      44.744 -20.969   4.939  1.00  0.00     0.245 C 
BRANCH  16  17
HETATM   17  N   UNL     1      45.026 -21.010   3.457  1.00  0.00    -0.070 N 
HETATM   18  H   UNL     1      46.051 -21.035   3.327  1.00  0.00     0.279 HD
HETATM   19  C   UNL     1      44.502 -19.769   2.741  1.00  0.00     0.235 C 
HETATM   20  C   UNL     1      43.218 -20.246   2.100  1.00  0.00     0.029 C 
HETATM   21  C   UNL     1      43.605 -21.620   1.595  1.00  0.00     0.029 C 
HETATM   22  C   UNL     1      44.427 -22.209   2.728  1.00  0.00     0.235 C 
ENDBRANCH  16  17
ENDBRANCH  15  16
ENDBRANCH  14  15
ENDBRANCH  10  14
ENDBRANCH   4   8
BRANCH   1  23
HETATM   23  C   UNL     1      41.933 -12.562   1.650  1.00  0.00     0.280 C 
BRANCH  23  24
HETATM   24  C   UNL     1      41.396 -13.554   0.665  1.00  0.00     0.010 A 
HETATM   25  S   UNL     1      39.958 -13.227  -0.218  1.00  0.00    -0.075 SA
HETATM   26  C   UNL     1      40.080 -14.683  -1.079  1.00  0.00     0.076 A 
HETATM   27  C   UNL     1      41.120 -15.465  -0.644  1.00  0.00     0.038 A 
HETATM   28  C   UNL     1      41.877 -14.817   0.380  1.00  0.00     0.019 A 
BRANCH  26  29
HETATM   29  N   UNL     1      39.124 -14.862  -2.048  1.00  0.00    -0.322 N 
HETATM   30  C   UNL     1      39.442 -15.070  -3.377  1.00  0.00     0.218 C 
HETATM   31  C   UNL     1      38.233 -15.337  -4.234  1.00  0.00     0.117 C 
HETATM   32  O   UNL     1      40.570 -14.973  -3.857  1.00  0.00    -0.274 OA
HETATM   33  H   UNL     1      38.151 -14.763  -1.779  1.00  0.00     0.169 HD
ENDBRANCH  26  29
ENDBRANCH  23  24
ENDBRANCH   1  23
TORSDOF 8
ENDMDL
MODEL 5
REMARK VINA RESULT:      -7.8      4.587      7.428
REMARK  8 active torsions:
REMARK  status: ('A' for Active; 'I' for Inactive)
REMARK       I    between atoms: C_2  and  N_3 
REMARK    1  A    between atoms: N_3  and  C_4 
REMARK    2  A    between atoms: C_6  and  C_7 
REMARK    3  A    between atoms: C_7  and  N_8 
REMARK    4  A    between atoms: C_11  and  C_12 
REMARK    5  A    between atoms: C_14  and  S_15 
REMARK    6  A    between atoms: S_15  and  C_16 
REMARK    7  A    between atoms: C_16  and  C_17 
REMARK    8  A    between atoms: C_17  and  N_18 
ROOT
HETATM    1  N   UNL     1      40.527 -11.216   8.093  1.00  0.00    -0.066 N 
HETATM    2  H   UNL     1      41.110 -12.053   8.234  1.00  0.00     0.280 HD
HETATM    3  C   UNL     1      41.475 -10.035   8.126  1.00  0.00     0.246 C 
HETATM    4  C   UNL     1      42.223  -9.930   9.459  1.00  0.00     0.064 C 
HETATM    5  C   UNL     1      41.276 -10.028  10.661  1.00  0.00     0.014 C 
HETATM    6  C   UNL     1      40.284 -11.181  10.560  1.00  0.00     0.028 C 
HETATM    7  C   UNL     1      39.538 -11.173   9.235  1.00  0.00     0.235 C 
ENDROOT
BRANCH   4   8
HETATM    8  C   UNL     1      43.389 -10.908   9.552  1.00  0.00     0.044 A 
HETATM    9  N   UNL     1      43.825 -11.530   8.422  1.00  0.00    -0.227 NA
HETATM   10  C   UNL     1      44.766 -12.488   8.611  1.00  0.00     0.188 A 
HETATM   11  N   UNL     1      45.376 -12.756   9.771  1.00  0.00    -0.235 NA
HETATM   12  C   UNL     1      44.937 -12.100  10.854  1.00  0.00     0.121 A 
HETATM   13  C   UNL     1      43.929 -11.172  10.803  1.00  0.00     0.047 A 
BRANCH  10  14
HETATM   14  S   UNL     1      45.207 -13.590   7.288  1.00  0.00    -0.088 SA
BRANCH  14  15
HETATM   15  C   UNL     1      43.953 -14.884   7.437  1.00  0.00     0.110 C 
BRANCH  15  16
HETATM   16  C   UNL     1      43.903 -15.799   6.212  1.00  0.00     0.245 C 
BRANCH  16  17
HETATM   17  N   UNL     1      43.103 -17.059   6.432  1.00  0.00    -0.070 N 
HETATM   18  H   UNL     1      42.125 -16.869   6.158  1.00  0.00     0.279 HD
HETATM   19  C   UNL     1      43.094 -17.481   7.899  1.00  0.00     0.235 C 
HETATM   20  C   UNL     1      44.110 -18.600   7.951  1.00  0.00     0.029 C 
HETATM   21  C   UNL     1      43.814 -19.360   6.676  1.00  0.00     0.029 C 
HETATM   22  C   UNL     1      43.590 -18.270   5.642  1.00  0.00     0.235 C 
ENDBRANCH  16  17
ENDBRANCH  15  16
ENDBRANCH  14  15
ENDBRANCH  10  14
ENDBRANCH   4   8
BRANCH   1  23
HETATM   23  C   UNL     1      39.816 -11.346   6.753  1.00  0.00     0.280 C 
BRANCH  23  24
HETATM   24  C   UNL     1      40.507 -12.284   5.812  1.00  0.00     0.010 A 
HETATM   25  S   UNL     1      39.883 -13.859   5.524  1.00  0.00    -0.075 SA
HETATM   26  C   UNL     1      41.096 -14.202   4.391  1.00  0.00     0.076 A 
HETATM   27  C   UNL     1      42.029 -13.200   4.300  1.00  0.00     0.038 A 
HETATM   28  C   UNL     1      41.695 -12.091   5.136  1.00  0.00     0.019 A 
BRANCH  26  29
HETATM   29  N   UNL     1      40.974 -15.419   3.766  1.00  0.00    -0.322 N 
HETATM   30  C   UNL     1      40.431 -15.554   2.501  1.00  0.00     0.218 C 
HETATM   31  C   UNL     1      40.492 -16.967   1.986  1.00  0.00     0.117 C 
HETATM   32  O   UNL     1      39.876 -14.655   1.872  1.00  0.00    -0.274 OA
HETATM   33  H   UNL     1      41.229 -16.249   4.289  1.00  0.00     0.169 HD
ENDBRANCH  26  29
ENDBRANCH  23  24
ENDBRANCH   1  23
TORSDOF 8
ENDMDL
MODEL 6
REMARK VINA RESULT:      -7.7      1.906      2.915
REMARK  8 active torsions:
REMARK  status: ('A' for Active; 'I' for Inactive)
REMARK       I    between atoms: C_2  and  N_3 
REMARK    1  A    between atoms: N_3  and  C_4 
REMARK    2  A    between atoms: C_6  and  C_7 
REMARK    3  A    between atoms: C_7  and  N_8 
REMARK    4  A    between atoms: C_11  and  C_12 
REMARK    5  A    between atoms: C_14  and  S_15 
REMARK    6  A    between atoms: S_15  and  C_16 
REMARK    7  A    between atoms: C_16  and  C_17 
REMARK    8  A    between atoms: C_17  and  N_18 
ROOT
HETATM    1  N   UNL     1      41.207 -13.011   3.315  1.00  0.00    -0.066 N 
HETATM    2  H   UNL     1      41.640 -13.944   3.368  1.00  0.00     0.280 HD
HETATM    3  C   UNL     1      41.958 -12.144   4.304  1.00  0.00     0.246 C 
HETATM    4  C   UNL     1      41.861 -12.681   5.736  1.00  0.00     0.064 C 
HETATM    5  C   UNL     1      40.415 -13.006   6.132  1.00  0.00     0.014 C 
HETATM    6  C   UNL     1      39.663 -13.814   5.080  1.00  0.00     0.028 C 
HETATM    7  C   UNL     1      39.756 -13.176   3.702  1.00  0.00     0.235 C 
ENDROOT
BRANCH   4   8
HETATM    8  C   UNL     1      42.811 -13.846   5.987  1.00  0.00     0.044 A 
HETATM    9  N   UNL     1      42.500 -15.075   5.491  1.00  0.00    -0.227 NA
HETATM   10  C   UNL     1      43.320 -16.083   5.878  1.00  0.00     0.188 A 
HETATM   11  N   UNL     1      44.453 -15.937   6.574  1.00  0.00    -0.235 NA
HETATM   12  C   UNL     1      44.738 -14.705   7.019  1.00  0.00     0.121 A 
HETATM   13  C   UNL     1      43.937 -13.620   6.766  1.00  0.00     0.047 A 
BRANCH  10  14
HETATM   14  S   UNL     1      42.873 -17.776   5.569  1.00  0.00    -0.088 SA
BRANCH  14  15
HETATM   15  C   UNL     1      44.487 -18.559   5.336  1.00  0.00     0.110 C 
BRANCH  15  16
HETATM   16  C   UNL     1      44.376 -20.049   5.011  1.00  0.00     0.245 C 
BRANCH  16  17
HETATM   17  N   UNL     1      44.886 -20.407   3.637  1.00  0.00    -0.070 N 
HETATM   18  H   UNL     1      45.912 -20.294   3.637  1.00  0.00     0.279 HD
HETATM   19  C   UNL     1      44.321 -19.485   2.560  1.00  0.00     0.235 C 
HETATM   20  C   UNL     1      43.224 -20.309   1.926  1.00  0.00     0.029 C 
HETATM   21  C   UNL     1      43.859 -21.682   1.853  1.00  0.00     0.029 C 
HETATM   22  C   UNL     1      44.566 -21.831   3.189  1.00  0.00     0.235 C 
ENDBRANCH  16  17
ENDBRANCH  15  16
ENDBRANCH  14  15
ENDBRANCH  10  14
ENDBRANCH   4   8
BRANCH   1  23
HETATM   23  C   UNL     1      41.341 -12.502   1.886  1.00  0.00     0.280 C 
BRANCH  23  24
HETATM   24  C   UNL     1      41.095 -13.565   0.860  1.00  0.00     0.010 A 
HETATM   25  S   UNL     1      39.774 -13.444  -0.233  1.00  0.00    -0.075 SA
HETATM   26  C   UNL     1      40.218 -14.874  -1.028  1.00  0.00     0.076 A 
HETATM   27  C   UNL     1      41.277 -15.504  -0.424  1.00  0.00     0.038 A 
HETATM   28  C   UNL     1      41.779 -14.751   0.682  1.00  0.00     0.019 A 
BRANCH  26  29
HETATM   29  N   UNL     1      39.449 -15.189  -2.121  1.00  0.00    -0.322 N 
HETATM   30  C   UNL     1      39.999 -15.522  -3.345  1.00  0.00     0.218 C 
HETATM   31  C   UNL     1      38.963 -15.922  -4.363  1.00  0.00     0.117 C 
HETATM   32  O   UNL     1      41.192 -15.433  -3.631  1.00  0.00    -0.274 OA
HETATM   33  H   UNL     1      38.443 -15.099  -2.035  1.00  0.00     0.169 HD
ENDBRANCH  26  29
ENDBRANCH  23  24
ENDBRANCH   1  23
TORSDOF 8
ENDMDL
MODEL 7
REMARK VINA RESULT:      -7.7      2.184      3.139
REMARK  8 active torsions:
REMARK  status: ('A' for Active; 'I' for Inactive)
REMARK       I    between atoms: C_2  and  N_3 
REMARK    1  A    between atoms: N_3  and  C_4 
REMARK    2  A    between atoms: C_6  and  C_7 
REMARK    3  A    between atoms: C_7  and  N_8 
REMARK    4  A    between atoms: C_11  and  C_12 
REMARK    5  A    between atoms: C_14  and  S_15 
REMARK    6  A    between atoms: S_15  and  C_16 
REMARK    7  A    between atoms: C_16  and  C_17 
REMARK    8  A    between atoms: C_17  and  N_18 
ROOT
HETATM    1  N   UNL     1      40.810 -14.956   3.309  1.00  0.00    -0.066 N 
HETATM    2  H   UNL     1      40.914 -15.480   4.188  1.00  0.00     0.280 HD
HETATM    3  C   UNL     1      42.214 -14.597   2.866  1.00  0.00     0.246 C 
HETATM    4  C   UNL     1      42.944 -13.735   3.901  1.00  0.00     0.064 C 
HETATM    5  C   UNL     1      42.092 -12.548   4.367  1.00  0.00     0.014 C 
HETATM    6  C   UNL     1      40.663 -12.931   4.731  1.00  0.00     0.028 C 
HETATM    7  C   UNL     1      39.989 -13.727   3.623  1.00  0.00     0.235 C 
ENDROOT
BRANCH   4   8
HETATM    8  C   UNL     1      43.488 -14.557   5.064  1.00  0.00     0.044 A 
HETATM    9  N   UNL     1      43.412 -15.915   5.010  1.00  0.00    -0.227 NA
HETATM   10  C   UNL     1      43.785 -16.564   6.141  1.00  0.00     0.188 A 
HETATM   11  N   UNL     1      44.334 -15.991   7.217  1.00  0.00    -0.235 NA
HETATM   12  C   UNL     1      44.417 -14.654   7.219  1.00  0.00     0.121 A 
HETATM   13  C   UNL     1      43.990 -13.882   6.168  1.00  0.00     0.047 A 
BRANCH  10  14
HETATM   14  S   UNL     1      43.455 -18.300   6.332  1.00  0.00    -0.088 SA
BRANCH  14  15
HETATM   15  C   UNL     1      44.831 -19.050   5.429  1.00  0.00     0.110 C 
BRANCH  15  16
HETATM   16  C   UNL     1      44.544 -20.494   5.013  1.00  0.00     0.245 C 
BRANCH  16  17
HETATM   17  N   UNL     1      44.994 -20.817   3.609  1.00  0.00    -0.070 N 
HETATM   18  H   UNL     1      46.026 -20.812   3.595  1.00  0.00     0.279 HD
HETATM   19  C   UNL     1      44.515 -19.776   2.601  1.00  0.00     0.235 C 
HETATM   20  C   UNL     1      43.328 -20.440   1.941  1.00  0.00     0.029 C 
HETATM   21  C   UNL     1      43.813 -21.865   1.773  1.00  0.00     0.029 C 
HETATM   22  C   UNL     1      44.518 -22.169   3.084  1.00  0.00     0.235 C 
ENDBRANCH  16  17
ENDBRANCH  15  16
ENDBRANCH  14  15
ENDBRANCH  10  14
ENDBRANCH   4   8
BRANCH   1  23
HETATM   23  C   UNL     1      40.099 -15.849   2.300  1.00  0.00     0.280 C 
BRANCH  23  24
HETATM   24  C   UNL     1      40.485 -15.554   0.883  1.00  0.00     0.010 A 
HETATM   25  S   UNL     1      39.885 -14.158   0.081  1.00  0.00    -0.075 SA
HETATM   26  C   UNL     1      40.779 -14.500  -1.319  1.00  0.00     0.076 A 
HETATM   27  C   UNL     1      41.439 -15.700  -1.241  1.00  0.00     0.038 A 
HETATM   28  C   UNL     1      41.258 -16.321   0.033  1.00  0.00     0.019 A 
BRANCH  26  29
HETATM   29  N   UNL     1      40.689 -13.550  -2.307  1.00  0.00    -0.322 N 
HETATM   30  C   UNL     1      41.792 -12.870  -2.787  1.00  0.00     0.218 C 
HETATM   31  C   UNL     1      41.461 -11.951  -3.933  1.00  0.00     0.117 C 
HETATM   32  O   UNL     1      42.920 -12.922  -2.300  1.00  0.00    -0.274 OA
HETATM   33  H   UNL     1      39.764 -13.296  -2.638  1.00  0.00     0.169 HD
ENDBRANCH  26  29
ENDBRANCH  23  24
ENDBRANCH   1  23
TORSDOF 8
ENDMDL
MODEL 8
REMARK VINA RESULT:      -7.7      2.498      8.041
REMARK  8 active torsions:
REMARK  status: ('A' for Active; 'I' for Inactive)
REMARK       I    between atoms: C_2  and  N_3 
REMARK    1  A    between atoms: N_3  and  C_4 
REMARK    2  A    between atoms: C_6  and  C_7 
REMARK    3  A    between atoms: C_7  and  N_8 
REMARK    4  A    between atoms: C_11  and  C_12 
REMARK    5  A    between atoms: C_14  and  S_15 
REMARK    6  A    between atoms: S_15  and  C_16 
REMARK    7  A    between atoms: C_16  and  C_17 
REMARK    8  A    between atoms: C_17  and  N_18 
ROOT
HETATM    1  N   UNL     1      42.199 -14.716   5.179  1.00  0.00    -0.066 N 
HETATM    2  H   UNL     1      42.376 -14.547   4.179  1.00  0.00     0.280 HD
HETATM    3  C   UNL     1      40.721 -15.030   5.295  1.00  0.00     0.246 C 
HETATM    4  C   UNL     1      39.844 -13.876   4.799  1.00  0.00     0.064 C 
HETATM    5  C   UNL     1      40.265 -12.530   5.402  1.00  0.00     0.014 C 
HETATM    6  C   UNL     1      41.768 -12.280   5.339  1.00  0.00     0.028 C 
HETATM    7  C   UNL     1      42.562 -13.445   5.911  1.00  0.00     0.235 C 
ENDROOT
BRANCH   4   8
HETATM    8  C   UNL     1      39.746 -13.830   3.278  1.00  0.00     0.044 A 
HETATM    9  N   UNL     1      40.344 -14.810   2.545  1.00  0.00    -0.227 NA
HETATM   10  C   UNL     1      40.333 -14.620   1.202  1.00  0.00     0.188 A 
HETATM   11  N   UNL     1      39.679 -13.644   0.563  1.00  0.00    -0.235 NA
HETATM   12  C   UNL     1      39.079 -12.716   1.322  1.00  0.00     0.121 A 
HETATM   13  C   UNL     1      39.096 -12.753   2.693  1.00  0.00     0.047 A 
BRANCH  10  14
HETATM   14  S   UNL     1      41.329 -15.641   0.142  1.00  0.00    -0.088 SA
BRANCH  14  15
HETATM   15  C   UNL     1      41.225 -14.765  -1.437  1.00  0.00     0.110 C 
BRANCH  15  16
HETATM   16  C   UNL     1      40.837 -15.685  -2.596  1.00  0.00     0.245 C 
BRANCH  16  17
HETATM   17  N   UNL     1      39.959 -15.019  -3.627  1.00  0.00    -0.070 N 
HETATM   18  H   UNL     1      40.561 -14.702  -4.403  1.00  0.00     0.279 HD
HETATM   19  C   UNL     1      39.248 -13.791  -3.065  1.00  0.00     0.235 C 
HETATM   20  C   UNL     1      37.849 -14.289  -2.783  1.00  0.00     0.029 C 
HETATM   21  C   UNL     1      37.570 -15.156  -3.992  1.00  0.00     0.029 C 
HETATM   22  C   UNL     1      38.868 -15.914  -4.208  1.00  0.00     0.235 C 
ENDBRANCH  16  17
ENDBRANCH  15  16
ENDBRANCH  14  15
ENDBRANCH  10  14
ENDBRANCH   4   8
BRANCH   1  23
HETATM   23  C   UNL     1      43.072 -15.879   5.631  1.00  0.00     0.280 C 
BRANCH  23  24
HETATM   24  C   UNL     1      43.450 -16.798   4.510  1.00  0.00     0.010 A 
HETATM   25  S   UNL     1      44.115 -18.349   4.831  1.00  0.00    -0.075 SA
HETATM   26  C   UNL     1      44.182 -18.732   3.180  1.00  0.00     0.076 A 
HETATM   27  C   UNL     1      43.816 -17.678   2.381  1.00  0.00     0.038 A 
HETATM   28  C   UNL     1      43.404 -16.549   3.152  1.00  0.00     0.019 A 
BRANCH  26  29
HETATM   29  N   UNL     1      44.606 -20.008   2.901  1.00  0.00    -0.322 N 
HETATM   30  C   UNL     1      43.857 -20.892   2.146  1.00  0.00     0.218 C 
HETATM   31  C   UNL     1      44.569 -22.194   1.893  1.00  0.00     0.117 C 
HETATM   32  O   UNL     1      42.700 -20.700   1.777  1.00  0.00    -0.274 OA
HETATM   33  H   UNL     1      45.468 -20.326   3.330  1.00  0.00     0.169 HD
ENDBRANCH  26  29
ENDBRANCH  23  24
ENDBRANCH   1  23
TORSDOF 8
ENDMDL
MODEL 9
REMARK VINA RESULT:      -7.7      3.106      8.194
REMARK  8 active torsions:
REMARK  status: ('A' for Active; 'I' for Inactive)
REMARK       I    between atoms: C_2  and  N_3 
REMARK    1  A    between atoms: N_3  and  C_4 
REMARK    2  A    between atoms: C_6  and  C_7 
REMARK    3  A    between atoms: C_7  and  N_8 
REMARK    4  A    between atoms: C_11  and  C_12 
REMARK    5  A    between atoms: C_14  and  S_15 
REMARK    6  A    between atoms: S_15  and  C_16 
REMARK    7  A    between atoms: C_16  and  C_17 
REMARK    8  A    between atoms: C_17  and  N_18 
ROOT
HETATM    1  N   UNL     1      42.068 -15.304   5.766  1.00  0.00    -0.066 N 
HETATM    2  H   UNL     1      42.037 -15.604   4.782  1.00  0.00     0.280 HD
HETATM    3  C   UNL     1      40.696 -14.741   6.074  1.00  0.00     0.246 C 
HETATM    4  C   UNL     1      40.343 -13.550   5.178  1.00  0.00     0.064 C 
HETATM    5  C   UNL     1      41.470 -12.510   5.131  1.00  0.00     0.014 C 
HETATM    6  C   UNL     1      42.848 -13.117   4.896  1.00  0.00     0.028 C 
HETATM    7  C   UNL     1      43.144 -14.247   5.870  1.00  0.00     0.235 C 
ENDROOT
BRANCH   4   8
HETATM    8  C   UNL     1      39.888 -13.981   3.788  1.00  0.00     0.044 A 
HETATM    9  N   UNL     1      40.281 -15.193   3.308  1.00  0.00    -0.227 NA
HETATM   10  C   UNL     1      39.955 -15.440   2.015  1.00  0.00     0.188 A 
HETATM   11  N   UNL     1      39.180 -14.664   1.250  1.00  0.00    -0.235 NA
HETATM   12  C   UNL     1      38.790 -13.492   1.771  1.00  0.00     0.121 A 
HETATM   13  C   UNL     1      39.132 -13.092   3.038  1.00  0.00     0.047 A 
BRANCH  10  14
HETATM   14  S   UNL     1      40.656 -16.832   1.160  1.00  0.00    -0.088 SA
BRANCH  14  15
HETATM   15  C   UNL     1      41.807 -16.035   0.016  1.00  0.00     0.110 C 
BRANCH  15  16
HETATM   16  C   UNL     1      41.148 -15.651  -1.310  1.00  0.00     0.245 C 
BRANCH  16  17
HETATM   17  N   UNL     1      40.937 -14.166  -1.470  1.00  0.00    -0.070 N 
HETATM   18  H   UNL     1      39.950 -13.957  -1.248  1.00  0.00     0.279 HD
HETATM   19  C   UNL     1      41.192 -13.704  -2.902  1.00  0.00     0.235 C 
HETATM   20  C   UNL     1      42.573 -13.091  -2.836  1.00  0.00     0.029 C 
HETATM   21  C   UNL     1      42.525 -12.340  -1.522  1.00  0.00     0.029 C 
HETATM   22  C   UNL     1      41.818 -13.297  -0.578  1.00  0.00     0.235 C 
ENDBRANCH  16  17
ENDBRANCH  15  16
ENDBRANCH  14  15
ENDBRANCH  10  14
ENDBRANCH   4   8
BRANCH   1  23
HETATM   23  C   UNL     1      42.400 -16.514   6.628  1.00  0.00     0.280 C 
BRANCH  23  24
HETATM   24  C   UNL     1      43.261 -17.516   5.922  1.00  0.00     0.010 A 
HETATM   25  S   UNL     1      42.718 -18.285   4.485  1.00  0.00    -0.075 SA
HETATM   26  C   UNL     1      44.178 -19.129   4.308  1.00  0.00     0.076 A 
HETATM   27  C   UNL     1      45.031 -18.930   5.365  1.00  0.00     0.038 A 
HETATM   28  C   UNL     1      44.494 -18.004   6.311  1.00  0.00     0.019 A 
BRANCH  26  29
HETATM   29  N   UNL     1      44.273 -19.885   3.166  1.00  0.00    -0.322 N 
HETATM   30  C   UNL     1      44.451 -21.256   3.195  1.00  0.00     0.218 C 
HETATM   31  C   UNL     1      44.428 -21.878   1.823  1.00  0.00     0.117 C 
HETATM   32  O   UNL     1      44.688 -21.916   4.205  1.00  0.00    -0.274 OA
HETATM   33  H   UNL     1      44.283 -19.400   2.275  1.00  0.00     0.169 HD
ENDBRANCH  26  29
ENDBRANCH  23  24
ENDBRANCH   1  23
TORSDOF 8
ENDMDL
MODEL 10
REMARK VINA RESULT:      -7.7      2.837      8.414
REMARK  8 active torsions:
REMARK  status: ('A' for Active; 'I' for Inactive)
REMARK       I    between atoms: C_2  and  N_3 
REMARK    1  A    between atoms: N_3  and  C_4 
REMARK    2  A    between atoms: C_6  and  C_7 
REMARK    3  A    between atoms: C_7  and  N_8 
REMARK    4  A    between atoms: C_11  and  C_12 
REMARK    5  A    between atoms: C_14  and  S_15 
REMARK    6  A    between atoms: S_15  and  C_16 
REMARK    7  A    between atoms: C_16  and  C_17 
REMARK    8  A    between atoms: C_17  and  N_18 
ROOT
HETATM    1  N   UNL     1      43.172 -15.545   5.918  1.00  0.00    -0.066 N 
HETATM    2  H   UNL     1      43.232 -15.641   4.895  1.00  0.00     0.280 HD
HETATM    3  C   UNL     1      41.743 -15.883   6.288  1.00  0.00     0.246 C 
HETATM    4  C   UNL     1      40.734 -14.945   5.618  1.00  0.00     0.064 C 
HETATM    5  C   UNL     1      41.113 -13.469   5.795  1.00  0.00     0.014 C 
HETATM    6  C   UNL     1      42.577 -13.177   5.490  1.00  0.00     0.028 C 
HETATM    7  C   UNL     1      43.512 -14.109   6.245  1.00  0.00     0.235 C 
ENDROOT
BRANCH   4   8
HETATM    8  C   UNL     1      40.476 -15.311   4.160  1.00  0.00     0.044 A 
HETATM    9  N   UNL     1      39.793 -14.440   3.368  1.00  0.00    -0.227 NA
HETATM   10  C   UNL     1      39.482 -14.899   2.131  1.00  0.00     0.188 A 
HETATM   11  N   UNL     1      39.907 -16.053   1.604  1.00  0.00    -0.235 NA
HETATM   12  C   UNL     1      40.602 -16.869   2.408  1.00  0.00     0.121 A 
HETATM   13  C   UNL     1      40.902 -16.552   3.709  1.00  0.00     0.047 A 
BRANCH  10  14
HETATM   14  S   UNL     1      38.340 -14.008   1.101  1.00  0.00    -0.088 SA
BRANCH  14  15
HETATM   15  C   UNL     1      39.415 -12.794   0.302  1.00  0.00     0.110 C 
BRANCH  15  16
HETATM   16  C   UNL     1      39.638 -13.091  -1.182  1.00  0.00     0.245 C 
BRANCH  16  17
HETATM   17  N   UNL     1      39.521 -14.556  -1.528  1.00  0.00    -0.070 N 
HETATM   18  H   UNL     1      39.003 -15.023  -0.766  1.00  0.00     0.279 HD
HETATM   19  C   UNL     1      40.886 -15.229  -1.636  1.00  0.00     0.235 C 
HETATM   20  C   UNL     1      41.124 -15.311  -3.127  1.00  0.00     0.029 C 
HETATM   21  C   UNL     1      39.756 -15.702  -3.646  1.00  0.00     0.029 C 
HETATM   22  C   UNL     1      38.798 -14.844  -2.840  1.00  0.00     0.235 C 
ENDBRANCH  16  17
ENDBRANCH  15  16
ENDBRANCH  14  15
ENDBRANCH  10  14
ENDBRANCH   4   8
BRANCH   1  23
HETATM   23  C   UNL     1      44.172 -16.504   6.549  1.00  0.00     0.280 C 
BRANCH  23  24
HETATM   24  C   UNL     1      44.214 -17.838   5.869  1.00  0.00     0.010 A 
HETATM   25  S   UNL     1      44.004 -17.964   4.168  1.00  0.00    -0.075 SA
HETATM   26  C   UNL     1      44.244 -19.642   4.199  1.00  0.00     0.076 A 
HETATM   27  C   UNL     1      44.372 -20.131   5.475  1.00  0.00     0.038 A 
HETATM   28  C   UNL     1      44.341 -19.085   6.447  1.00  0.00     0.019 A 
BRANCH  26  29
HETATM   29  N   UNL     1      44.250 -20.247   2.966  1.00  0.00    -0.322 N 
HETATM   30  C   UNL     1      44.337 -21.618   2.811  1.00  0.00     0.218 C 
HETATM   31  C   UNL     1      44.228 -22.053   1.373  1.00  0.00     0.117 C 
HETATM   32  O   UNL     1      44.562 -22.418   3.717  1.00  0.00    -0.274 OA
HETATM   33  H   UNL     1      44.265 -19.651   2.146  1.00  0.00     0.169 HD
ENDBRANCH  26  29
ENDBRANCH  23  24
ENDBRANCH   1  23
TORSDOF 8
ENDMDL
