MODEL 1
REMARK VINA RESULT:      -7.8      0.000      0.000
REMARK  6 active torsions:
REMARK  status: ('A' for Active; 'I' for Inactive)
REMARK    1  A    between atoms: C_2  and  N_3 
REMARK    2  A    between atoms: C_2  and  C_21 
REMARK    3  A    between atoms: N_3  and  C_6 
REMARK    4  A    between atoms: C_6  and  C_7 
REMARK       I    between atoms: C_7  and  N_8 
REMARK    5  A    between atoms: N_8  and  C_9 
REMARK    6  A    between atoms: C_16  and  C_17 
REMARK       I    between atoms: C_17  and  N_18 
ROOT
HETATM    1  C   UNL     1      42.090 -15.995   4.721  1.00  0.00     0.248 C 
HETATM    2  N   UNL     1      43.170 -16.480   4.021  1.00  0.00    -0.319 N 
HETATM    3  O   UNL     1      41.129 -16.603   5.184  1.00  0.00    -0.271 OA
HETATM    4  H   UNL     1      43.911 -15.841   3.724  1.00  0.00     0.169 HD
ENDROOT
BRANCH   2   5
HETATM    5  C   UNL     1      43.490 -17.811   3.783  1.00  0.00     0.093 A 
HETATM    6  S   UNL     1      44.234 -18.781   4.975  1.00  0.00    -0.075 SA
HETATM    7  C   UNL     1      44.311 -20.063   3.914  1.00  0.00    -0.008 A 
HETATM    8  C   UNL     1      43.770 -19.813   2.681  1.00  0.00    -0.026 A 
HETATM    9  C   UNL     1      44.902 -21.412   4.072  1.00  0.00     0.047 C 
HETATM   10  C   UNL     1      43.926 -21.004   1.801  1.00  0.00     0.041 C 
HETATM   11  C   UNL     1      43.271 -18.481   2.573  1.00  0.00     0.072 A 
HETATM   12  C   UNL     1      44.368 -22.122   2.796  1.00  0.00     0.010 C 
BRANCH  11  13
HETATM   13  C   UNL     1      42.667 -17.791   1.432  1.00  0.00     0.252 C 
HETATM   14  N   UNL     1      43.496 -17.377   0.435  1.00  0.00    -0.366 N 
HETATM   15  H   UNL     1      44.463 -17.652   0.373  1.00  0.00     0.159 HD
HETATM   16  H   UNL     1      43.072 -16.976  -0.392  1.00  0.00     0.159 HD
HETATM   17  O   UNL     1      41.452 -17.606   1.352  1.00  0.00    -0.268 OA
ENDBRANCH  11  13
ENDBRANCH   2   5
BRANCH   1  18
HETATM   18  C   UNL     1      42.191 -14.503   5.028  1.00  0.00     0.335 C 
BRANCH  18  19
HETATM   19  N   UNL     1      42.700 -14.275   6.432  1.00  0.00    -0.057 N 
HETATM   20  H   UNL     1      42.020 -14.767   7.044  1.00  0.00     0.278 HD
HETATM   21  H   UNL     1      42.639 -13.284   6.680  1.00  0.00     0.278 HD
BRANCH  19  22
HETATM   22  C   UNL     1      44.050 -14.823   6.806  1.00  0.00     0.239 C 
HETATM   23  C   UNL     1      43.898 -16.075   7.661  1.00  0.00     0.047 C 
BRANCH  22  24
HETATM   24  C   UNL     1      44.933 -13.786   7.402  1.00  0.00     0.082 A 
HETATM   25  O   UNL     1      44.543 -13.351   8.637  1.00  0.00    -0.325 OA
HETATM   26  C   UNL     1      45.460 -12.440   9.050  1.00  0.00     0.142 A 
HETATM   27  C   UNL     1      46.437 -12.279   8.097  1.00  0.00     0.027 A 
HETATM   28  C   UNL     1      46.099 -13.148   7.028  1.00  0.00     0.037 A 
ENDBRANCH  22  24
ENDBRANCH  19  22
ENDBRANCH  18  19
ENDBRANCH   1  18
TORSDOF 6
ENDMDL
MODEL 2
REMARK VINA RESULT:      -7.6      1.615      2.478
REMARK  6 active torsions:
REMARK  status: ('A' for Active; 'I' for Inactive)
REMARK    1  A    between atoms: C_2  and  N_3 
REMARK    2  A    between atoms: C_2  and  C_21 
REMARK    3  A    between atoms: N_3  and  C_6 
REMARK    4  A    between atoms: C_6  and  C_7 
REMARK       I    between atoms: C_7  and  N_8 
REMARK    5  A    between atoms: N_8  and  C_9 
REMARK    6  A    between atoms: C_16  and  C_17 
REMARK       I    between atoms: C_17  and  N_18 
ROOT
HETATM    1  C   UNL     1      42.517 -16.372   4.308  1.00  0.00     0.248 C 
HETATM    2  N   UNL     1      43.616 -16.919   3.688  1.00  0.00    -0.319 N 
HETATM    3  O   UNL     1      41.462 -16.911   4.633  1.00  0.00    -0.271 OA
HETATM    4  H   UNL     1      44.438 -16.338   3.509  1.00  0.00     0.169 HD
ENDROOT
BRANCH   2   5
HETATM    5  C   UNL     1      43.839 -18.258   3.394  1.00  0.00     0.093 A 
HETATM    6  S   UNL     1      43.510 -18.902   1.848  1.00  0.00    -0.075 SA
HETATM    7  C   UNL     1      43.950 -20.424   2.365  1.00  0.00    -0.008 A 
HETATM    8  C   UNL     1      44.370 -20.482   3.666  1.00  0.00    -0.026 A 
HETATM    9  C   UNL     1      43.924 -21.727   1.660  1.00  0.00     0.047 C 
HETATM   10  C   UNL     1      44.700 -21.885   4.038  1.00  0.00     0.041 C 
HETATM   11  C   UNL     1      44.317 -19.208   4.306  1.00  0.00     0.072 A 
HETATM   12  C   UNL     1      44.709 -22.621   2.661  1.00  0.00     0.010 C 
BRANCH  11  13
HETATM   13  C   UNL     1      44.625 -18.834   5.687  1.00  0.00     0.252 C 
HETATM   14  N   UNL     1      43.819 -19.325   6.667  1.00  0.00    -0.366 N 
HETATM   15  H   UNL     1      43.131 -20.042   6.505  1.00  0.00     0.159 HD
HETATM   16  H   UNL     1      44.079 -19.137   7.627  1.00  0.00     0.159 HD
HETATM   17  O   UNL     1      45.588 -18.119   5.969  1.00  0.00    -0.268 OA
ENDBRANCH  11  13
ENDBRANCH   2   5
BRANCH   1  18
HETATM   18  C   UNL     1      42.719 -14.917   4.723  1.00  0.00     0.335 C 
BRANCH  18  19
HETATM   19  N   UNL     1      42.764 -14.786   6.227  1.00  0.00    -0.057 N 
HETATM   20  H   UNL     1      41.998 -15.398   6.570  1.00  0.00     0.278 HD
HETATM   21  H   UNL     1      42.517 -13.835   6.513  1.00  0.00     0.278 HD
BRANCH  19  22
HETATM   22  C   UNL     1      44.000 -15.242   6.953  1.00  0.00     0.239 C 
HETATM   23  C   UNL     1      43.633 -16.205   8.076  1.00  0.00     0.047 C 
BRANCH  22  24
HETATM   24  C   UNL     1      44.852 -14.103   7.384  1.00  0.00     0.082 A 
HETATM   25  O   UNL     1      44.537 -13.592   8.611  1.00  0.00    -0.325 OA
HETATM   26  C   UNL     1      45.417 -12.592   8.868  1.00  0.00     0.142 A 
HETATM   27  C   UNL     1      46.296 -12.449   7.822  1.00  0.00     0.027 A 
HETATM   28  C   UNL     1      45.933 -13.424   6.859  1.00  0.00     0.037 A 
ENDBRANCH  22  24
ENDBRANCH  19  22
ENDBRANCH  18  19
ENDBRANCH   1  18
TORSDOF 6
ENDMDL
MODEL 3
REMARK VINA RESULT:      -7.5      3.535      5.798
REMARK  6 active torsions:
REMARK  status: ('A' for Active; 'I' for Inactive)
REMARK    1  A    between atoms: C_2  and  N_3 
REMARK    2  A    between atoms: C_2  and  C_21 
REMARK    3  A    between atoms: N_3  and  C_6 
REMARK    4  A    between atoms: C_6  and  C_7 
REMARK       I    between atoms: C_7  and  N_8 
REMARK    5  A    between atoms: N_8  and  C_9 
REMARK    6  A    between atoms: C_16  and  C_17 
REMARK       I    between atoms: C_17  and  N_18 
ROOT
HETATM    1  C   UNL     1      41.050 -15.176   3.924  1.00  0.00     0.248 C 
HETATM    2  N   UNL     1      40.874 -16.540   3.919  1.00  0.00    -0.319 N 
HETATM    3  O   UNL     1      42.082 -14.527   4.067  1.00  0.00    -0.271 OA
HETATM    4  H   UNL     1      39.944 -16.931   3.757  1.00  0.00     0.169 HD
ENDROOT
BRANCH   2   5
HETATM    5  C   UNL     1      41.862 -17.516   3.950  1.00  0.00     0.093 A 
HETATM    6  S   UNL     1      42.454 -18.145   5.422  1.00  0.00    -0.075 SA
HETATM    7  C   UNL     1      43.547 -19.098   4.601  1.00  0.00    -0.008 A 
HETATM    8  C   UNL     1      43.478 -18.993   3.238  1.00  0.00    -0.026 A 
HETATM    9  C   UNL     1      44.602 -20.008   5.104  1.00  0.00     0.047 C 
HETATM   10  C   UNL     1      44.518 -19.851   2.605  1.00  0.00     0.041 C 
HETATM   11  C   UNL     1      42.484 -18.060   2.819  1.00  0.00     0.072 A 
HETATM   12  C   UNL     1      45.021 -20.729   3.792  1.00  0.00     0.010 C 
BRANCH  11  13
HETATM   13  C   UNL     1      42.118 -17.615   1.474  1.00  0.00     0.252 C 
HETATM   14  N   UNL     1      43.127 -17.283   0.623  1.00  0.00    -0.366 N 
HETATM   15  H   UNL     1      44.096 -17.473   0.820  1.00  0.00     0.159 HD
HETATM   16  H   UNL     1      42.881 -17.056  -0.332  1.00  0.00     0.159 HD
HETATM   17  O   UNL     1      40.944 -17.559   1.104  1.00  0.00    -0.268 OA
ENDBRANCH  11  13
ENDBRANCH   2   5
BRANCH   1  18
HETATM   18  C   UNL     1      39.773 -14.402   3.604  1.00  0.00     0.335 C 
BRANCH  18  19
HETATM   19  N   UNL     1      39.096 -14.965   2.376  1.00  0.00    -0.057 N 
HETATM   20  H   UNL     1      38.174 -15.304   2.713  1.00  0.00     0.278 HD
HETATM   21  H   UNL     1      39.596 -15.791   2.037  1.00  0.00     0.278 HD
BRANCH  19  22
HETATM   22  C   UNL     1      38.790 -14.036   1.232  1.00  0.00     0.239 C 
HETATM   23  C   UNL     1      37.343 -14.201   0.785  1.00  0.00     0.047 C 
BRANCH  22  24
HETATM   24  C   UNL     1      39.782 -14.154   0.131  1.00  0.00     0.082 A 
HETATM   25  O   UNL     1      39.241 -14.146  -1.122  1.00  0.00    -0.325 OA
HETATM   26  C   UNL     1      40.269 -14.229  -2.005  1.00  0.00     0.142 A 
HETATM   27  C   UNL     1      41.468 -14.292  -1.336  1.00  0.00     0.027 A 
HETATM   28  C   UNL     1      41.157 -14.246   0.047  1.00  0.00     0.037 A 
ENDBRANCH  22  24
ENDBRANCH  19  22
ENDBRANCH  18  19
ENDBRANCH   1  18
TORSDOF 6
ENDMDL
MODEL 4
REMARK VINA RESULT:      -7.3      2.584      4.522
REMARK  6 active torsions:
REMARK  status: ('A' for Active; 'I' for Inactive)
REMARK    1  A    between atoms: C_2  and  N_3 
REMARK    2  A    between atoms: C_2  and  C_21 
REMARK    3  A    between atoms: N_3  and  C_6 
REMARK    4  A    between atoms: C_6  and  C_7 
REMARK       I    between atoms: C_7  and  N_8 
REMARK    5  A    between atoms: N_8  and  C_9 
REMARK    6  A    between atoms: C_16  and  C_17 
REMARK       I    between atoms: C_17  and  N_18 
ROOT
HETATM    1  C   UNL     1      42.078 -16.013   4.822  1.00  0.00     0.248 C 
HETATM    2  N   UNL     1      43.223 -16.491   4.229  1.00  0.00    -0.319 N 
HETATM    3  O   UNL     1      41.049 -16.614   5.118  1.00  0.00    -0.271 OA
HETATM    4  H   UNL     1      44.014 -15.862   4.073  1.00  0.00     0.169 HD
ENDROOT
BRANCH   2   5
HETATM    5  C   UNL     1      43.531 -17.813   3.936  1.00  0.00     0.093 A 
HETATM    6  S   UNL     1      44.301 -18.827   5.074  1.00  0.00    -0.075 SA
HETATM    7  C   UNL     1      44.346 -20.072   3.968  1.00  0.00    -0.008 A 
HETATM    8  C   UNL     1      43.775 -19.777   2.759  1.00  0.00    -0.026 A 
HETATM    9  C   UNL     1      44.934 -21.428   4.065  1.00  0.00     0.047 C 
HETATM   10  C   UNL     1      43.903 -20.937   1.834  1.00  0.00     0.041 C 
HETATM   11  C   UNL     1      43.279 -18.440   2.709  1.00  0.00     0.072 A 
HETATM   12  C   UNL     1      44.365 -22.091   2.778  1.00  0.00     0.010 C 
BRANCH  11  13
HETATM   13  C   UNL     1      42.649 -17.710   1.609  1.00  0.00     0.252 C 
HETATM   14  N   UNL     1      43.432 -17.365   0.551  1.00  0.00    -0.366 N 
HETATM   15  H   UNL     1      44.367 -17.717   0.422  1.00  0.00     0.159 HD
HETATM   16  H   UNL     1      42.983 -16.935  -0.247  1.00  0.00     0.159 HD
HETATM   17  O   UNL     1      41.450 -17.429   1.616  1.00  0.00    -0.268 OA
ENDBRANCH  11  13
ENDBRANCH   2   5
BRANCH   1  18
HETATM   18  C   UNL     1      42.184 -14.550   5.246  1.00  0.00     0.335 C 
BRANCH  18  19
HETATM   19  N   UNL     1      41.800 -13.631   4.111  1.00  0.00    -0.057 N 
HETATM   20  H   UNL     1      41.818 -14.232   3.265  1.00  0.00     0.278 HD
HETATM   21  H   UNL     1      42.519 -12.917   3.968  1.00  0.00     0.278 HD
BRANCH  19  22
HETATM   22  C   UNL     1      40.435 -12.997   4.127  1.00  0.00     0.239 C 
HETATM   23  C   UNL     1      39.768 -13.205   5.481  1.00  0.00     0.047 C 
BRANCH  22  24
HETATM   24  C   UNL     1      39.604 -13.422   2.970  1.00  0.00     0.082 A 
HETATM   25  O   UNL     1      39.573 -14.771   2.758  1.00  0.00    -0.325 OA
HETATM   26  C   UNL     1      38.756 -14.994   1.698  1.00  0.00     0.142 A 
HETATM   27  C   UNL     1      38.259 -13.805   1.221  1.00  0.00     0.027 A 
HETATM   28  C   UNL     1      38.806 -12.786   2.040  1.00  0.00     0.037 A 
ENDBRANCH  22  24
ENDBRANCH  19  22
ENDBRANCH  18  19
ENDBRANCH   1  18
TORSDOF 6
ENDMDL
MODEL 5
REMARK VINA RESULT:      -7.3      1.430      2.051
REMARK  6 active torsions:
REMARK  status: ('A' for Active; 'I' for Inactive)
REMARK    1  A    between atoms: C_2  and  N_3 
REMARK    2  A    between atoms: C_2  and  C_21 
REMARK    3  A    between atoms: N_3  and  C_6 
REMARK    4  A    between atoms: C_6  and  C_7 
REMARK       I    between atoms: C_7  and  N_8 
REMARK    5  A    between atoms: N_8  and  C_9 
REMARK    6  A    between atoms: C_16  and  C_17 
REMARK       I    between atoms: C_17  and  N_18 
ROOT
HETATM    1  C   UNL     1      40.624 -15.787   5.332  1.00  0.00     0.248 C 
HETATM    2  N   UNL     1      41.361 -16.128   4.222  1.00  0.00    -0.319 N 
HETATM    3  O   UNL     1      40.450 -16.418   6.371  1.00  0.00    -0.271 OA
HETATM    4  H   UNL     1      41.431 -15.473   3.440  1.00  0.00     0.169 HD
ENDROOT
BRANCH   2   5
HETATM    5  C   UNL     1      42.193 -17.229   4.069  1.00  0.00     0.093 A 
HETATM    6  S   UNL     1      43.027 -17.913   5.393  1.00  0.00    -0.075 SA
HETATM    7  C   UNL     1      43.763 -19.018   4.386  1.00  0.00    -0.008 A 
HETATM    8  C   UNL     1      43.391 -18.924   3.072  1.00  0.00    -0.026 A 
HETATM    9  C   UNL     1      44.779 -20.056   4.673  1.00  0.00     0.047 C 
HETATM   10  C   UNL     1      44.132 -19.925   2.256  1.00  0.00     0.041 C 
HETATM   11  C   UNL     1      42.455 -17.870   2.851  1.00  0.00     0.072 A 
HETATM   12  C   UNL     1      44.782 -20.847   3.334  1.00  0.00     0.010 C 
BRANCH  11  13
HETATM   13  C   UNL     1      41.845 -17.398   1.608  1.00  0.00     0.252 C 
HETATM   14  N   UNL     1      42.677 -16.970   0.620  1.00  0.00    -0.366 N 
HETATM   15  H   UNL     1      43.675 -17.106   0.644  1.00  0.00     0.159 HD
HETATM   16  H   UNL     1      42.263 -16.723  -0.269  1.00  0.00     0.159 HD
HETATM   17  O   UNL     1      40.625 -17.402   1.440  1.00  0.00    -0.268 OA
ENDBRANCH  11  13
ENDBRANCH   2   5
BRANCH   1  18
HETATM   18  C   UNL     1      40.043 -14.377   5.261  1.00  0.00     0.335 C 
BRANCH  18  19
HETATM   19  N   UNL     1      40.711 -13.468   6.265  1.00  0.00    -0.057 N 
HETATM   20  H   UNL     1      41.051 -14.102   7.013  1.00  0.00     0.278 HD
HETATM   21  H   UNL     1      40.022 -12.852   6.707  1.00  0.00     0.278 HD
BRANCH  19  22
HETATM   22  C   UNL     1      41.913 -12.674   5.831  1.00  0.00     0.239 C 
HETATM   23  C   UNL     1      41.876 -12.433   4.327  1.00  0.00     0.047 C 
BRANCH  22  24
HETATM   24  C   UNL     1      43.186 -13.268   6.318  1.00  0.00     0.082 A 
HETATM   25  O   UNL     1      43.638 -12.750   7.498  1.00  0.00    -0.325 OA
HETATM   26  C   UNL     1      44.778 -13.412   7.818  1.00  0.00     0.142 A 
HETATM   27  C   UNL     1      45.070 -14.352   6.857  1.00  0.00     0.027 A 
HETATM   28  C   UNL     1      44.042 -14.260   5.885  1.00  0.00     0.037 A 
ENDBRANCH  22  24
ENDBRANCH  19  22
ENDBRANCH  18  19
ENDBRANCH   1  18
TORSDOF 6
ENDMDL
MODEL 6
REMARK VINA RESULT:      -7.2      3.221      5.802
REMARK  6 active torsions:
REMARK  status: ('A' for Active; 'I' for Inactive)
REMARK    1  A    between atoms: C_2  and  N_3 
REMARK    2  A    between atoms: C_2  and  C_21 
REMARK    3  A    between atoms: N_3  and  C_6 
REMARK    4  A    between atoms: C_6  and  C_7 
REMARK       I    between atoms: C_7  and  N_8 
REMARK    5  A    between atoms: N_8  and  C_9 
REMARK    6  A    between atoms: C_16  and  C_17 
REMARK       I    between atoms: C_17  and  N_18 
ROOT
HETATM    1  C   UNL     1      43.089 -13.891   3.809  1.00  0.00     0.248 C 
HETATM    2  N   UNL     1      42.475 -15.097   4.056  1.00  0.00    -0.319 N 
HETATM    3  O   UNL     1      44.278 -13.651   3.615  1.00  0.00    -0.271 OA
HETATM    4  H   UNL     1      41.460 -15.136   4.169  1.00  0.00     0.169 HD
ENDROOT
BRANCH   2   5
HETATM    5  C   UNL     1      43.053 -16.360   4.019  1.00  0.00     0.093 A 
HETATM    6  S   UNL     1      43.295 -17.192   2.549  1.00  0.00    -0.075 SA
HETATM    7  C   UNL     1      43.902 -18.509   3.368  1.00  0.00    -0.008 A 
HETATM    8  C   UNL     1      43.964 -18.352   4.727  1.00  0.00    -0.026 A 
HETATM    9  C   UNL     1      44.348 -19.832   2.873  1.00  0.00     0.047 C 
HETATM   10  C   UNL     1      44.481 -19.595   5.364  1.00  0.00     0.041 C 
HETATM   11  C   UNL     1      43.468 -17.082   5.146  1.00  0.00     0.072 A 
HETATM   12  C   UNL     1      45.014 -20.418   4.150  1.00  0.00     0.010 C 
BRANCH  11  13
HETATM   13  C   UNL     1      43.309 -16.530   6.492  1.00  0.00     0.252 C 
HETATM   14  N   UNL     1      42.494 -17.195   7.354  1.00  0.00    -0.366 N 
HETATM   15  H   UNL     1      42.125 -18.113   7.164  1.00  0.00     0.159 HD
HETATM   16  H   UNL     1      42.448 -16.864   8.309  1.00  0.00     0.159 HD
HETATM   17  O   UNL     1      43.903 -15.513   6.852  1.00  0.00    -0.268 OA
ENDBRANCH  11  13
ENDBRANCH   2   5
BRANCH   1  18
HETATM   18  C   UNL     1      42.106 -12.733   3.663  1.00  0.00     0.335 C 
BRANCH  18  19
HETATM   19  N   UNL     1      42.096 -12.209   2.246  1.00  0.00    -0.057 N 
HETATM   20  H   UNL     1      43.066 -11.879   2.078  1.00  0.00     0.278 HD
HETATM   21  H   UNL     1      41.498 -11.382   2.173  1.00  0.00     0.278 HD
BRANCH  19  22
HETATM   22  C   UNL     1      41.797 -13.168   1.126  1.00  0.00     0.239 C 
HETATM   23  C   UNL     1      42.080 -12.516  -0.222  1.00  0.00     0.047 C 
BRANCH  22  24
HETATM   24  C   UNL     1      40.438 -13.760   1.239  1.00  0.00     0.082 A 
HETATM   25  O   UNL     1      40.414 -15.031   1.740  1.00  0.00    -0.325 OA
HETATM   26  C   UNL     1      39.113 -15.411   1.808  1.00  0.00     0.142 A 
HETATM   27  C   UNL     1      38.296 -14.402   1.357  1.00  0.00     0.027 A 
HETATM   28  C   UNL     1      39.150 -13.333   0.986  1.00  0.00     0.037 A 
ENDBRANCH  22  24
ENDBRANCH  19  22
ENDBRANCH  18  19
ENDBRANCH   1  18
TORSDOF 6
ENDMDL
MODEL 7
REMARK VINA RESULT:      -7.2      2.710      4.721
REMARK  6 active torsions:
REMARK  status: ('A' for Active; 'I' for Inactive)
REMARK    1  A    between atoms: C_2  and  N_3 
REMARK    2  A    between atoms: C_2  and  C_21 
REMARK    3  A    between atoms: N_3  and  C_6 
REMARK    4  A    between atoms: C_6  and  C_7 
REMARK       I    between atoms: C_7  and  N_8 
REMARK    5  A    between atoms: N_8  and  C_9 
REMARK    6  A    between atoms: C_16  and  C_17 
REMARK       I    between atoms: C_17  and  N_18 
ROOT
HETATM    1  C   UNL     1      42.311 -16.339   5.214  1.00  0.00     0.248 C 
HETATM    2  N   UNL     1      43.315 -16.715   4.352  1.00  0.00    -0.319 N 
HETATM    3  O   UNL     1      41.384 -17.007   5.663  1.00  0.00    -0.271 OA
HETATM    4  H   UNL     1      44.039 -16.042   4.091  1.00  0.00     0.169 HD
ENDROOT
BRANCH   2   5
HETATM    5  C   UNL     1      43.587 -17.994   3.883  1.00  0.00     0.093 A 
HETATM    6  S   UNL     1      43.143 -18.483   2.309  1.00  0.00    -0.075 SA
HETATM    7  C   UNL     1      43.723 -20.018   2.599  1.00  0.00    -0.008 A 
HETATM    8  C   UNL     1      44.276 -20.190   3.839  1.00  0.00    -0.026 A 
HETATM    9  C   UNL     1      43.705 -21.233   1.751  1.00  0.00     0.047 C 
HETATM   10  C   UNL     1      44.725 -21.600   4.010  1.00  0.00     0.041 C 
HETATM   11  C   UNL     1      44.211 -19.003   4.627  1.00  0.00     0.072 A 
HETATM   12  C   UNL     1      44.639 -22.175   2.561  1.00  0.00     0.010 C 
BRANCH  11  13
HETATM   13  C   UNL     1      44.634 -18.764   6.008  1.00  0.00     0.252 C 
HETATM   14  N   UNL     1      43.928 -19.375   6.997  1.00  0.00    -0.366 N 
HETATM   15  H   UNL     1      43.241 -20.091   6.822  1.00  0.00     0.159 HD
HETATM   16  H   UNL     1      44.269 -19.280   7.945  1.00  0.00     0.159 HD
HETATM   17  O   UNL     1      45.605 -18.056   6.278  1.00  0.00    -0.268 OA
ENDBRANCH  11  13
ENDBRANCH   2   5
BRANCH   1  18
HETATM   18  C   UNL     1      42.468 -14.913   5.737  1.00  0.00     0.335 C 
BRANCH  18  19
HETATM   19  N   UNL     1      43.138 -14.032   4.708  1.00  0.00    -0.057 N 
HETATM   20  H   UNL     1      43.634 -14.691   4.077  1.00  0.00     0.278 HD
HETATM   21  H   UNL     1      43.863 -13.457   5.146  1.00  0.00     0.278 HD
BRANCH  19  22
HETATM   22  C   UNL     1      42.274 -13.188   3.812  1.00  0.00     0.239 C 
HETATM   23  C   UNL     1      41.695 -12.010   4.586  1.00  0.00     0.047 C 
BRANCH  22  24
HETATM   24  C   UNL     1      41.258 -13.994   3.085  1.00  0.00     0.082 A 
HETATM   25  O   UNL     1      41.773 -14.850   2.154  1.00  0.00    -0.325 OA
HETATM   26  C   UNL     1      40.731 -15.527   1.609  1.00  0.00     0.142 A 
HETATM   27  C   UNL     1      39.548 -15.118   2.176  1.00  0.00     0.027 A 
HETATM   28  C   UNL     1      39.884 -14.125   3.131  1.00  0.00     0.037 A 
ENDBRANCH  22  24
ENDBRANCH  19  22
ENDBRANCH  18  19
ENDBRANCH   1  18
TORSDOF 6
ENDMDL
MODEL 8
REMARK VINA RESULT:      -7.2      3.132      4.962
REMARK  6 active torsions:
REMARK  status: ('A' for Active; 'I' for Inactive)
REMARK    1  A    between atoms: C_2  and  N_3 
REMARK    2  A    between atoms: C_2  and  C_21 
REMARK    3  A    between atoms: N_3  and  C_6 
REMARK    4  A    between atoms: C_6  and  C_7 
REMARK       I    between atoms: C_7  and  N_8 
REMARK    5  A    between atoms: N_8  and  C_9 
REMARK    6  A    between atoms: C_16  and  C_17 
REMARK       I    between atoms: C_17  and  N_18 
ROOT
HETATM    1  C   UNL     1      43.032 -13.977   3.260  1.00  0.00     0.248 C 
HETATM    2  N   UNL     1      42.389 -15.184   3.404  1.00  0.00    -0.319 N 
HETATM    3  O   UNL     1      44.197 -13.684   3.514  1.00  0.00    -0.271 OA
HETATM    4  H   UNL     1      41.412 -15.276   3.117  1.00  0.00     0.169 HD
ENDROOT
BRANCH   2   5
HETATM    5  C   UNL     1      42.953 -16.402   3.760  1.00  0.00     0.093 A 
HETATM    6  S   UNL     1      43.510 -16.702   5.345  1.00  0.00    -0.075 SA
HETATM    7  C   UNL     1      44.042 -18.216   4.896  1.00  0.00    -0.008 A 
HETATM    8  C   UNL     1      43.796 -18.538   3.588  1.00  0.00    -0.026 A 
HETATM    9  C   UNL     1      44.768 -19.252   5.666  1.00  0.00     0.047 C 
HETATM   10  C   UNL     1      44.343 -19.888   3.280  1.00  0.00     0.041 C 
HETATM   11  C   UNL     1      43.147 -17.479   2.886  1.00  0.00     0.072 A 
HETATM   12  C   UNL     1      44.684 -20.460   4.692  1.00  0.00     0.010 C 
BRANCH  11  13
HETATM   13  C   UNL     1      42.753 -17.385   1.479  1.00  0.00     0.252 C 
HETATM   14  N   UNL     1      43.735 -17.477   0.542  1.00  0.00    -0.366 N 
HETATM   15  H   UNL     1      44.678 -17.755   0.759  1.00  0.00     0.159 HD
HETATM   16  H   UNL     1      43.456 -17.496  -0.431  1.00  0.00     0.159 HD
HETATM   17  O   UNL     1      41.576 -17.250   1.141  1.00  0.00    -0.268 OA
ENDBRANCH  11  13
ENDBRANCH   2   5
BRANCH   1  18
HETATM   18  C   UNL     1      42.169 -12.909   2.593  1.00  0.00     0.335 C 
BRANCH  18  19
HETATM   19  N   UNL     1      41.401 -12.116   3.625  1.00  0.00    -0.057 N 
HETATM   20  H   UNL     1      41.332 -11.160   3.227  1.00  0.00     0.278 HD
HETATM   21  H   UNL     1      41.946 -12.026   4.487  1.00  0.00     0.278 HD
BRANCH  19  22
HETATM   22  C   UNL     1      39.988 -12.525   3.942  1.00  0.00     0.239 C 
HETATM   23  C   UNL     1      39.934 -13.261   5.275  1.00  0.00     0.047 C 
BRANCH  22  24
HETATM   24  C   UNL     1      39.348 -13.257   2.818  1.00  0.00     0.082 A 
HETATM   25  O   UNL     1      39.476 -14.615   2.880  1.00  0.00    -0.325 OA
HETATM   26  C   UNL     1      38.819 -15.131   1.811  1.00  0.00     0.142 A 
HETATM   27  C   UNL     1      38.268 -14.122   1.058  1.00  0.00     0.027 A 
HETATM   28  C   UNL     1      38.609 -12.908   1.705  1.00  0.00     0.037 A 
ENDBRANCH  22  24
ENDBRANCH  19  22
ENDBRANCH  18  19
ENDBRANCH   1  18
TORSDOF 6
ENDMDL
MODEL 9
REMARK VINA RESULT:      -7.2      2.805      3.384
REMARK  6 active torsions:
REMARK  status: ('A' for Active; 'I' for Inactive)
REMARK    1  A    between atoms: C_2  and  N_3 
REMARK    2  A    between atoms: C_2  and  C_21 
REMARK    3  A    between atoms: N_3  and  C_6 
REMARK    4  A    between atoms: C_6  and  C_7 
REMARK       I    between atoms: C_7  and  N_8 
REMARK    5  A    between atoms: N_8  and  C_9 
REMARK    6  A    between atoms: C_16  and  C_17 
REMARK       I    between atoms: C_17  and  N_18 
ROOT
HETATM    1  C   UNL     1      41.453 -15.871   5.205  1.00  0.00     0.248 C 
HETATM    2  N   UNL     1      42.472 -16.153   4.326  1.00  0.00    -0.319 N 
HETATM    3  O   UNL     1      40.696 -16.642   5.789  1.00  0.00    -0.271 OA
HETATM    4  H   UNL     1      43.036 -15.391   3.942  1.00  0.00     0.169 HD
ENDROOT
BRANCH   2   5
HETATM    5  C   UNL     1      42.969 -17.404   3.986  1.00  0.00     0.093 A 
HETATM    6  S   UNL     1      43.937 -18.307   5.065  1.00  0.00    -0.075 SA
HETATM    7  C   UNL     1      44.126 -19.508   3.925  1.00  0.00    -0.008 A 
HETATM    8  C   UNL     1      43.463 -19.282   2.749  1.00  0.00    -0.026 A 
HETATM    9  C   UNL     1      44.922 -20.756   3.962  1.00  0.00     0.047 C 
HETATM   10  C   UNL     1      43.728 -20.389   1.789  1.00  0.00     0.041 C 
HETATM   11  C   UNL     1      42.763 -18.039   2.754  1.00  0.00     0.072 A 
HETATM   12  C   UNL     1      44.407 -21.475   2.683  1.00  0.00     0.010 C 
BRANCH  11  13
HETATM   13  C   UNL     1      41.979 -17.394   1.700  1.00  0.00     0.252 C 
HETATM   14  N   UNL     1      42.635 -17.010   0.572  1.00  0.00    -0.366 N 
HETATM   15  H   UNL     1      43.584 -17.282   0.368  1.00  0.00     0.159 HD
HETATM   16  H   UNL     1      42.083 -16.642  -0.191  1.00  0.00     0.159 HD
HETATM   17  O   UNL     1      40.764 -17.219   1.807  1.00  0.00    -0.268 OA
ENDBRANCH  11  13
ENDBRANCH   2   5
BRANCH   1  18
HETATM   18  C   UNL     1      41.349 -14.388   5.553  1.00  0.00     0.335 C 
BRANCH  18  19
HETATM   19  N   UNL     1      40.138 -14.120   6.416  1.00  0.00    -0.057 N 
HETATM   20  H   UNL     1      40.511 -14.048   7.382  1.00  0.00     0.278 HD
HETATM   21  H   UNL     1      39.509 -14.928   6.413  1.00  0.00     0.278 HD
BRANCH  19  22
HETATM   22  C   UNL     1      39.358 -12.853   6.190  1.00  0.00     0.239 C 
HETATM   23  C   UNL     1      39.463 -12.417   4.733  1.00  0.00     0.047 C 
BRANCH  22  24
HETATM   24  C   UNL     1      39.713 -11.791   7.168  1.00  0.00     0.082 A 
HETATM   25  O   UNL     1      38.921 -11.757   8.280  1.00  0.00    -0.325 OA
HETATM   26  C   UNL     1      39.390 -10.764   9.077  1.00  0.00     0.142 A 
HETATM   27  C   UNL     1      40.475 -10.155   8.493  1.00  0.00     0.027 A 
HETATM   28  C   UNL     1      40.686 -10.816   7.257  1.00  0.00     0.037 A 
ENDBRANCH  22  24
ENDBRANCH  19  22
ENDBRANCH  18  19
ENDBRANCH   1  18
TORSDOF 6
ENDMDL
MODEL 10
REMARK VINA RESULT:      -7.1      3.814      9.311
REMARK  6 active torsions:
REMARK  status: ('A' for Active; 'I' for Inactive)
REMARK    1  A    between atoms: C_2  and  N_3 
REMARK    2  A    between atoms: C_2  and  C_21 
REMARK    3  A    between atoms: N_3  and  C_6 
REMARK    4  A    between atoms: C_6  and  C_7 
REMARK       I    between atoms: C_7  and  N_8 
REMARK    5  A    between atoms: N_8  and  C_9 
REMARK    6  A    between atoms: C_16  and  C_17 
REMARK       I    between atoms: C_17  and  N_18 
ROOT
HETATM    1  C   UNL     1      45.164 -12.751   8.088  1.00  0.00     0.248 C 
HETATM    2  N   UNL     1      43.933 -12.445   8.622  1.00  0.00    -0.319 N 
HETATM    3  O   UNL     1      46.257 -12.242   8.318  1.00  0.00    -0.271 OA
HETATM    4  H   UNL     1      43.112 -12.986   8.345  1.00  0.00     0.169 HD
ENDROOT
BRANCH   2   5
HETATM    5  C   UNL     1      43.661 -11.556   9.654  1.00  0.00     0.093 A 
HETATM    6  S   UNL     1      44.516 -11.609  11.131  1.00  0.00    -0.075 SA
HETATM    7  C   UNL     1      43.581 -10.373  11.742  1.00  0.00    -0.008 A 
HETATM    8  C   UNL     1      42.648  -9.883  10.869  1.00  0.00    -0.026 A 
HETATM    9  C   UNL     1      43.568  -9.746  13.084  1.00  0.00     0.047 C 
HETATM   10  C   UNL     1      41.843  -8.815  11.523  1.00  0.00     0.041 C 
HETATM   11  C   UNL     1      42.671 -10.566   9.616  1.00  0.00     0.072 A 
HETATM   12  C   UNL     1      42.643  -8.522  12.830  1.00  0.00     0.010 C 
BRANCH  11  13
HETATM   13  C   UNL     1      41.823 -10.397   8.435  1.00  0.00     0.252 C 
HETATM   14  N   UNL     1      40.616 -11.024   8.432  1.00  0.00    -0.366 N 
HETATM   15  H   UNL     1      40.221 -11.461   9.249  1.00  0.00     0.159 HD
HETATM   16  H   UNL     1      39.994 -10.842   7.655  1.00  0.00     0.159 HD
HETATM   17  O   UNL     1      42.168  -9.699   7.481  1.00  0.00    -0.268 OA
ENDBRANCH  11  13
ENDBRANCH   2   5
BRANCH   1  18
HETATM   18  C   UNL     1      45.134 -13.964   7.162  1.00  0.00     0.335 C 
BRANCH  18  19
HETATM   19  N   UNL     1      43.801 -14.670   7.241  1.00  0.00    -0.057 N 
HETATM   20  H   UNL     1      43.115 -13.919   7.449  1.00  0.00     0.278 HD
HETATM   21  H   UNL     1      43.778 -15.306   8.043  1.00  0.00     0.278 HD
BRANCH  19  22
HETATM   22  C   UNL     1      43.280 -15.364   6.012  1.00  0.00     0.239 C 
HETATM   23  C   UNL     1      41.756 -15.338   5.992  1.00  0.00     0.047 C 
BRANCH  22  24
HETATM   24  C   UNL     1      43.865 -16.720   5.840  1.00  0.00     0.082 A 
HETATM   25  O   UNL     1      43.574 -17.316   4.646  1.00  0.00    -0.325 OA
HETATM   26  C   UNL     1      44.200 -18.520   4.634  1.00  0.00     0.142 A 
HETATM   27  C   UNL     1      44.893 -18.709   5.806  1.00  0.00     0.027 A 
HETATM   28  C   UNL     1      44.677 -17.547   6.589  1.00  0.00     0.037 A 
ENDBRANCH  22  24
ENDBRANCH  19  22
ENDBRANCH  18  19
ENDBRANCH   1  18
TORSDOF 6
ENDMDL
