MODEL 1
REMARK VINA RESULT:      -8.3      0.000      0.000
REMARK  6 active torsions:
REMARK  status: ('A' for Active; 'I' for Inactive)
REMARK    1  A    between atoms: C_2  and  N_3 
REMARK    2  A    between atoms: C_5  and  C_6 
REMARK    3  A    between atoms: C_6  and  N_7 
REMARK       I    between atoms: N_7  and  C_8 
REMARK    4  A    between atoms: C_8  and  C_9 
REMARK    5  A    between atoms: C_9  and  C_10 
REMARK    6  A    between atoms: C_11  and  C_12 
ROOT
HETATM    1  C   UNL     1      43.287 -17.988   5.748  1.00  0.00     0.006 C 
HETATM    2  C   UNL     1      44.270 -18.857   5.145  1.00  0.00     0.096 C 
HETATM    3  N   UNL     1      45.456 -18.677   5.753  1.00  0.00    -0.173 NA
HETATM    4  N   UNL     1      45.216 -17.886   6.795  1.00  0.00    -0.282 N 
HETATM    5  H   UNL     1      45.978 -17.703   7.442  1.00  0.00     0.189 HD
HETATM    6  C   UNL     1      43.941 -17.411   6.831  1.00  0.00     0.033 C 
HETATM    7  C   UNL     1      43.490 -16.504   7.915  1.00  0.00     0.070 C 
ENDROOT
BRANCH   1   8
HETATM    8  C   UNL     1      41.862 -17.734   5.378  1.00  0.00     0.146 C 
BRANCH   8   9
HETATM    9  C   UNL     1      41.757 -16.525   4.455  1.00  0.00     0.222 C 
HETATM   10  N   UNL     1      40.490 -16.031   4.242  1.00  0.00    -0.359 N 
HETATM   11  H   UNL     1      39.703 -16.575   4.583  1.00  0.00     0.162 HD
HETATM   12  O   UNL     1      42.730 -15.940   3.979  1.00  0.00    -0.273 OA
BRANCH  10  13
HETATM   13  C   UNL     1      40.219 -14.920   3.336  1.00  0.00     0.155 C 
BRANCH  13  14
HETATM   14  C   UNL     1      40.011 -15.287   1.842  1.00  0.00     0.206 C 
HETATM   15  N   UNL     1      41.313 -15.209   1.047  1.00  0.00    -0.066 N 
HETATM   16  H   UNL     1      42.012 -14.743   1.663  1.00  0.00     0.280 HD
HETATM   17  C   UNL     1      41.090 -14.270  -0.116  1.00  0.00     0.235 C 
HETATM   18  C   UNL     1      39.938 -13.400   0.333  1.00  0.00     0.030 C 
HETATM   19  C   UNL     1      39.050 -14.359   1.098  1.00  0.00     0.036 C 
BRANCH  15  20
HETATM   20  C   UNL     1      41.911 -16.539   0.697  1.00  0.00     0.231 C 
HETATM   21  C   UNL     1      40.953 -17.665   1.038  1.00  0.00     0.034 C 
ENDBRANCH  15  20
ENDBRANCH  13  14
ENDBRANCH  10  13
ENDBRANCH   8   9
ENDBRANCH   1   8
BRANCH   2  22
HETATM   22  C   UNL     1      44.199 -19.841   4.039  1.00  0.00    -0.005 A 
HETATM   23  C   UNL     1      44.650 -21.162   4.141  1.00  0.00     0.017 A 
HETATM   24  C   UNL     1      44.557 -22.046   3.056  1.00  0.00     0.043 A 
HETATM   25  C   UNL     1      44.023 -21.613   1.852  1.00  0.00     0.116 A 
HETATM   26  F   UNL     1      43.940 -22.462   0.821  1.00  0.00    -0.206 F 
HETATM   27  C   UNL     1      43.576 -20.310   1.711  1.00  0.00     0.043 A 
HETATM   28  C   UNL     1      43.664 -19.434   2.797  1.00  0.00     0.017 A 
ENDBRANCH   2  22
TORSDOF 6
ENDMDL
MODEL 2
REMARK VINA RESULT:      -8.0      1.721      2.565
REMARK  6 active torsions:
REMARK  status: ('A' for Active; 'I' for Inactive)
REMARK    1  A    between atoms: C_2  and  N_3 
REMARK    2  A    between atoms: C_5  and  C_6 
REMARK    3  A    between atoms: C_6  and  N_7 
REMARK       I    between atoms: N_7  and  C_8 
REMARK    4  A    between atoms: C_8  and  C_9 
REMARK    5  A    between atoms: C_9  and  C_10 
REMARK    6  A    between atoms: C_11  and  C_12 
ROOT
HETATM    1  C   UNL     1      43.158 -18.194   5.809  1.00  0.00     0.006 C 
HETATM    2  C   UNL     1      44.189 -18.934   5.120  1.00  0.00     0.096 C 
HETATM    3  N   UNL     1      45.388 -18.614   5.638  1.00  0.00    -0.173 NA
HETATM    4  N   UNL     1      45.135 -17.862   6.706  1.00  0.00    -0.282 N 
HETATM    5  H   UNL     1      45.917 -17.591   7.296  1.00  0.00     0.189 HD
HETATM    6  C   UNL     1      43.819 -17.546   6.846  1.00  0.00     0.033 C 
HETATM    7  C   UNL     1      43.347 -16.706   7.973  1.00  0.00     0.070 C 
ENDROOT
BRANCH   1   8
HETATM    8  C   UNL     1      41.688 -18.115   5.552  1.00  0.00     0.146 C 
BRANCH   8   9
HETATM    9  C   UNL     1      41.366 -16.923   4.658  1.00  0.00     0.222 C 
HETATM   10  N   UNL     1      40.720 -15.867   5.261  1.00  0.00    -0.359 N 
HETATM   11  H   UNL     1      40.371 -16.000   6.206  1.00  0.00     0.162 HD
HETATM   12  O   UNL     1      41.723 -16.830   3.483  1.00  0.00    -0.273 OA
BRANCH  10  13
HETATM   13  C   UNL     1      40.288 -14.683   4.527  1.00  0.00     0.155 C 
BRANCH  13  14
HETATM   14  C   UNL     1      41.346 -13.559   4.354  1.00  0.00     0.206 C 
HETATM   15  N   UNL     1      42.311 -13.854   3.207  1.00  0.00    -0.066 N 
HETATM   16  H   UNL     1      42.144 -14.842   2.922  1.00  0.00     0.280 HD
HETATM   17  C   UNL     1      43.716 -13.810   3.761  1.00  0.00     0.235 C 
HETATM   18  C   UNL     1      43.535 -14.080   5.238  1.00  0.00     0.030 C 
HETATM   19  C   UNL     1      42.247 -13.356   5.572  1.00  0.00     0.036 C 
BRANCH  15  20
HETATM   20  C   UNL     1      42.079 -13.036   1.972  1.00  0.00     0.231 C 
HETATM   21  C   UNL     1      41.211 -11.830   2.280  1.00  0.00     0.034 C 
ENDBRANCH  15  20
ENDBRANCH  13  14
ENDBRANCH  10  13
ENDBRANCH   8   9
ENDBRANCH   1   8
BRANCH   2  22
HETATM   22  C   UNL     1      44.153 -19.915   4.010  1.00  0.00    -0.005 A 
HETATM   23  C   UNL     1      44.624 -21.229   4.114  1.00  0.00     0.017 A 
HETATM   24  C   UNL     1      44.564 -22.110   3.025  1.00  0.00     0.043 A 
HETATM   25  C   UNL     1      44.042 -21.681   1.814  1.00  0.00     0.116 A 
HETATM   26  F   UNL     1      43.989 -22.527   0.778  1.00  0.00    -0.206 F 
HETATM   27  C   UNL     1      43.575 -20.385   1.669  1.00  0.00     0.043 A 
HETATM   28  C   UNL     1      43.631 -19.512   2.760  1.00  0.00     0.017 A 
ENDBRANCH   2  22
TORSDOF 6
ENDMDL
MODEL 3
REMARK VINA RESULT:      -7.9      2.170      3.641
REMARK  6 active torsions:
REMARK  status: ('A' for Active; 'I' for Inactive)
REMARK    1  A    between atoms: C_2  and  N_3 
REMARK    2  A    between atoms: C_5  and  C_6 
REMARK    3  A    between atoms: C_6  and  N_7 
REMARK       I    between atoms: N_7  and  C_8 
REMARK    4  A    between atoms: C_8  and  C_9 
REMARK    5  A    between atoms: C_9  and  C_10 
REMARK    6  A    between atoms: C_11  and  C_12 
ROOT
HETATM    1  C   UNL     1      41.536 -16.813   3.327  1.00  0.00     0.006 C 
HETATM    2  C   UNL     1      42.628 -17.615   3.828  1.00  0.00     0.096 C 
HETATM    3  N   UNL     1      43.144 -17.029   4.923  1.00  0.00    -0.173 NA
HETATM    4  N   UNL     1      42.329 -16.020   5.216  1.00  0.00    -0.282 N 
HETATM    5  H   UNL     1      42.499 -15.502   6.075  1.00  0.00     0.189 HD
HETATM    6  C   UNL     1      41.362 -15.816   4.280  1.00  0.00     0.033 C 
HETATM    7  C   UNL     1      40.366 -14.727   4.431  1.00  0.00     0.070 C 
ENDROOT
BRANCH   1   8
HETATM    8  C   UNL     1      40.707 -16.969   2.094  1.00  0.00     0.146 C 
BRANCH   8   9
HETATM    9  C   UNL     1      41.373 -16.276   0.911  1.00  0.00     0.222 C 
HETATM   10  N   UNL     1      40.546 -15.919  -0.130  1.00  0.00    -0.359 N 
HETATM   11  H   UNL     1      39.590 -16.261  -0.117  1.00  0.00     0.162 HD
HETATM   12  O   UNL     1      42.562 -15.956   0.885  1.00  0.00    -0.273 OA
BRANCH  10  13
HETATM   13  C   UNL     1      41.043 -15.307  -1.358  1.00  0.00     0.155 C 
BRANCH  13  14
HETATM   14  C   UNL     1      40.088 -14.303  -2.059  1.00  0.00     0.206 C 
HETATM   15  N   UNL     1      38.639 -14.484  -1.612  1.00  0.00    -0.066 N 
HETATM   16  H   UNL     1      38.602 -15.373  -1.069  1.00  0.00     0.280 HD
HETATM   17  C   UNL     1      37.797 -14.714  -2.846  1.00  0.00     0.235 C 
HETATM   18  C   UNL     1      38.782 -15.238  -3.866  1.00  0.00     0.030 C 
HETATM   19  C   UNL     1      40.040 -14.445  -3.581  1.00  0.00     0.036 C 
BRANCH  15  20
HETATM   20  C   UNL     1      38.138 -13.424  -0.677  1.00  0.00     0.231 C 
HETATM   21  C   UNL     1      37.575 -14.045   0.588  1.00  0.00     0.034 C 
ENDBRANCH  15  20
ENDBRANCH  13  14
ENDBRANCH  10  13
ENDBRANCH   8   9
ENDBRANCH   1   8
BRANCH   2  22
HETATM   22  C   UNL     1      43.238 -18.884   3.367  1.00  0.00    -0.005 A 
HETATM   23  C   UNL     1      42.949 -19.486   2.136  1.00  0.00     0.017 A 
HETATM   24  C   UNL     1      43.557 -20.691   1.757  1.00  0.00     0.043 A 
HETATM   25  C   UNL     1      44.454 -21.314   2.611  1.00  0.00     0.116 A 
HETATM   26  F   UNL     1      45.030 -22.464   2.243  1.00  0.00    -0.206 F 
HETATM   27  C   UNL     1      44.758 -20.754   3.841  1.00  0.00     0.043 A 
HETATM   28  C   UNL     1      44.154 -19.549   4.212  1.00  0.00     0.017 A 
ENDBRANCH   2  22
TORSDOF 6
ENDMDL
MODEL 4
REMARK VINA RESULT:      -7.6      2.088      3.595
REMARK  6 active torsions:
REMARK  status: ('A' for Active; 'I' for Inactive)
REMARK    1  A    between atoms: C_2  and  N_3 
REMARK    2  A    between atoms: C_5  and  C_6 
REMARK    3  A    between atoms: C_6  and  N_7 
REMARK       I    between atoms: N_7  and  C_8 
REMARK    4  A    between atoms: C_8  and  C_9 
REMARK    5  A    between atoms: C_9  and  C_10 
REMARK    6  A    between atoms: C_11  and  C_12 
ROOT
HETATM    1  C   UNL     1      41.687 -16.048   3.961  1.00  0.00     0.006 C 
HETATM    2  C   UNL     1      42.011 -17.383   4.408  1.00  0.00     0.096 C 
HETATM    3  N   UNL     1      41.409 -17.614   5.588  1.00  0.00    -0.173 NA
HETATM    4  N   UNL     1      40.606 -16.575   5.800  1.00  0.00    -0.282 N 
HETATM    5  H   UNL     1      39.988 -16.605   6.606  1.00  0.00     0.189 HD
HETATM    6  C   UNL     1      40.749 -15.585   4.877  1.00  0.00     0.033 C 
HETATM    7  C   UNL     1      39.944 -14.342   4.955  1.00  0.00     0.070 C 
ENDROOT
BRANCH   1   8
HETATM    8  C   UNL     1      42.176 -15.279   2.777  1.00  0.00     0.146 C 
BRANCH   8   9
HETATM    9  C   UNL     1      41.337 -15.602   1.546  1.00  0.00     0.222 C 
HETATM   10  N   UNL     1      42.022 -15.731   0.359  1.00  0.00    -0.359 N 
HETATM   11  H   UNL     1      43.001 -15.465   0.344  1.00  0.00     0.162 HD
HETATM   12  O   UNL     1      40.127 -15.830   1.582  1.00  0.00    -0.273 OA
BRANCH  10  13
HETATM   13  C   UNL     1      41.354 -15.976  -0.914  1.00  0.00     0.155 C 
BRANCH  13  14
HETATM   14  C   UNL     1      40.820 -14.723  -1.661  1.00  0.00     0.206 C 
HETATM   15  N   UNL     1      39.326 -14.509  -1.423  1.00  0.00    -0.066 N 
HETATM   16  H   UNL     1      38.971 -15.370  -0.955  1.00  0.00     0.280 HD
HETATM   17  C   UNL     1      38.644 -14.455  -2.770  1.00  0.00     0.235 C 
HETATM   18  C   UNL     1      39.589 -15.198  -3.687  1.00  0.00     0.030 C 
HETATM   19  C   UNL     1      40.959 -14.796  -3.182  1.00  0.00     0.036 C 
BRANCH  15  20
HETATM   20  C   UNL     1      39.000 -13.382  -0.488  1.00  0.00     0.231 C 
HETATM   21  C   UNL     1      40.212 -12.496  -0.271  1.00  0.00     0.034 C 
ENDBRANCH  15  20
ENDBRANCH  13  14
ENDBRANCH  10  13
ENDBRANCH   8   9
ENDBRANCH   1   8
BRANCH   2  22
HETATM   22  C   UNL     1      42.843 -18.463   3.829  1.00  0.00    -0.005 A 
HETATM   23  C   UNL     1      43.856 -19.129   4.530  1.00  0.00     0.017 A 
HETATM   24  C   UNL     1      44.612 -20.143   3.925  1.00  0.00     0.043 A 
HETATM   25  C   UNL     1      44.371 -20.494   2.605  1.00  0.00     0.116 A 
HETATM   26  F   UNL     1      45.098 -21.462   2.034  1.00  0.00    -0.206 F 
HETATM   27  C   UNL     1      43.384 -19.851   1.877  1.00  0.00     0.043 A 
HETATM   28  C   UNL     1      42.628 -18.845   2.486  1.00  0.00     0.017 A 
ENDBRANCH   2  22
TORSDOF 6
ENDMDL
MODEL 5
REMARK VINA RESULT:      -7.5      2.197      3.326
REMARK  6 active torsions:
REMARK  status: ('A' for Active; 'I' for Inactive)
REMARK    1  A    between atoms: C_2  and  N_3 
REMARK    2  A    between atoms: C_5  and  C_6 
REMARK    3  A    between atoms: C_6  and  N_7 
REMARK       I    between atoms: N_7  and  C_8 
REMARK    4  A    between atoms: C_8  and  C_9 
REMARK    5  A    between atoms: C_9  and  C_10 
REMARK    6  A    between atoms: C_11  and  C_12 
ROOT
HETATM    1  C   UNL     1      41.880 -15.273   5.451  1.00  0.00     0.006 C 
HETATM    2  C   UNL     1      41.827 -16.712   5.566  1.00  0.00     0.096 C 
HETATM    3  N   UNL     1      40.664 -17.069   6.138  1.00  0.00    -0.173 NA
HETATM    4  N   UNL     1      39.939 -15.956   6.218  1.00  0.00    -0.282 N 
HETATM    5  H   UNL     1      38.979 -16.033   6.542  1.00  0.00     0.189 HD
HETATM    6  C   UNL     1      40.623 -14.838   5.852  1.00  0.00     0.033 C 
HETATM    7  C   UNL     1      39.982 -13.501   5.886  1.00  0.00     0.070 C 
ENDROOT
BRANCH   1   8
HETATM    8  C   UNL     1      42.984 -14.380   4.983  1.00  0.00     0.146 C 
BRANCH   8   9
HETATM    9  C   UNL     1      42.985 -14.284   3.461  1.00  0.00     0.222 C 
HETATM   10  N   UNL     1      42.197 -13.297   2.914  1.00  0.00    -0.359 N 
HETATM   11  H   UNL     1      41.563 -12.798   3.529  1.00  0.00     0.162 HD
HETATM   12  O   UNL     1      43.701 -14.971   2.732  1.00  0.00    -0.273 OA
BRANCH  10  13
HETATM   13  C   UNL     1      42.043 -13.119   1.474  1.00  0.00     0.155 C 
BRANCH  13  14
HETATM   14  C   UNL     1      40.943 -13.976   0.790  1.00  0.00     0.206 C 
HETATM   15  N   UNL     1      41.508 -15.267   0.200  1.00  0.00    -0.066 N 
HETATM   16  H   UNL     1      42.547 -15.183   0.235  1.00  0.00     0.280 HD
HETATM   17  C   UNL     1      41.142 -15.307  -1.265  1.00  0.00     0.235 C 
HETATM   18  C   UNL     1      40.917 -13.855  -1.625  1.00  0.00     0.030 C 
HETATM   19  C   UNL     1      40.254 -13.285  -0.387  1.00  0.00     0.036 C 
BRANCH  15  20
HETATM   20  C   UNL     1      41.181 -16.505   0.981  1.00  0.00     0.231 C 
HETATM   21  C   UNL     1      40.139 -16.210   2.043  1.00  0.00     0.034 C 
ENDBRANCH  15  20
ENDBRANCH  13  14
ENDBRANCH  10  13
ENDBRANCH   8   9
ENDBRANCH   1   8
BRANCH   2  22
HETATM   22  C   UNL     1      42.776 -17.787   5.193  1.00  0.00    -0.005 A 
HETATM   23  C   UNL     1      42.999 -18.208   3.876  1.00  0.00     0.017 A 
HETATM   24  C   UNL     1      43.909 -19.234   3.587  1.00  0.00     0.043 A 
HETATM   25  C   UNL     1      44.599 -19.859   4.614  1.00  0.00     0.116 A 
HETATM   26  F   UNL     1      45.465 -20.839   4.330  1.00  0.00    -0.206 F 
HETATM   27  C   UNL     1      44.398 -19.477   5.930  1.00  0.00     0.043 A 
HETATM   28  C   UNL     1      43.494 -18.449   6.214  1.00  0.00     0.017 A 
ENDBRANCH   2  22
TORSDOF 6
ENDMDL
MODEL 6
REMARK VINA RESULT:      -7.5      2.374      3.519
REMARK  6 active torsions:
REMARK  status: ('A' for Active; 'I' for Inactive)
REMARK    1  A    between atoms: C_2  and  N_3 
REMARK    2  A    between atoms: C_5  and  C_6 
REMARK    3  A    between atoms: C_6  and  N_7 
REMARK       I    between atoms: N_7  and  C_8 
REMARK    4  A    between atoms: C_8  and  C_9 
REMARK    5  A    between atoms: C_9  and  C_10 
REMARK    6  A    between atoms: C_11  and  C_12 
ROOT
HETATM    1  C   UNL     1      43.154 -16.195   3.418  1.00  0.00     0.006 C 
HETATM    2  C   UNL     1      43.456 -17.448   4.069  1.00  0.00     0.096 C 
HETATM    3  N   UNL     1      43.447 -17.269   5.402  1.00  0.00    -0.173 NA
HETATM    4  N   UNL     1      42.992 -16.035   5.603  1.00  0.00    -0.282 N 
HETATM    5  H   UNL     1      42.823 -15.737   6.559  1.00  0.00     0.189 HD
HETATM    6  C   UNL     1      42.827 -15.326   4.452  1.00  0.00     0.033 C 
HETATM    7  C   UNL     1      42.337 -13.926   4.477  1.00  0.00     0.070 C 
ENDROOT
BRANCH   1   8
HETATM    8  C   UNL     1      43.139 -15.838   1.966  1.00  0.00     0.146 C 
BRANCH   8   9
HETATM    9  C   UNL     1      41.707 -15.766   1.449  1.00  0.00     0.222 C 
HETATM   10  N   UNL     1      41.446 -14.790   0.514  1.00  0.00    -0.359 N 
HETATM   11  H   UNL     1      42.166 -14.097   0.337  1.00  0.00     0.162 HD
HETATM   12  O   UNL     1      40.826 -16.571   1.755  1.00  0.00    -0.273 OA
BRANCH  10  13
HETATM   13  C   UNL     1      40.113 -14.554  -0.029  1.00  0.00     0.155 C 
BRANCH  13  14
HETATM   14  C   UNL     1      40.046 -14.107  -1.515  1.00  0.00     0.206 C 
HETATM   15  N   UNL     1      39.053 -14.943  -2.319  1.00  0.00    -0.066 N 
HETATM   16  H   UNL     1      38.783 -15.749  -1.717  1.00  0.00     0.280 HD
HETATM   17  C   UNL     1      39.791 -15.532  -3.498  1.00  0.00     0.235 C 
HETATM   18  C   UNL     1      41.238 -15.534  -3.060  1.00  0.00     0.030 C 
HETATM   19  C   UNL     1      41.368 -14.248  -2.270  1.00  0.00     0.036 C 
BRANCH  15  20
HETATM   20  C   UNL     1      37.768 -14.241  -2.647  1.00  0.00     0.231 C 
HETATM   21  C   UNL     1      37.111 -14.864  -3.864  1.00  0.00     0.034 C 
ENDBRANCH  15  20
ENDBRANCH  13  14
ENDBRANCH  10  13
ENDBRANCH   8   9
ENDBRANCH   1   8
BRANCH   2  22
HETATM   22  C   UNL     1      43.759 -18.803   3.553  1.00  0.00    -0.005 A 
HETATM   23  C   UNL     1      43.303 -19.289   2.321  1.00  0.00     0.017 A 
HETATM   24  C   UNL     1      43.623 -20.583   1.888  1.00  0.00     0.043 A 
HETATM   25  C   UNL     1      44.394 -21.412   2.690  1.00  0.00     0.116 A 
HETATM   26  F   UNL     1      44.694 -22.647   2.270  1.00  0.00    -0.206 F 
HETATM   27  C   UNL     1      44.855 -20.970   3.918  1.00  0.00     0.043 A 
HETATM   28  C   UNL     1      44.540 -19.676   4.343  1.00  0.00     0.017 A 
ENDBRANCH   2  22
TORSDOF 6
ENDMDL
MODEL 7
REMARK VINA RESULT:      -7.5      2.993      5.130
REMARK  6 active torsions:
REMARK  status: ('A' for Active; 'I' for Inactive)
REMARK    1  A    between atoms: C_2  and  N_3 
REMARK    2  A    between atoms: C_5  and  C_6 
REMARK    3  A    between atoms: C_6  and  N_7 
REMARK       I    between atoms: N_7  and  C_8 
REMARK    4  A    between atoms: C_8  and  C_9 
REMARK    5  A    between atoms: C_9  and  C_10 
REMARK    6  A    between atoms: C_11  and  C_12 
ROOT
HETATM    1  C   UNL     1      43.670 -18.155   2.670  1.00  0.00     0.006 C 
HETATM    2  C   UNL     1      43.395 -17.428   3.888  1.00  0.00     0.096 C 
HETATM    3  N   UNL     1      43.373 -18.288   4.922  1.00  0.00    -0.173 NA
HETATM    4  N   UNL     1      43.786 -19.455   4.437  1.00  0.00    -0.282 N 
HETATM    5  H   UNL     1      43.927 -20.221   5.090  1.00  0.00     0.189 HD
HETATM    6  C   UNL     1      43.950 -19.452   3.086  1.00  0.00     0.033 C 
HETATM    7  C   UNL     1      44.396 -20.668   2.364  1.00  0.00     0.070 C 
ENDROOT
BRANCH   1   8
HETATM    8  C   UNL     1      43.702 -17.688   1.251  1.00  0.00     0.146 C 
BRANCH   8   9
HETATM    9  C   UNL     1      42.312 -17.253   0.801  1.00  0.00     0.222 C 
HETATM   10  N   UNL     1      42.264 -16.256  -0.148  1.00  0.00    -0.359 N 
HETATM   11  H   UNL     1      43.129 -15.777  -0.378  1.00  0.00     0.162 HD
HETATM   12  O   UNL     1      41.270 -17.796   1.171  1.00  0.00    -0.273 OA
BRANCH  10  13
HETATM   13  C   UNL     1      41.011 -15.689  -0.632  1.00  0.00     0.155 C 
BRANCH  13  14
HETATM   14  C   UNL     1      40.410 -14.530   0.210  1.00  0.00     0.206 C 
HETATM   15  N   UNL     1      39.367 -15.029   1.208  1.00  0.00    -0.066 N 
HETATM   16  H   UNL     1      39.167 -16.021   0.960  1.00  0.00     0.280 HD
HETATM   17  C   UNL     1      38.085 -14.269   0.958  1.00  0.00     0.235 C 
HETATM   18  C   UNL     1      38.207 -13.811  -0.478  1.00  0.00     0.030 C 
HETATM   19  C   UNL     1      39.677 -13.472  -0.616  1.00  0.00     0.036 C 
BRANCH  15  20
HETATM   20  C   UNL     1      39.832 -15.058   2.633  1.00  0.00     0.231 C 
HETATM   21  C   UNL     1      39.487 -13.760   3.337  1.00  0.00     0.034 C 
ENDBRANCH  15  20
ENDBRANCH  13  14
ENDBRANCH  10  13
ENDBRANCH   8   9
ENDBRANCH   1   8
BRANCH   2  22
HETATM   22  C   UNL     1      43.143 -15.996   4.169  1.00  0.00    -0.005 A 
HETATM   23  C   UNL     1      43.507 -14.956   3.305  1.00  0.00     0.017 A 
HETATM   24  C   UNL     1      43.243 -13.617   3.630  1.00  0.00     0.043 A 
HETATM   25  C   UNL     1      42.623 -13.304   4.830  1.00  0.00     0.116 A 
HETATM   26  F   UNL     1      42.376 -12.024   5.133  1.00  0.00    -0.206 F 
HETATM   27  C   UNL     1      42.257 -14.305   5.714  1.00  0.00     0.043 A 
HETATM   28  C   UNL     1      42.516 -15.638   5.383  1.00  0.00     0.017 A 
ENDBRANCH   2  22
TORSDOF 6
ENDMDL
MODEL 8
REMARK VINA RESULT:      -7.4      2.053      3.049
REMARK  6 active torsions:
REMARK  status: ('A' for Active; 'I' for Inactive)
REMARK    1  A    between atoms: C_2  and  N_3 
REMARK    2  A    between atoms: C_5  and  C_6 
REMARK    3  A    between atoms: C_6  and  N_7 
REMARK       I    between atoms: N_7  and  C_8 
REMARK    4  A    between atoms: C_8  and  C_9 
REMARK    5  A    between atoms: C_9  and  C_10 
REMARK    6  A    between atoms: C_11  and  C_12 
ROOT
HETATM    1  C   UNL     1      42.335 -15.960   4.555  1.00  0.00     0.006 C 
HETATM    2  C   UNL     1      42.191 -17.397   4.564  1.00  0.00     0.096 C 
HETATM    3  N   UNL     1      41.138 -17.733   5.331  1.00  0.00    -0.173 NA
HETATM    4  N   UNL     1      40.535 -16.590   5.644  1.00  0.00    -0.282 N 
HETATM    5  H   UNL     1      39.654 -16.637   6.150  1.00  0.00     0.189 HD
HETATM    6  C   UNL     1      41.220 -15.487   5.236  1.00  0.00     0.033 C 
HETATM    7  C   UNL     1      40.708 -14.121   5.506  1.00  0.00     0.070 C 
ENDROOT
BRANCH   1   8
HETATM    8  C   UNL     1      43.393 -15.098   3.945  1.00  0.00     0.146 C 
BRANCH   8   9
HETATM    9  C   UNL     1      42.889 -14.471   2.650  1.00  0.00     0.222 C 
HETATM   10  N   UNL     1      42.281 -15.324   1.757  1.00  0.00    -0.359 N 
HETATM   11  H   UNL     1      42.333 -16.321   1.941  1.00  0.00     0.162 HD
HETATM   12  O   UNL     1      42.924 -13.263   2.414  1.00  0.00    -0.273 OA
BRANCH  10  13
HETATM   13  C   UNL     1      41.804 -14.888   0.449  1.00  0.00     0.155 C 
BRANCH  13  14
HETATM   14  C   UNL     1      40.277 -14.632   0.325  1.00  0.00     0.206 C 
HETATM   15  N   UNL     1      39.964 -13.164   0.046  1.00  0.00    -0.066 N 
HETATM   16  H   UNL     1      40.852 -12.636   0.187  1.00  0.00     0.280 HD
HETATM   17  C   UNL     1      39.016 -12.679   1.118  1.00  0.00     0.235 C 
HETATM   18  C   UNL     1      39.255 -13.627   2.272  1.00  0.00     0.030 C 
HETATM   19  C   UNL     1      39.484 -14.960   1.591  1.00  0.00     0.036 C 
BRANCH  15  20
HETATM   20  C   UNL     1      39.546 -12.873  -1.364  1.00  0.00     0.231 C 
HETATM   21  C   UNL     1      38.895 -14.090  -1.994  1.00  0.00     0.034 C 
ENDBRANCH  15  20
ENDBRANCH  13  14
ENDBRANCH  10  13
ENDBRANCH   8   9
ENDBRANCH   1   8
BRANCH   2  22
HETATM   22  C   UNL     1      42.958 -18.490   3.921  1.00  0.00    -0.005 A 
HETATM   23  C   UNL     1      43.927 -19.255   4.581  1.00  0.00     0.017 A 
HETATM   24  C   UNL     1      44.623 -20.275   3.916  1.00  0.00     0.043 A 
HETATM   25  C   UNL     1      44.364 -20.533   2.578  1.00  0.00     0.116 A 
HETATM   26  F   UNL     1      45.032 -21.507   1.951  1.00  0.00    -0.206 F 
HETATM   27  C   UNL     1      43.419 -19.791   1.890  1.00  0.00     0.043 A 
HETATM   28  C   UNL     1      42.723 -18.779   2.558  1.00  0.00     0.017 A 
ENDBRANCH   2  22
TORSDOF 6
ENDMDL
MODEL 9
REMARK VINA RESULT:      -7.4      1.959      3.456
REMARK  6 active torsions:
REMARK  status: ('A' for Active; 'I' for Inactive)
REMARK    1  A    between atoms: C_2  and  N_3 
REMARK    2  A    between atoms: C_5  and  C_6 
REMARK    3  A    between atoms: C_6  and  N_7 
REMARK       I    between atoms: N_7  and  C_8 
REMARK    4  A    between atoms: C_8  and  C_9 
REMARK    5  A    between atoms: C_9  and  C_10 
REMARK    6  A    between atoms: C_11  and  C_12 
ROOT
HETATM    1  C   UNL     1      41.515 -16.775   3.149  1.00  0.00     0.006 C 
HETATM    2  C   UNL     1      42.579 -17.535   3.763  1.00  0.00     0.096 C 
HETATM    3  N   UNL     1      43.015 -16.885   4.856  1.00  0.00    -0.173 NA
HETATM    4  N   UNL     1      42.172 -15.873   5.041  1.00  0.00    -0.282 N 
HETATM    5  H   UNL     1      42.279 -15.308   5.879  1.00  0.00     0.189 HD
HETATM    6  C   UNL     1      41.268 -15.732   4.033  1.00  0.00     0.033 C 
HETATM    7  C   UNL     1      40.253 -14.650   4.058  1.00  0.00     0.070 C 
ENDROOT
BRANCH   1   8
HETATM    8  C   UNL     1      40.771 -17.008   1.873  1.00  0.00     0.146 C 
BRANCH   8   9
HETATM    9  C   UNL     1      41.364 -16.167   0.748  1.00  0.00     0.222 C 
HETATM   10  N   UNL     1      40.500 -15.803  -0.259  1.00  0.00    -0.359 N 
HETATM   11  H   UNL     1      39.578 -16.228  -0.272  1.00  0.00     0.162 HD
HETATM   12  O   UNL     1      42.520 -15.741   0.747  1.00  0.00    -0.273 OA
BRANCH  10  13
HETATM   13  C   UNL     1      40.930 -15.053  -1.435  1.00  0.00     0.155 C 
BRANCH  13  14
HETATM   14  C   UNL     1      40.836 -13.506  -1.334  1.00  0.00     0.206 C 
HETATM   15  N   UNL     1      42.137 -12.886  -0.828  1.00  0.00    -0.066 N 
HETATM   16  H   UNL     1      42.731 -13.672  -0.489  1.00  0.00     0.280 HD
HETATM   17  C   UNL     1      41.811 -12.055   0.391  1.00  0.00     0.235 C 
HETATM   18  C   UNL     1      40.520 -12.652   0.905  1.00  0.00     0.030 C 
HETATM   19  C   UNL     1      39.768 -13.007  -0.361  1.00  0.00     0.036 C 
BRANCH  15  20
HETATM   20  C   UNL     1      42.950 -12.195  -1.882  1.00  0.00     0.231 C 
HETATM   21  C   UNL     1      42.125 -11.972  -3.135  1.00  0.00     0.034 C 
ENDBRANCH  15  20
ENDBRANCH  13  14
ENDBRANCH  10  13
ENDBRANCH   8   9
ENDBRANCH   1   8
BRANCH   2  22
HETATM   22  C   UNL     1      43.230 -18.819   3.412  1.00  0.00    -0.005 A 
HETATM   23  C   UNL     1      44.135 -19.487   4.245  1.00  0.00     0.017 A 
HETATM   24  C   UNL     1      44.722 -20.700   3.854  1.00  0.00     0.043 A 
HETATM   25  C   UNL     1      44.417 -21.251   2.619  1.00  0.00     0.116 A 
HETATM   26  F   UNL     1      44.982 -22.408   2.253  1.00  0.00    -0.206 F 
HETATM   27  C   UNL     1      43.534 -20.614   1.764  1.00  0.00     0.043 A 
HETATM   28  C   UNL     1      42.947 -19.409   2.160  1.00  0.00     0.017 A 
ENDBRANCH   2  22
TORSDOF 6
ENDMDL
MODEL 10
REMARK VINA RESULT:      -7.3      1.837      2.723
REMARK  6 active torsions:
REMARK  status: ('A' for Active; 'I' for Inactive)
REMARK    1  A    between atoms: C_2  and  N_3 
REMARK    2  A    between atoms: C_5  and  C_6 
REMARK    3  A    between atoms: C_6  and  N_7 
REMARK       I    between atoms: N_7  and  C_8 
REMARK    4  A    between atoms: C_8  and  C_9 
REMARK    5  A    between atoms: C_9  and  C_10 
REMARK    6  A    between atoms: C_11  and  C_12 
ROOT
HETATM    1  C   UNL     1      42.973 -16.201   4.175  1.00  0.00     0.006 C 
HETATM    2  C   UNL     1      43.059 -17.600   4.522  1.00  0.00     0.096 C 
HETATM    3  N   UNL     1      42.642 -17.770   5.789  1.00  0.00    -0.173 NA
HETATM    4  N   UNL     1      42.149 -16.596   6.173  1.00  0.00    -0.282 N 
HETATM    5  H   UNL     1      41.695 -16.542   7.080  1.00  0.00     0.189 HD
HETATM    6  C   UNL     1      42.346 -15.604   5.263  1.00  0.00     0.033 C 
HETATM    7  C   UNL     1      41.873 -14.221   5.520  1.00  0.00     0.070 C 
ENDROOT
BRANCH   1   8
HETATM    8  C   UNL     1      43.405 -15.482   2.938  1.00  0.00     0.146 C 
BRANCH   8   9
HETATM    9  C   UNL     1      42.322 -15.564   1.868  1.00  0.00     0.222 C 
HETATM   10  N   UNL     1      41.172 -14.847   2.111  1.00  0.00    -0.359 N 
HETATM   11  H   UNL     1      41.053 -14.435   3.031  1.00  0.00     0.162 HD
HETATM   12  O   UNL     1      42.461 -16.152   0.795  1.00  0.00    -0.273 OA
BRANCH  10  13
HETATM   13  C   UNL     1      40.022 -14.874   1.214  1.00  0.00     0.155 C 
BRANCH  13  14
HETATM   14  C   UNL     1      40.002 -13.802   0.090  1.00  0.00     0.206 C 
HETATM   15  N   UNL     1      40.826 -14.230  -1.123  1.00  0.00    -0.066 N 
HETATM   16  H   UNL     1      41.367 -15.073  -0.835  1.00  0.00     0.280 HD
HETATM   17  C   UNL     1      41.849 -13.151  -1.392  1.00  0.00     0.235 C 
HETATM   18  C   UNL     1      42.001 -12.451  -0.060  1.00  0.00     0.030 C 
HETATM   19  C   UNL     1      40.595 -12.454   0.502  1.00  0.00     0.036 C 
BRANCH  15  20
HETATM   20  C   UNL     1      40.015 -14.660  -2.308  1.00  0.00     0.231 C 
HETATM   21  C   UNL     1      40.725 -15.760  -3.074  1.00  0.00     0.034 C 
ENDBRANCH  15  20
ENDBRANCH  13  14
ENDBRANCH  10  13
ENDBRANCH   8   9
ENDBRANCH   1   8
BRANCH   2  22
HETATM   22  C   UNL     1      43.505 -18.797   3.771  1.00  0.00    -0.005 A 
HETATM   23  C   UNL     1      43.028 -19.143   2.501  1.00  0.00     0.017 A 
HETATM   24  C   UNL     1      43.488 -20.292   1.841  1.00  0.00     0.043 A 
HETATM   25  C   UNL     1      44.423 -21.115   2.451  1.00  0.00     0.116 A 
HETATM   26  F   UNL     1      44.856 -22.210   1.816  1.00  0.00    -0.206 F 
HETATM   27  C   UNL     1      44.911 -20.810   3.711  1.00  0.00     0.043 A 
HETATM   28  C   UNL     1      44.455 -19.660   4.362  1.00  0.00     0.017 A 
ENDBRANCH   2  22
TORSDOF 6
ENDMDL
