MODEL 1
REMARK VINA RESULT:      -8.5      0.000      0.000
REMARK  8 active torsions:
REMARK  status: ('A' for Active; 'I' for Inactive)
REMARK    1  A    between atoms: C_2  and  N_3 
REMARK    2  A    between atoms: N_3  and  C_5 
REMARK    3  A    between atoms: N_3  and  C_30 
REMARK    4  A    between atoms: C_5  and  C_6 
REMARK    5  A    between atoms: C_6  and  N_7 
REMARK       I    between atoms: N_7  and  C_8 
REMARK    6  A    between atoms: C_8  and  C_9 
REMARK    7  A    between atoms: C_9  and  O_10 
REMARK    8  A    between atoms: N_11  and  C_12 
ROOT
HETATM    1  C   UNL     1      42.238 -16.391   3.554  1.00  0.00     0.256 C 
HETATM    2  N   UNL     1      43.174 -17.277   2.852  1.00  0.00    -0.254 N 
HETATM    3  C   UNL     1      43.710 -16.822   1.648  1.00  0.00     0.330 C 
HETATM    4  O   UNL     1      44.764 -17.186   1.131  1.00  0.00    -0.246 OA
HETATM    5  N   UNL     1      42.938 -15.927   0.942  1.00  0.00    -0.308 N 
HETATM    6  C   UNL     1      41.648 -15.537   1.303  1.00  0.00     0.048 A 
HETATM    7  C   UNL     1      41.230 -15.779   2.611  1.00  0.00     0.034 A 
HETATM    8  C   UNL     1      40.826 -14.886   0.388  1.00  0.00     0.030 A 
HETATM    9  C   UNL     1      39.549 -14.487   0.780  1.00  0.00     0.002 A 
HETATM   10  C   UNL     1      39.109 -14.729   2.081  1.00  0.00     0.001 A 
HETATM   11  C   UNL     1      39.947 -15.366   2.998  1.00  0.00     0.015 A 
HETATM   12  H   UNL     1      43.266 -15.766  -0.004  1.00  0.00     0.170 HD
ENDROOT
BRANCH   1  13
HETATM   13  C   UNL     1      43.110 -15.269   4.281  1.00  0.00     0.279 C 
HETATM   14  N   UNL     1      43.168 -15.270   5.666  1.00  0.00    -0.355 N 
HETATM   15  H   UNL     1      42.785 -16.072   6.159  1.00  0.00     0.162 HD
HETATM   16  O   UNL     1      43.676 -14.370   3.649  1.00  0.00    -0.268 OA
BRANCH  14  17
HETATM   17  C   UNL     1      44.078 -14.396   6.379  1.00  0.00     0.150 C 
BRANCH  17  18
HETATM   18  C   UNL     1      43.431 -13.077   6.839  1.00  0.00     0.254 C 
BRANCH  18  19
HETATM   19  N   UNL     1      43.876 -12.628   8.231  1.00  0.00    -0.070 N 
HETATM   20  H   UNL     1      43.538 -13.365   8.866  1.00  0.00     0.279 HD
BRANCH  19  21
HETATM   21  C   UNL     1      43.215 -11.346   8.717  1.00  0.00     0.230 C 
HETATM   22  C   UNL     1      42.135 -10.874   7.762  1.00  0.00     0.034 C 
ENDBRANCH  19  21
BRANCH  19  23
HETATM   23  C   UNL     1      45.379 -12.565   8.442  1.00  0.00     0.230 C 
HETATM   24  C   UNL     1      45.770 -11.421   9.358  1.00  0.00     0.034 C 
ENDBRANCH  19  23
ENDBRANCH  18  19
ENDBRANCH  17  18
ENDBRANCH  14  17
ENDBRANCH   1  13
BRANCH   1  25
HETATM   25  O   UNL     1      41.528 -17.058   4.597  1.00  0.00    -0.359 OA
HETATM   26  H   UNL     1      40.904 -16.393   4.947  1.00  0.00     0.213 HD
ENDBRANCH   1  25
BRANCH   2  27
HETATM   27  C   UNL     1      43.630 -18.506   3.427  1.00  0.00     0.043 A 
HETATM   28  C   UNL     1      43.720 -19.662   2.637  1.00  0.00     0.037 A 
HETATM   29  C   UNL     1      44.232 -20.873   3.139  1.00  0.00    -0.054 A 
HETATM   30  C   UNL     1      44.324 -22.065   2.226  1.00  0.00     0.049 C 
HETATM   31  C   UNL     1      44.668 -20.932   4.473  1.00  0.00    -0.056 A 
HETATM   32  C   UNL     1      45.272 -22.183   5.052  1.00  0.00     0.049 C 
HETATM   33  C   UNL     1      44.607 -19.773   5.258  1.00  0.00     0.009 A 
HETATM   34  C   UNL     1      44.100 -18.575   4.740  1.00  0.00     0.030 A 
ENDBRANCH   2  27
TORSDOF 8
ENDMDL
MODEL 2
REMARK VINA RESULT:      -8.3      2.111      3.277
REMARK  8 active torsions:
REMARK  status: ('A' for Active; 'I' for Inactive)
REMARK    1  A    between atoms: C_2  and  N_3 
REMARK    2  A    between atoms: N_3  and  C_5 
REMARK    3  A    between atoms: N_3  and  C_30 
REMARK    4  A    between atoms: C_5  and  C_6 
REMARK    5  A    between atoms: C_6  and  N_7 
REMARK       I    between atoms: N_7  and  C_8 
REMARK    6  A    between atoms: C_8  and  C_9 
REMARK    7  A    between atoms: C_9  and  O_10 
REMARK    8  A    between atoms: N_11  and  C_12 
ROOT
HETATM    1  C   UNL     1      42.017 -15.022   5.421  1.00  0.00     0.256 C 
HETATM    2  N   UNL     1      42.726 -15.198   4.149  1.00  0.00    -0.254 N 
HETATM    3  C   UNL     1      43.314 -14.070   3.579  1.00  0.00     0.330 C 
HETATM    4  O   UNL     1      44.253 -14.055   2.787  1.00  0.00    -0.246 OA
HETATM    5  N   UNL     1      42.730 -12.862   3.888  1.00  0.00    -0.308 N 
HETATM    6  C   UNL     1      41.562 -12.716   4.635  1.00  0.00     0.048 A 
HETATM    7  C   UNL     1      41.136 -13.795   5.409  1.00  0.00     0.034 A 
HETATM    8  C   UNL     1      40.872 -11.507   4.637  1.00  0.00     0.030 A 
HETATM    9  C   UNL     1      39.719 -11.379   5.410  1.00  0.00     0.002 A 
HETATM   10  C   UNL     1      39.272 -12.451   6.182  1.00  0.00     0.001 A 
HETATM   11  C   UNL     1      39.980 -13.654   6.189  1.00  0.00     0.015 A 
HETATM   12  H   UNL     1      43.060 -12.094   3.314  1.00  0.00     0.170 HD
ENDROOT
BRANCH   1  13
HETATM   13  C   UNL     1      43.125 -14.931   6.567  1.00  0.00     0.279 C 
HETATM   14  N   UNL     1      43.650 -13.687   6.883  1.00  0.00    -0.355 N 
HETATM   15  H   UNL     1      43.201 -12.866   6.488  1.00  0.00     0.162 HD
HETATM   16  O   UNL     1      43.568 -15.938   7.128  1.00  0.00    -0.268 OA
BRANCH  14  17
HETATM   17  C   UNL     1      44.522 -13.510   8.027  1.00  0.00     0.150 C 
BRANCH  17  18
HETATM   18  C   UNL     1      44.472 -12.093   8.626  1.00  0.00     0.254 C 
BRANCH  18  19
HETATM   19  N   UNL     1      43.425 -11.929   9.728  1.00  0.00    -0.070 N 
HETATM   20  H   UNL     1      42.843 -12.777   9.666  1.00  0.00     0.279 HD
BRANCH  19  21
HETATM   21  C   UNL     1      42.465 -10.768   9.511  1.00  0.00     0.230 C 
HETATM   22  C   UNL     1      42.081 -10.621   8.052  1.00  0.00     0.034 C 
ENDBRANCH  19  21
BRANCH  19  23
HETATM   23  C   UNL     1      43.972 -11.910  11.144  1.00  0.00     0.230 C 
HETATM   24  C   UNL     1      44.140 -10.495  11.663  1.00  0.00     0.034 C 
ENDBRANCH  19  23
ENDBRANCH  18  19
ENDBRANCH  17  18
ENDBRANCH  14  17
ENDBRANCH   1  13
BRANCH   1  25
HETATM   25  O   UNL     1      41.209 -16.149   5.761  1.00  0.00    -0.359 OA
HETATM   26  H   UNL     1      41.319 -16.775   5.020  1.00  0.00     0.213 HD
ENDBRANCH   1  25
BRANCH   2  27
HETATM   27  C   UNL     1      42.927 -16.490   3.567  1.00  0.00     0.043 A 
HETATM   28  C   UNL     1      43.735 -17.436   4.216  1.00  0.00     0.037 A 
HETATM   29  C   UNL     1      43.903 -18.743   3.721  1.00  0.00    -0.054 A 
HETATM   30  C   UNL     1      44.763 -19.713   4.485  1.00  0.00     0.049 C 
HETATM   31  C   UNL     1      43.242 -19.117   2.539  1.00  0.00    -0.056 A 
HETATM   32  C   UNL     1      43.340 -20.514   1.988  1.00  0.00     0.049 C 
HETATM   33  C   UNL     1      42.412 -18.185   1.903  1.00  0.00     0.009 A 
HETATM   34  C   UNL     1      42.253 -16.892   2.413  1.00  0.00     0.030 A 
ENDBRANCH   2  27
TORSDOF 8
ENDMDL
MODEL 3
REMARK VINA RESULT:      -8.3      2.663      6.068
REMARK  8 active torsions:
REMARK  status: ('A' for Active; 'I' for Inactive)
REMARK    1  A    between atoms: C_2  and  N_3 
REMARK    2  A    between atoms: N_3  and  C_5 
REMARK    3  A    between atoms: N_3  and  C_30 
REMARK    4  A    between atoms: C_5  and  C_6 
REMARK    5  A    between atoms: C_6  and  N_7 
REMARK       I    between atoms: N_7  and  C_8 
REMARK    6  A    between atoms: C_8  and  C_9 
REMARK    7  A    between atoms: C_9  and  O_10 
REMARK    8  A    between atoms: N_11  and  C_12 
ROOT
HETATM    1  C   UNL     1      41.600 -15.013   3.921  1.00  0.00     0.256 C 
HETATM    2  N   UNL     1      41.621 -16.094   4.913  1.00  0.00    -0.254 N 
HETATM    3  C   UNL     1      40.638 -16.081   5.901  1.00  0.00     0.330 C 
HETATM    4  O   UNL     1      40.231 -17.046   6.542  1.00  0.00    -0.246 OA
HETATM    5  N   UNL     1      40.130 -14.844   6.230  1.00  0.00    -0.308 N 
HETATM    6  C   UNL     1      40.597 -13.634   5.719  1.00  0.00     0.048 A 
HETATM    7  C   UNL     1      41.376 -13.665   4.563  1.00  0.00     0.034 A 
HETATM    8  C   UNL     1      40.252 -12.430   6.328  1.00  0.00     0.030 A 
HETATM    9  C   UNL     1      40.714 -11.233   5.784  1.00  0.00     0.002 A 
HETATM   10  C   UNL     1      41.503 -11.245   4.634  1.00  0.00     0.001 A 
HETATM   11  C   UNL     1      41.829 -12.455   4.019  1.00  0.00     0.015 A 
HETATM   12  H   UNL     1      39.564 -14.850   7.072  1.00  0.00     0.170 HD
ENDROOT
BRANCH   1  13
HETATM   13  C   UNL     1      40.442 -15.359   2.876  1.00  0.00     0.279 C 
HETATM   14  N   UNL     1      39.545 -14.361   2.528  1.00  0.00    -0.355 N 
HETATM   15  H   UNL     1      39.748 -13.412   2.827  1.00  0.00     0.162 HD
HETATM   16  O   UNL     1      40.289 -16.499   2.425  1.00  0.00    -0.268 OA
BRANCH  14  17
HETATM   17  C   UNL     1      38.586 -14.555   1.459  1.00  0.00     0.150 C 
BRANCH  17  18
HETATM   18  C   UNL     1      38.977 -13.852   0.146  1.00  0.00     0.254 C 
BRANCH  18  19
HETATM   19  N   UNL     1      39.837 -14.714  -0.779  1.00  0.00    -0.070 N 
HETATM   20  H   UNL     1      39.564 -15.683  -0.563  1.00  0.00     0.279 HD
BRANCH  19  21
HETATM   21  C   UNL     1      41.330 -14.644  -0.490  1.00  0.00     0.230 C 
HETATM   22  C   UNL     1      41.763 -13.243  -0.103  1.00  0.00     0.034 C 
ENDBRANCH  19  21
BRANCH  19  23
HETATM   23  C   UNL     1      39.573 -14.534  -2.263  1.00  0.00     0.230 C 
HETATM   24  C   UNL     1      40.380 -15.509  -3.100  1.00  0.00     0.034 C 
ENDBRANCH  19  23
ENDBRANCH  18  19
ENDBRANCH  17  18
ENDBRANCH  14  17
ENDBRANCH   1  13
BRANCH   1  25
HETATM   25  O   UNL     1      42.800 -14.949   3.151  1.00  0.00    -0.359 OA
HETATM   26  H   UNL     1      42.711 -15.653   2.479  1.00  0.00     0.213 HD
ENDBRANCH   1  25
BRANCH   2  27
HETATM   27  C   UNL     1      42.528 -17.197   4.811  1.00  0.00     0.043 A 
HETATM   28  C   UNL     1      42.488 -18.040   3.690  1.00  0.00     0.037 A 
HETATM   29  C   UNL     1      43.406 -19.091   3.510  1.00  0.00    -0.054 A 
HETATM   30  C   UNL     1      43.320 -19.937   2.269  1.00  0.00     0.049 C 
HETATM   31  C   UNL     1      44.398 -19.307   4.481  1.00  0.00    -0.056 A 
HETATM   32  C   UNL     1      45.440 -20.382   4.320  1.00  0.00     0.049 C 
HETATM   33  C   UNL     1      44.460 -18.451   5.589  1.00  0.00     0.009 A 
HETATM   34  C   UNL     1      43.541 -17.407   5.747  1.00  0.00     0.030 A 
ENDBRANCH   2  27
TORSDOF 8
ENDMDL
MODEL 4
REMARK VINA RESULT:      -8.2      2.763      6.465
REMARK  8 active torsions:
REMARK  status: ('A' for Active; 'I' for Inactive)
REMARK    1  A    between atoms: C_2  and  N_3 
REMARK    2  A    between atoms: N_3  and  C_5 
REMARK    3  A    between atoms: N_3  and  C_30 
REMARK    4  A    between atoms: C_5  and  C_6 
REMARK    5  A    between atoms: C_6  and  N_7 
REMARK       I    between atoms: N_7  and  C_8 
REMARK    6  A    between atoms: C_8  and  C_9 
REMARK    7  A    between atoms: C_9  and  O_10 
REMARK    8  A    between atoms: N_11  and  C_12 
ROOT
HETATM    1  C   UNL     1      42.256 -14.308   2.895  1.00  0.00     0.256 C 
HETATM    2  N   UNL     1      41.700 -15.666   2.862  1.00  0.00    -0.254 N 
HETATM    3  C   UNL     1      40.315 -15.792   2.778  1.00  0.00     0.330 C 
HETATM    4  O   UNL     1      39.692 -16.757   2.343  1.00  0.00    -0.246 OA
HETATM    5  N   UNL     1      39.580 -14.753   3.304  1.00  0.00    -0.308 N 
HETATM    6  C   UNL     1      40.124 -13.662   3.981  1.00  0.00     0.048 A 
HETATM    7  C   UNL     1      41.487 -13.409   3.834  1.00  0.00     0.034 A 
HETATM    8  C   UNL     1      39.311 -12.829   4.745  1.00  0.00     0.030 A 
HETATM    9  C   UNL     1      39.875 -11.732   5.395  1.00  0.00     0.002 A 
HETATM   10  C   UNL     1      41.239 -11.469   5.267  1.00  0.00     0.001 A 
HETATM   11  C   UNL     1      42.043 -12.298   4.484  1.00  0.00     0.015 A 
HETATM   12  H   UNL     1      38.592 -14.961   3.396  1.00  0.00     0.170 HD
ENDROOT
BRANCH   1  13
HETATM   13  C   UNL     1      42.222 -13.751   1.399  1.00  0.00     0.279 C 
HETATM   14  N   UNL     1      41.825 -14.607   0.383  1.00  0.00    -0.355 N 
HETATM   15  H   UNL     1      41.423 -15.502   0.644  1.00  0.00     0.162 HD
HETATM   16  O   UNL     1      42.599 -12.608   1.119  1.00  0.00    -0.268 OA
BRANCH  14  17
HETATM   17  C   UNL     1      41.602 -14.119  -0.964  1.00  0.00     0.150 C 
BRANCH  17  18
HETATM   18  C   UNL     1      40.838 -15.111  -1.859  1.00  0.00     0.254 C 
BRANCH  18  19
HETATM   19  N   UNL     1      39.355 -14.775  -2.019  1.00  0.00    -0.070 N 
HETATM   20  H   UNL     1      38.857 -15.580  -1.611  1.00  0.00     0.279 HD
BRANCH  19  21
HETATM   21  C   UNL     1      38.881 -14.702  -3.464  1.00  0.00     0.230 C 
HETATM   22  C   UNL     1      38.971 -16.049  -4.153  1.00  0.00     0.034 C 
ENDBRANCH  19  21
BRANCH  19  23
HETATM   23  C   UNL     1      38.878 -13.562  -1.240  1.00  0.00     0.230 C 
HETATM   24  C   UNL     1      38.064 -13.960  -0.023  1.00  0.00     0.034 C 
ENDBRANCH  19  23
ENDBRANCH  18  19
ENDBRANCH  17  18
ENDBRANCH  14  17
ENDBRANCH   1  13
BRANCH   1  25
HETATM   25  O   UNL     1      43.631 -14.285   3.279  1.00  0.00    -0.359 OA
HETATM   26  H   UNL     1      43.901 -15.223   3.315  1.00  0.00     0.213 HD
ENDBRANCH   1  25
BRANCH   2  27
HETATM   27  C   UNL     1      42.538 -16.825   2.788  1.00  0.00     0.043 A 
HETATM   28  C   UNL     1      42.894 -17.510   3.959  1.00  0.00     0.037 A 
HETATM   29  C   UNL     1      43.652 -18.696   3.931  1.00  0.00    -0.054 A 
HETATM   30  C   UNL     1      43.974 -19.392   5.225  1.00  0.00     0.049 C 
HETATM   31  C   UNL     1      44.069 -19.212   2.692  1.00  0.00    -0.056 A 
HETATM   32  C   UNL     1      44.838 -20.502   2.594  1.00  0.00     0.049 C 
HETATM   33  C   UNL     1      43.692 -18.546   1.519  1.00  0.00     0.009 A 
HETATM   34  C   UNL     1      42.932 -17.372   1.567  1.00  0.00     0.030 A 
ENDBRANCH   2  27
TORSDOF 8
ENDMDL
MODEL 5
REMARK VINA RESULT:      -8.2      2.669      7.270
REMARK  8 active torsions:
REMARK  status: ('A' for Active; 'I' for Inactive)
REMARK    1  A    between atoms: C_2  and  N_3 
REMARK    2  A    between atoms: N_3  and  C_5 
REMARK    3  A    between atoms: N_3  and  C_30 
REMARK    4  A    between atoms: C_5  and  C_6 
REMARK    5  A    between atoms: C_6  and  N_7 
REMARK       I    between atoms: N_7  and  C_8 
REMARK    6  A    between atoms: C_8  and  C_9 
REMARK    7  A    between atoms: C_9  and  O_10 
REMARK    8  A    between atoms: N_11  and  C_12 
ROOT
HETATM    1  C   UNL     1      40.697 -14.593   2.395  1.00  0.00     0.256 C 
HETATM    2  N   UNL     1      40.860 -13.662   1.273  1.00  0.00    -0.254 N 
HETATM    3  C   UNL     1      41.821 -12.661   1.402  1.00  0.00     0.330 C 
HETATM    4  O   UNL     1      42.389 -12.068   0.488  1.00  0.00    -0.246 OA
HETATM    5  N   UNL     1      42.104 -12.257   2.687  1.00  0.00    -0.308 N 
HETATM    6  C   UNL     1      41.434 -12.707   3.825  1.00  0.00     0.048 A 
HETATM    7  C   UNL     1      40.677 -13.874   3.723  1.00  0.00     0.034 A 
HETATM    8  C   UNL     1      41.560 -12.029   5.033  1.00  0.00     0.030 A 
HETATM    9  C   UNL     1      40.898 -12.512   6.161  1.00  0.00     0.002 A 
HETATM   10  C   UNL     1      40.128 -13.672   6.076  1.00  0.00     0.001 A 
HETATM   11  C   UNL     1      40.022 -14.357   4.864  1.00  0.00     0.015 A 
HETATM   12  H   UNL     1      42.658 -11.408   2.733  1.00  0.00     0.170 HD
ENDROOT
BRANCH   1  13
HETATM   13  C   UNL     1      41.901 -15.638   2.317  1.00  0.00     0.279 C 
HETATM   14  N   UNL     1      41.718 -16.806   1.594  1.00  0.00    -0.355 N 
HETATM   15  H   UNL     1      40.887 -16.883   1.015  1.00  0.00     0.162 HD
HETATM   16  O   UNL     1      42.959 -15.463   2.932  1.00  0.00    -0.268 OA
BRANCH  14  17
HETATM   17  C   UNL     1      42.823 -17.709   1.335  1.00  0.00     0.150 C 
BRANCH  17  18
HETATM   18  C   UNL     1      42.803 -18.974   2.212  1.00  0.00     0.254 C 
BRANCH  18  19
HETATM   19  N   UNL     1      44.098 -19.199   2.993  1.00  0.00    -0.070 N 
HETATM   20  H   UNL     1      44.813 -18.668   2.475  1.00  0.00     0.279 HD
BRANCH  19  21
HETATM   21  C   UNL     1      44.589 -20.640   2.988  1.00  0.00     0.230 C 
HETATM   22  C   UNL     1      43.954 -21.447   1.872  1.00  0.00     0.034 C 
ENDBRANCH  19  21
BRANCH  19  23
HETATM   23  C   UNL     1      44.111 -18.636   4.403  1.00  0.00     0.230 C 
HETATM   24  C   UNL     1      42.707 -18.416   4.933  1.00  0.00     0.034 C 
ENDBRANCH  19  23
ENDBRANCH  18  19
ENDBRANCH  17  18
ENDBRANCH  14  17
ENDBRANCH   1  13
BRANCH   1  25
HETATM   25  O   UNL     1      39.506 -15.375   2.292  1.00  0.00    -0.359 OA
HETATM   26  H   UNL     1      39.263 -15.346   1.347  1.00  0.00     0.213 HD
ENDBRANCH   1  25
BRANCH   2  27
HETATM   27  C   UNL     1      40.161 -13.837   0.036  1.00  0.00     0.043 A 
HETATM   28  C   UNL     1      40.725 -14.616  -0.987  1.00  0.00     0.037 A 
HETATM   29  C   UNL     1      40.043 -14.878  -2.190  1.00  0.00    -0.054 A 
HETATM   30  C   UNL     1      40.698 -15.744  -3.231  1.00  0.00     0.049 C 
HETATM   31  C   UNL     1      38.757 -14.344  -2.378  1.00  0.00    -0.056 A 
HETATM   32  C   UNL     1      37.958 -14.631  -3.621  1.00  0.00     0.049 C 
HETATM   33  C   UNL     1      38.179 -13.589  -1.349  1.00  0.00     0.009 A 
HETATM   34  C   UNL     1      38.870 -13.345  -0.157  1.00  0.00     0.030 A 
ENDBRANCH   2  27
TORSDOF 8
ENDMDL
MODEL 6
REMARK VINA RESULT:      -8.1      2.700      7.325
REMARK  8 active torsions:
REMARK  status: ('A' for Active; 'I' for Inactive)
REMARK    1  A    between atoms: C_2  and  N_3 
REMARK    2  A    between atoms: N_3  and  C_5 
REMARK    3  A    between atoms: N_3  and  C_30 
REMARK    4  A    between atoms: C_5  and  C_6 
REMARK    5  A    between atoms: C_6  and  N_7 
REMARK       I    between atoms: N_7  and  C_8 
REMARK    6  A    between atoms: C_8  and  C_9 
REMARK    7  A    between atoms: C_9  and  O_10 
REMARK    8  A    between atoms: N_11  and  C_12 
ROOT
HETATM    1  C   UNL     1      41.069 -14.729   2.590  1.00  0.00     0.256 C 
HETATM    2  N   UNL     1      41.225 -13.898   1.390  1.00  0.00    -0.254 N 
HETATM    3  C   UNL     1      41.976 -12.730   1.509  1.00  0.00     0.330 C 
HETATM    4  O   UNL     1      42.554 -12.135   0.603  1.00  0.00    -0.246 OA
HETATM    5  N   UNL     1      42.008 -12.157   2.761  1.00  0.00    -0.308 N 
HETATM    6  C   UNL     1      41.275 -12.609   3.858  1.00  0.00     0.048 A 
HETATM    7  C   UNL     1      40.747 -13.899   3.810  1.00  0.00     0.034 A 
HETATM    8  C   UNL     1      41.118 -11.804   4.982  1.00  0.00     0.030 A 
HETATM    9  C   UNL     1      40.399 -12.287   6.075  1.00  0.00     0.002 A 
HETATM   10  C   UNL     1      39.856 -13.571   6.041  1.00  0.00     0.001 A 
HETATM   11  C   UNL     1      40.034 -14.380   4.917  1.00  0.00     0.015 A 
HETATM   12  H   UNL     1      42.399 -11.221   2.768  1.00  0.00     0.170 HD
ENDROOT
BRANCH   1  13
HETATM   13  C   UNL     1      42.432 -15.538   2.780  1.00  0.00     0.279 C 
HETATM   14  N   UNL     1      42.448 -16.890   2.475  1.00  0.00    -0.355 N 
HETATM   15  H   UNL     1      41.641 -17.280   1.997  1.00  0.00     0.162 HD
HETATM   16  O   UNL     1      43.446 -15.008   3.249  1.00  0.00    -0.268 OA
BRANCH  14  17
HETATM   17  C   UNL     1      43.688 -17.640   2.454  1.00  0.00     0.150 C 
BRANCH  17  18
HETATM   18  C   UNL     1      43.922 -18.478   3.724  1.00  0.00     0.254 C 
BRANCH  18  19
HETATM   19  N   UNL     1      43.879 -19.987   3.480  1.00  0.00    -0.070 N 
HETATM   20  H   UNL     1      43.072 -20.319   4.027  1.00  0.00     0.279 HD
BRANCH  19  21
HETATM   21  C   UNL     1      45.078 -20.745   4.033  1.00  0.00     0.230 C 
HETATM   22  C   UNL     1      44.722 -21.522   5.286  1.00  0.00     0.034 C 
ENDBRANCH  19  21
BRANCH  19  23
HETATM   23  C   UNL     1      43.602 -20.403   2.046  1.00  0.00     0.230 C 
HETATM   24  C   UNL     1      44.141 -21.789   1.749  1.00  0.00     0.034 C 
ENDBRANCH  19  23
ENDBRANCH  18  19
ENDBRANCH  17  18
ENDBRANCH  14  17
ENDBRANCH   1  13
BRANCH   1  25
HETATM   25  O   UNL     1      40.054 -15.722   2.444  1.00  0.00    -0.359 OA
HETATM   26  H   UNL     1      40.071 -16.229   3.278  1.00  0.00     0.213 HD
ENDBRANCH   1  25
BRANCH   2  27
HETATM   27  C   UNL     1      40.741 -14.319   0.110  1.00  0.00     0.043 A 
HETATM   28  C   UNL     1      39.611 -13.705  -0.451  1.00  0.00     0.037 A 
HETATM   29  C   UNL     1      39.142 -14.032  -1.737  1.00  0.00    -0.054 A 
HETATM   30  C   UNL     1      37.940 -13.313  -2.285  1.00  0.00     0.049 C 
HETATM   31  C   UNL     1      39.824 -15.005  -2.487  1.00  0.00    -0.056 A 
HETATM   32  C   UNL     1      39.402 -15.361  -3.887  1.00  0.00     0.049 C 
HETATM   33  C   UNL     1      40.969 -15.601  -1.942  1.00  0.00     0.009 A 
HETATM   34  C   UNL     1      41.423 -15.258  -0.664  1.00  0.00     0.030 A 
ENDBRANCH   2  27
TORSDOF 8
ENDMDL
MODEL 7
REMARK VINA RESULT:      -8.1      2.495      6.082
REMARK  8 active torsions:
REMARK  status: ('A' for Active; 'I' for Inactive)
REMARK    1  A    between atoms: C_2  and  N_3 
REMARK    2  A    between atoms: N_3  and  C_5 
REMARK    3  A    between atoms: N_3  and  C_30 
REMARK    4  A    between atoms: C_5  and  C_6 
REMARK    5  A    between atoms: C_6  and  N_7 
REMARK       I    between atoms: N_7  and  C_8 
REMARK    6  A    between atoms: C_8  and  C_9 
REMARK    7  A    between atoms: C_9  and  O_10 
REMARK    8  A    between atoms: N_11  and  C_12 
ROOT
HETATM    1  C   UNL     1      42.049 -15.387   3.857  1.00  0.00     0.256 C 
HETATM    2  N   UNL     1      41.880 -16.592   4.676  1.00  0.00    -0.254 N 
HETATM    3  C   UNL     1      40.707 -16.705   5.421  1.00  0.00     0.330 C 
HETATM    4  O   UNL     1      40.192 -17.744   5.824  1.00  0.00    -0.246 OA
HETATM    5  N   UNL     1      40.114 -15.520   5.795  1.00  0.00    -0.308 N 
HETATM    6  C   UNL     1      40.654 -14.255   5.564  1.00  0.00     0.048 A 
HETATM    7  C   UNL     1      41.664 -14.136   4.610  1.00  0.00     0.034 A 
HETATM    8  C   UNL     1      40.160 -13.142   6.239  1.00  0.00     0.030 A 
HETATM    9  C   UNL     1      40.703 -11.886   5.974  1.00  0.00     0.002 A 
HETATM   10  C   UNL     1      41.721 -11.749   5.030  1.00  0.00     0.001 A 
HETATM   11  C   UNL     1      42.197 -12.867   4.344  1.00  0.00     0.015 A 
HETATM   12  H   UNL     1      39.380 -15.635   6.486  1.00  0.00     0.170 HD
ENDROOT
BRANCH   1  13
HETATM   13  C   UNL     1      41.152 -15.578   2.550  1.00  0.00     0.279 C 
HETATM   14  N   UNL     1      41.785 -15.700   1.323  1.00  0.00    -0.355 N 
HETATM   15  H   UNL     1      42.794 -15.820   1.318  1.00  0.00     0.162 HD
HETATM   16  O   UNL     1      39.917 -15.556   2.598  1.00  0.00    -0.268 OA
BRANCH  14  17
HETATM   17  C   UNL     1      41.044 -16.053   0.129  1.00  0.00     0.150 C 
BRANCH  17  18
HETATM   18  C   UNL     1      40.884 -14.886  -0.863  1.00  0.00     0.254 C 
BRANCH  18  19
HETATM   19  N   UNL     1      39.430 -14.469  -1.088  1.00  0.00    -0.070 N 
HETATM   20  H   UNL     1      38.887 -15.336  -0.975  1.00  0.00     0.279 HD
BRANCH  19  21
HETATM   21  C   UNL     1      39.129 -13.988  -2.501  1.00  0.00     0.230 C 
HETATM   22  C   UNL     1      37.998 -14.776  -3.133  1.00  0.00     0.034 C 
ENDBRANCH  19  21
BRANCH  19  23
HETATM   23  C   UNL     1      38.869 -13.498  -0.064  1.00  0.00     0.230 C 
HETATM   24  C   UNL     1      37.596 -14.025   0.571  1.00  0.00     0.034 C 
ENDBRANCH  19  23
ENDBRANCH  18  19
ENDBRANCH  17  18
ENDBRANCH  14  17
ENDBRANCH   1  13
BRANCH   1  25
HETATM   25  O   UNL     1      43.386 -15.229   3.380  1.00  0.00    -0.359 OA
HETATM   26  H   UNL     1      43.676 -14.359   3.717  1.00  0.00     0.213 HD
ENDBRANCH   1  25
BRANCH   2  27
HETATM   27  C   UNL     1      42.811 -17.679   4.626  1.00  0.00     0.043 A 
HETATM   28  C   UNL     1      42.846 -18.524   3.507  1.00  0.00     0.037 A 
HETATM   29  C   UNL     1      43.792 -19.558   3.379  1.00  0.00    -0.054 A 
HETATM   30  C   UNL     1      43.787 -20.409   2.138  1.00  0.00     0.049 C 
HETATM   31  C   UNL     1      44.734 -19.755   4.403  1.00  0.00    -0.056 A 
HETATM   32  C   UNL     1      45.802 -20.810   4.301  1.00  0.00     0.049 C 
HETATM   33  C   UNL     1      44.721 -18.896   5.510  1.00  0.00     0.009 A 
HETATM   34  C   UNL     1      43.776 -17.869   5.616  1.00  0.00     0.030 A 
ENDBRANCH   2  27
TORSDOF 8
ENDMDL
MODEL 8
REMARK VINA RESULT:      -8.0      2.354      7.731
REMARK  8 active torsions:
REMARK  status: ('A' for Active; 'I' for Inactive)
REMARK    1  A    between atoms: C_2  and  N_3 
REMARK    2  A    between atoms: N_3  and  C_5 
REMARK    3  A    between atoms: N_3  and  C_30 
REMARK    4  A    between atoms: C_5  and  C_6 
REMARK    5  A    between atoms: C_6  and  N_7 
REMARK       I    between atoms: N_7  and  C_8 
REMARK    6  A    between atoms: C_8  and  C_9 
REMARK    7  A    between atoms: C_9  and  O_10 
REMARK    8  A    between atoms: N_11  and  C_12 
ROOT
HETATM    1  C   UNL     1      41.233 -15.228   3.563  1.00  0.00     0.256 C 
HETATM    2  N   UNL     1      41.168 -13.976   2.801  1.00  0.00    -0.254 N 
HETATM    3  C   UNL     1      42.373 -13.336   2.511  1.00  0.00     0.330 C 
HETATM    4  O   UNL     1      42.582 -12.552   1.589  1.00  0.00    -0.246 OA
HETATM    5  N   UNL     1      43.404 -13.560   3.395  1.00  0.00    -0.308 N 
HETATM    6  C   UNL     1      43.289 -14.288   4.579  1.00  0.00     0.048 A 
HETATM    7  C   UNL     1      42.186 -15.128   4.730  1.00  0.00     0.034 A 
HETATM    8  C   UNL     1      44.275 -14.205   5.558  1.00  0.00     0.030 A 
HETATM    9  C   UNL     1      44.146 -14.959   6.724  1.00  0.00     0.002 A 
HETATM   10  C   UNL     1      43.045 -15.797   6.896  1.00  0.00     0.001 A 
HETATM   11  C   UNL     1      42.070 -15.889   5.901  1.00  0.00     0.015 A 
HETATM   12  H   UNL     1      44.195 -12.939   3.262  1.00  0.00     0.170 HD
ENDROOT
BRANCH   1  13
HETATM   13  C   UNL     1      41.680 -16.374   2.544  1.00  0.00     0.279 C 
HETATM   14  N   UNL     1      42.996 -16.808   2.571  1.00  0.00    -0.355 N 
HETATM   15  H   UNL     1      43.585 -16.496   3.338  1.00  0.00     0.162 HD
HETATM   16  O   UNL     1      40.906 -16.832   1.696  1.00  0.00    -0.268 OA
BRANCH  14  17
HETATM   17  C   UNL     1      43.422 -17.961   1.803  1.00  0.00     0.150 C 
BRANCH  17  18
HETATM   18  C   UNL     1      43.136 -19.304   2.498  1.00  0.00     0.254 C 
BRANCH  18  19
HETATM   19  N   UNL     1      44.327 -19.852   3.285  1.00  0.00    -0.070 N 
HETATM   20  H   UNL     1      45.101 -19.207   3.075  1.00  0.00     0.279 HD
BRANCH  19  21
HETATM   21  C   UNL     1      44.808 -21.220   2.820  1.00  0.00     0.230 C 
HETATM   22  C   UNL     1      43.902 -21.801   1.752  1.00  0.00     0.034 C 
ENDBRANCH  19  21
BRANCH  19  23
HETATM   23  C   UNL     1      44.171 -19.828   4.795  1.00  0.00     0.230 C 
HETATM   24  C   UNL     1      44.892 -18.645   5.415  1.00  0.00     0.034 C 
ENDBRANCH  19  23
ENDBRANCH  18  19
ENDBRANCH  17  18
ENDBRANCH  14  17
ENDBRANCH   1  13
BRANCH   1  25
HETATM   25  O   UNL     1      39.958 -15.637   4.059  1.00  0.00    -0.359 OA
HETATM   26  H   UNL     1      39.606 -14.857   4.531  1.00  0.00     0.213 HD
ENDBRANCH   1  25
BRANCH   2  27
HETATM   27  C   UNL     1      39.939 -13.482   2.259  1.00  0.00     0.043 A 
HETATM   28  C   UNL     1      39.373 -12.300   2.761  1.00  0.00     0.037 A 
HETATM   29  C   UNL     1      38.207 -11.736   2.211  1.00  0.00    -0.054 A 
HETATM   30  C   UNL     1      37.673 -10.451   2.783  1.00  0.00     0.049 C 
HETATM   31  C   UNL     1      37.585 -12.373   1.124  1.00  0.00    -0.056 A 
HETATM   32  C   UNL     1      36.366 -11.792   0.461  1.00  0.00     0.049 C 
HETATM   33  C   UNL     1      38.162 -13.539   0.602  1.00  0.00     0.009 A 
HETATM   34  C   UNL     1      39.325 -14.081   1.158  1.00  0.00     0.030 A 
ENDBRANCH   2  27
TORSDOF 8
ENDMDL
MODEL 9
REMARK VINA RESULT:      -7.9      3.641      5.835
REMARK  8 active torsions:
REMARK  status: ('A' for Active; 'I' for Inactive)
REMARK    1  A    between atoms: C_2  and  N_3 
REMARK    2  A    between atoms: N_3  and  C_5 
REMARK    3  A    between atoms: N_3  and  C_30 
REMARK    4  A    between atoms: C_5  and  C_6 
REMARK    5  A    between atoms: C_6  and  N_7 
REMARK       I    between atoms: N_7  and  C_8 
REMARK    6  A    between atoms: C_8  and  C_9 
REMARK    7  A    between atoms: C_9  and  O_10 
REMARK    8  A    between atoms: N_11  and  C_12 
ROOT
HETATM    1  C   UNL     1      40.963 -15.516   0.402  1.00  0.00     0.256 C 
HETATM    2  N   UNL     1      41.962 -15.127   1.404  1.00  0.00    -0.254 N 
HETATM    3  C   UNL     1      42.318 -13.781   1.469  1.00  0.00     0.330 C 
HETATM    4  O   UNL     1      42.788 -13.193   2.439  1.00  0.00    -0.246 OA
HETATM    5  N   UNL     1      42.191 -13.065   0.299  1.00  0.00    -0.308 N 
HETATM    6  C   UNL     1      41.831 -13.615  -0.931  1.00  0.00     0.048 A 
HETATM    7  C   UNL     1      41.232 -14.874  -0.939  1.00  0.00     0.034 A 
HETATM    8  C   UNL     1      42.029 -12.900  -2.109  1.00  0.00     0.030 A 
HETATM    9  C   UNL     1      41.641 -13.464  -3.324  1.00  0.00     0.002 A 
HETATM   10  C   UNL     1      41.049 -14.726  -3.351  1.00  0.00     0.001 A 
HETATM   11  C   UNL     1      40.837 -15.429  -2.164  1.00  0.00     0.015 A 
HETATM   12  H   UNL     1      42.632 -12.152   0.332  1.00  0.00     0.170 HD
ENDROOT
BRANCH   1  13
HETATM   13  C   UNL     1      39.535 -15.090   0.974  1.00  0.00     0.279 C 
HETATM   14  N   UNL     1      38.735 -14.256   0.207  1.00  0.00    -0.355 N 
HETATM   15  H   UNL     1      39.018 -14.075  -0.751  1.00  0.00     0.162 HD
HETATM   16  O   UNL     1      39.155 -15.428   2.101  1.00  0.00    -0.268 OA
BRANCH  14  17
HETATM   17  C   UNL     1      37.364 -13.977   0.584  1.00  0.00     0.150 C 
BRANCH  17  18
HETATM   18  C   UNL     1      37.082 -12.482   0.819  1.00  0.00     0.254 C 
BRANCH  18  19
HETATM   19  N   UNL     1      38.309 -11.691   1.273  1.00  0.00    -0.070 N 
HETATM   20  H   UNL     1      39.096 -12.348   1.176  1.00  0.00     0.279 HD
BRANCH  19  21
HETATM   21  C   UNL     1      38.293 -11.300   2.744  1.00  0.00     0.230 C 
HETATM   22  C   UNL     1      39.262 -12.135   3.558  1.00  0.00     0.034 C 
ENDBRANCH  19  21
BRANCH  19  23
HETATM   23  C   UNL     1      38.665 -10.495   0.408  1.00  0.00     0.230 C 
HETATM   24  C   UNL     1      38.870 -10.891  -1.042  1.00  0.00     0.034 C 
ENDBRANCH  19  23
ENDBRANCH  18  19
ENDBRANCH  17  18
ENDBRANCH  14  17
ENDBRANCH   1  13
BRANCH   1  25
HETATM   25  O   UNL     1      40.893 -16.930   0.216  1.00  0.00    -0.359 OA
HETATM   26  H   UNL     1      39.943 -17.149   0.281  1.00  0.00     0.213 HD
ENDBRANCH   1  25
BRANCH   2  27
HETATM   27  C   UNL     1      42.466 -16.055   2.371  1.00  0.00     0.043 A 
HETATM   28  C   UNL     1      41.823 -16.199   3.610  1.00  0.00     0.037 A 
HETATM   29  C   UNL     1      42.237 -17.149   4.561  1.00  0.00    -0.054 A 
HETATM   30  C   UNL     1      41.483 -17.266   5.858  1.00  0.00     0.049 C 
HETATM   31  C   UNL     1      43.328 -17.984   4.266  1.00  0.00    -0.056 A 
HETATM   32  C   UNL     1      43.785 -19.053   5.221  1.00  0.00     0.049 C 
HETATM   33  C   UNL     1      43.956 -17.863   3.019  1.00  0.00     0.009 A 
HETATM   34  C   UNL     1      43.526 -16.915   2.083  1.00  0.00     0.030 A 
ENDBRANCH   2  27
TORSDOF 8
ENDMDL
MODEL 10
REMARK VINA RESULT:      -7.5      2.463      7.445
REMARK  8 active torsions:
REMARK  status: ('A' for Active; 'I' for Inactive)
REMARK    1  A    between atoms: C_2  and  N_3 
REMARK    2  A    between atoms: N_3  and  C_5 
REMARK    3  A    between atoms: N_3  and  C_30 
REMARK    4  A    between atoms: C_5  and  C_6 
REMARK    5  A    between atoms: C_6  and  N_7 
REMARK       I    between atoms: N_7  and  C_8 
REMARK    6  A    between atoms: C_8  and  C_9 
REMARK    7  A    between atoms: C_9  and  O_10 
REMARK    8  A    between atoms: N_11  and  C_12 
ROOT
HETATM    1  C   UNL     1      42.702 -14.322   4.309  1.00  0.00     0.256 C 
HETATM    2  N   UNL     1      41.448 -13.705   4.757  1.00  0.00    -0.254 N 
HETATM    3  C   UNL     1      40.358 -14.548   4.972  1.00  0.00     0.330 C 
HETATM    4  O   UNL     1      39.394 -14.327   5.700  1.00  0.00    -0.246 OA
HETATM    5  N   UNL     1      40.338 -15.710   4.233  1.00  0.00    -0.308 N 
HETATM    6  C   UNL     1      41.264 -16.036   3.243  1.00  0.00     0.048 A 
HETATM    7  C   UNL     1      42.471 -15.338   3.216  1.00  0.00     0.034 A 
HETATM    8  C   UNL     1      41.000 -17.061   2.339  1.00  0.00     0.030 A 
HETATM    9  C   UNL     1      41.951 -17.381   1.372  1.00  0.00     0.002 A 
HETATM   10  C   UNL     1      43.160 -16.687   1.324  1.00  0.00     0.001 A 
HETATM   11  C   UNL     1      43.425 -15.674   2.246  1.00  0.00     0.015 A 
HETATM   12  H   UNL     1      39.450 -16.200   4.273  1.00  0.00     0.170 HD
ENDROOT
BRANCH   1  13
HETATM   13  C   UNL     1      43.379 -14.991   5.591  1.00  0.00     0.279 C 
HETATM   14  N   UNL     1      43.447 -16.374   5.659  1.00  0.00    -0.355 N 
HETATM   15  H   UNL     1      43.208 -16.904   4.826  1.00  0.00     0.162 HD
HETATM   16  O   UNL     1      43.781 -14.315   6.545  1.00  0.00    -0.268 OA
BRANCH  14  17
HETATM   17  C   UNL     1      44.202 -17.038   6.702  1.00  0.00     0.150 C 
BRANCH  17  18
HETATM   18  C   UNL     1      44.974 -18.276   6.211  1.00  0.00     0.254 C 
BRANCH  18  19
HETATM   19  N   UNL     1      44.094 -19.304   5.499  1.00  0.00    -0.070 N 
HETATM   20  H   UNL     1      43.154 -19.166   5.896  1.00  0.00     0.279 HD
BRANCH  19  21
HETATM   21  C   UNL     1      44.450 -20.752   5.804  1.00  0.00     0.230 C 
HETATM   22  C   UNL     1      43.638 -21.298   6.962  1.00  0.00     0.034 C 
ENDBRANCH  19  21
BRANCH  19  23
HETATM   23  C   UNL     1      43.940 -19.097   4.002  1.00  0.00     0.230 C 
HETATM   24  C   UNL     1      44.603 -20.209   3.210  1.00  0.00     0.034 C 
ENDBRANCH  19  23
ENDBRANCH  18  19
ENDBRANCH  17  18
ENDBRANCH  14  17
ENDBRANCH   1  13
BRANCH   1  25
HETATM   25  O   UNL     1      43.648 -13.363   3.836  1.00  0.00    -0.359 OA
HETATM   26  H   UNL     1      44.499 -13.623   4.240  1.00  0.00     0.213 HD
ENDBRANCH   1  25
BRANCH   2  27
HETATM   27  C   UNL     1      41.363 -12.315   5.088  1.00  0.00     0.043 A 
HETATM   28  C   UNL     1      41.588 -11.892   6.407  1.00  0.00     0.037 A 
HETATM   29  C   UNL     1      41.589 -10.531   6.766  1.00  0.00    -0.054 A 
HETATM   30  C   UNL     1      41.864 -10.149   8.195  1.00  0.00     0.049 C 
HETATM   31  C   UNL     1      41.358  -9.562   5.776  1.00  0.00    -0.056 A 
HETATM   32  C   UNL     1      41.398  -8.090   6.088  1.00  0.00     0.049 C 
HETATM   33  C   UNL     1      41.161  -9.978   4.453  1.00  0.00     0.009 A 
HETATM   34  C   UNL     1      41.170 -11.336   4.114  1.00  0.00     0.030 A 
ENDBRANCH   2  27
TORSDOF 8
ENDMDL
