MODEL 1
REMARK VINA RESULT:      -9.0      0.000      0.000
REMARK  9 active torsions:
REMARK  status: ('A' for Active; 'I' for Inactive)
REMARK    1  A    between atoms: C_4  and  C_5 
REMARK    2  A    between atoms: C_13  and  C_14 
REMARK    3  A    between atoms: C_14  and  N_15 
REMARK    4  A    between atoms: C_19  and  C_20 
REMARK       I    between atoms: C_20  and  N_21 
REMARK    5  A    between atoms: N_21  and  C_22 
REMARK    6  A    between atoms: C_22  and  C_23 
REMARK    7  A    between atoms: C_23  and  C_24 
REMARK    8  A    between atoms: C_24  and  N_25 
REMARK    9  A    between atoms: N_29  and  C_30 
ROOT
HETATM    1  N   UNL     1      42.030 -14.434  -0.870  1.00  0.00    -0.066 N 
HETATM    2  H   UNL     1      42.839 -15.058  -1.010  1.00  0.00     0.280 HD
HETATM    3  C   UNL     1      40.825 -15.160  -1.410  1.00  0.00     0.236 C 
HETATM    4  C   UNL     1      40.900 -15.262  -2.933  1.00  0.00     0.042 C 
HETATM    5  C   UNL     1      41.036 -13.890  -3.594  1.00  0.00     0.081 C 
HETATM    6  C   UNL     1      42.259 -13.168  -3.028  1.00  0.00     0.042 C 
HETATM    7  C   UNL     1      42.294 -13.098  -1.508  1.00  0.00     0.236 C 
ENDROOT
BRANCH   5   8
HETATM    8  C   UNL     1      39.739 -13.109  -3.388  1.00  0.00     0.221 C 
HETATM    9  N   UNL     1      38.842 -13.698  -2.527  1.00  0.00    -0.361 N 
HETATM   10  H   UNL     1      39.068 -14.603  -2.124  1.00  0.00     0.162 HD
HETATM   11  O   UNL     1      39.571 -11.988  -3.860  1.00  0.00    -0.273 OA
BRANCH   9  12
HETATM   12  C   UNL     1      37.733 -12.962  -1.946  1.00  0.00     0.124 C 
BRANCH  12  13
HETATM   13  C   UNL     1      37.908 -12.630  -0.460  1.00  0.00     0.047 C 
BRANCH  13  14
HETATM   14  C   UNL     1      38.974 -11.548  -0.294  1.00  0.00     0.236 C 
BRANCH  14  15
HETATM   15  N   UNL     1      39.172 -11.152   1.154  1.00  0.00    -0.068 N 
HETATM   16  H   UNL     1      38.705 -10.252   1.323  1.00  0.00     0.280 HD
HETATM   17  C   UNL     1      38.491 -12.180   2.083  1.00  0.00     0.254 C 
HETATM   18  C   UNL     1      38.711 -11.831   3.570  1.00  0.00     0.150 C 
HETATM   19  N   UNL     1      40.141 -11.649   3.874  1.00  0.00    -0.378 N 
HETATM   20  C   UNL     1      40.796 -10.625   3.037  1.00  0.00     0.150 C 
HETATM   21  C   UNL     1      40.652 -10.982   1.541  1.00  0.00     0.254 C 
BRANCH  19  22
HETATM   22  C   UNL     1      40.928 -12.722   4.301  1.00  0.00     0.031 A 
HETATM   23  C   UNL     1      40.412 -13.844   4.965  1.00  0.00     0.053 A 
HETATM   24  C   UNL     1      41.239 -14.903   5.364  1.00  0.00     0.036 A 
HETATM   25 CL   UNL     1      40.538 -16.275   6.134  1.00  0.00    -0.084 Cl
HETATM   26  C   UNL     1      42.607 -14.864   5.135  1.00  0.00     0.024 A 
HETATM   27  C   UNL     1      43.153 -13.750   4.512  1.00  0.00     0.004 A 
HETATM   28  C   UNL     1      42.323 -12.696   4.107  1.00  0.00     0.029 A 
ENDBRANCH  19  22
ENDBRANCH  14  15
ENDBRANCH  13  14
ENDBRANCH  12  13
ENDBRANCH   9  12
ENDBRANCH   5   8
BRANCH   1  29
HETATM   29  C   UNL     1      41.955 -14.255   0.645  1.00  0.00     0.296 C 
BRANCH  29  30
HETATM   30  C   UNL     1      41.925 -15.510   1.436  1.00  0.00     0.092 A 
HETATM   31  C   UNL     1      40.841 -16.130   2.019  1.00  0.00     0.078 A 
HETATM   32  C   UNL     1      39.396 -15.852   2.104  1.00  0.00     0.079 C 
HETATM   33  O   UNL     1      41.291 -17.258   2.636  1.00  0.00    -0.294 OA
HETATM   34  C   UNL     1      42.643 -17.269   2.410  1.00  0.00     0.180 A 
HETATM   35  N   UNL     1      43.071 -16.240   1.691  1.00  0.00    -0.224 NA
BRANCH  34  36
HETATM   36  C   UNL     1      43.381 -18.403   2.959  1.00  0.00     0.019 A 
HETATM   37  C   UNL     1      43.587 -19.546   2.174  1.00  0.00     0.039 A 
HETATM   38  C   UNL     1      44.279 -20.642   2.691  1.00  0.00     0.035 A 
HETATM   39 CL   UNL     1      44.508 -22.036   1.711  1.00  0.00    -0.084 Cl
HETATM   40  C   UNL     1      44.780 -20.617   3.990  1.00  0.00     0.024 A 
HETATM   41  C   UNL     1      44.585 -19.488   4.780  1.00  0.00     0.003 A 
HETATM   42  C   UNL     1      43.890 -18.388   4.268  1.00  0.00     0.016 A 
ENDBRANCH  34  36
ENDBRANCH  29  30
ENDBRANCH   1  29
TORSDOF 9
ENDMDL
MODEL 2
REMARK VINA RESULT:      -8.8      2.644      5.783
REMARK  9 active torsions:
REMARK  status: ('A' for Active; 'I' for Inactive)
REMARK    1  A    between atoms: C_4  and  C_5 
REMARK    2  A    between atoms: C_13  and  C_14 
REMARK    3  A    between atoms: C_14  and  N_15 
REMARK    4  A    between atoms: C_19  and  C_20 
REMARK       I    between atoms: C_20  and  N_21 
REMARK    5  A    between atoms: N_21  and  C_22 
REMARK    6  A    between atoms: C_22  and  C_23 
REMARK    7  A    between atoms: C_23  and  C_24 
REMARK    8  A    between atoms: C_24  and  N_25 
REMARK    9  A    between atoms: N_29  and  C_30 
ROOT
HETATM    1  N   UNL     1      41.806 -13.816   4.333  1.00  0.00    -0.066 N 
HETATM    2  H   UNL     1      42.105 -14.136   5.267  1.00  0.00     0.280 HD
HETATM    3  C   UNL     1      42.051 -12.330   4.286  1.00  0.00     0.236 C 
HETATM    4  C   UNL     1      41.078 -11.598   5.209  1.00  0.00     0.042 C 
HETATM    5  C   UNL     1      39.620 -11.909   4.869  1.00  0.00     0.081 C 
HETATM    6  C   UNL     1      39.394 -13.421   4.915  1.00  0.00     0.042 C 
HETATM    7  C   UNL     1      40.381 -14.224   4.079  1.00  0.00     0.236 C 
ENDROOT
BRANCH   5   8
HETATM    8  C   UNL     1      39.288 -11.301   3.507  1.00  0.00     0.221 C 
HETATM    9  N   UNL     1      38.541 -12.109   2.681  1.00  0.00    -0.361 N 
HETATM   10  H   UNL     1      38.295 -13.044   2.998  1.00  0.00     0.162 HD
HETATM   11  O   UNL     1      39.565 -10.138   3.227  1.00  0.00    -0.273 OA
BRANCH   9  12
HETATM   12  C   UNL     1      37.846 -11.590   1.516  1.00  0.00     0.124 C 
BRANCH  12  13
HETATM   13  C   UNL     1      37.309 -12.670   0.571  1.00  0.00     0.047 C 
BRANCH  13  14
HETATM   14  C   UNL     1      37.901 -14.028   0.947  1.00  0.00     0.236 C 
BRANCH  14  15
HETATM   15  N   UNL     1      38.926 -14.507  -0.057  1.00  0.00    -0.068 N 
HETATM   16  H   UNL     1      38.910 -15.536  -0.090  1.00  0.00     0.280 HD
HETATM   17  C   UNL     1      38.551 -14.019  -1.474  1.00  0.00     0.254 C 
HETATM   18  C   UNL     1      39.600 -14.454  -2.518  1.00  0.00     0.150 C 
HETATM   19  N   UNL     1      40.959 -14.048  -2.117  1.00  0.00    -0.378 N 
HETATM   20  C   UNL     1      41.360 -14.558  -0.792  1.00  0.00     0.150 C 
HETATM   21  C   UNL     1      40.364 -14.082   0.290  1.00  0.00     0.254 C 
BRANCH  19  22
HETATM   22  C   UNL     1      41.488 -12.816  -2.512  1.00  0.00     0.031 A 
HETATM   23  C   UNL     1      42.339 -12.046  -1.707  1.00  0.00     0.053 A 
HETATM   24  C   UNL     1      42.856 -10.821  -2.151  1.00  0.00     0.036 A 
HETATM   25 CL   UNL     1      43.935  -9.944  -1.134  1.00  0.00    -0.084 Cl
HETATM   26  C   UNL     1      42.521 -10.317  -3.399  1.00  0.00     0.024 A 
HETATM   27  C   UNL     1      41.651 -11.039  -4.205  1.00  0.00     0.004 A 
HETATM   28  C   UNL     1      41.142 -12.267  -3.762  1.00  0.00     0.029 A 
ENDBRANCH  19  22
ENDBRANCH  14  15
ENDBRANCH  13  14
ENDBRANCH  12  13
ENDBRANCH   9  12
ENDBRANCH   5   8
BRANCH   1  29
HETATM   29  C   UNL     1      42.718 -14.574   3.369  1.00  0.00     0.296 C 
BRANCH  29  30
HETATM   30  C   UNL     1      43.146 -15.921   3.821  1.00  0.00     0.092 A 
HETATM   31  C   UNL     1      43.501 -16.326   5.089  1.00  0.00     0.078 A 
HETATM   32  C   UNL     1      43.601 -15.675   6.408  1.00  0.00     0.079 C 
HETATM   33  O   UNL     1      43.814 -17.651   5.028  1.00  0.00    -0.294 OA
HETATM   34  C   UNL     1      43.646 -17.993   3.712  1.00  0.00     0.180 A 
HETATM   35  N   UNL     1      43.243 -16.987   2.947  1.00  0.00    -0.224 NA
BRANCH  34  36
HETATM   36  C   UNL     1      43.903 -19.389   3.370  1.00  0.00     0.019 A 
HETATM   37  C   UNL     1      44.449 -20.252   4.330  1.00  0.00     0.039 A 
HETATM   38  C   UNL     1      44.712 -21.586   4.012  1.00  0.00     0.035 A 
HETATM   39 CL   UNL     1      45.392 -22.621   5.204  1.00  0.00    -0.084 Cl
HETATM   40  C   UNL     1      44.432 -22.081   2.741  1.00  0.00     0.024 A 
HETATM   41  C   UNL     1      43.887 -21.236   1.778  1.00  0.00     0.003 A 
HETATM   42  C   UNL     1      43.625 -19.898   2.091  1.00  0.00     0.016 A 
ENDBRANCH  34  36
ENDBRANCH  29  30
ENDBRANCH   1  29
TORSDOF 9
ENDMDL
MODEL 3
REMARK VINA RESULT:      -8.5      1.713      2.340
REMARK  9 active torsions:
REMARK  status: ('A' for Active; 'I' for Inactive)
REMARK    1  A    between atoms: C_4  and  C_5 
REMARK    2  A    between atoms: C_13  and  C_14 
REMARK    3  A    between atoms: C_14  and  N_15 
REMARK    4  A    between atoms: C_19  and  C_20 
REMARK       I    between atoms: C_20  and  N_21 
REMARK    5  A    between atoms: N_21  and  C_22 
REMARK    6  A    between atoms: C_22  and  C_23 
REMARK    7  A    between atoms: C_23  and  C_24 
REMARK    8  A    between atoms: C_24  and  N_25 
REMARK    9  A    between atoms: N_29  and  C_30 
ROOT
HETATM    1  N   UNL     1      39.441 -14.989   0.576  1.00  0.00    -0.066 N 
HETATM    2  H   UNL     1      39.108 -15.946   0.379  1.00  0.00     0.280 HD
HETATM    3  C   UNL     1      38.284 -14.063   0.303  1.00  0.00     0.236 C 
HETATM    4  C   UNL     1      37.986 -14.004  -1.194  1.00  0.00     0.042 C 
HETATM    5  C   UNL     1      39.211 -13.580  -2.006  1.00  0.00     0.081 C 
HETATM    6  C   UNL     1      40.374 -14.528  -1.711  1.00  0.00     0.042 C 
HETATM    7  C   UNL     1      40.678 -14.699  -0.229  1.00  0.00     0.236 C 
ENDROOT
BRANCH   5   8
HETATM    8  C   UNL     1      39.537 -12.122  -1.687  1.00  0.00     0.221 C 
HETATM    9  N   UNL     1      38.464 -11.368  -1.274  1.00  0.00    -0.361 N 
HETATM   10  H   UNL     1      37.542 -11.797  -1.245  1.00  0.00     0.162 HD
HETATM   11  O   UNL     1      40.690 -11.699  -1.682  1.00  0.00    -0.273 OA
BRANCH   9  12
HETATM   12  C   UNL     1      38.630 -10.089  -0.606  1.00  0.00     0.124 C 
BRANCH  12  13
HETATM   13  C   UNL     1      38.502 -10.153   0.920  1.00  0.00     0.047 C 
BRANCH  13  14
HETATM   14  C   UNL     1      39.799 -10.688   1.525  1.00  0.00     0.236 C 
BRANCH  14  15
HETATM   15  N   UNL     1      39.748 -10.744   3.037  1.00  0.00    -0.068 N 
HETATM   16  H   UNL     1      39.206  -9.942   3.385  1.00  0.00     0.280 HD
HETATM   17  C   UNL     1      38.996 -12.013   3.496  1.00  0.00     0.254 C 
HETATM   18  C   UNL     1      38.964 -12.125   5.035  1.00  0.00     0.150 C 
HETATM   19  N   UNL     1      40.317 -12.024   5.610  1.00  0.00    -0.378 N 
HETATM   20  C   UNL     1      41.028 -10.787   5.233  1.00  0.00     0.150 C 
HETATM   21  C   UNL     1      41.138 -10.680   3.696  1.00  0.00     0.254 C 
BRANCH  19  22
HETATM   22  C   UNL     1      41.094 -13.166   5.825  1.00  0.00     0.031 A 
HETATM   23  C   UNL     1      42.480 -13.129   6.037  1.00  0.00     0.053 A 
HETATM   24  C   UNL     1      43.217 -14.300   6.261  1.00  0.00     0.036 A 
HETATM   25 CL   UNL     1      44.909 -14.186   6.563  1.00  0.00    -0.084 Cl
HETATM   26  C   UNL     1      42.600 -15.543   6.255  1.00  0.00     0.024 A 
HETATM   27  C   UNL     1      41.234 -15.614   6.011  1.00  0.00     0.004 A 
HETATM   28  C   UNL     1      40.499 -14.441   5.796  1.00  0.00     0.029 A 
ENDBRANCH  19  22
ENDBRANCH  14  15
ENDBRANCH  13  14
ENDBRANCH  12  13
ENDBRANCH   9  12
ENDBRANCH   5   8
BRANCH   1  29
HETATM   29  C   UNL     1      39.809 -15.020   2.058  1.00  0.00     0.296 C 
BRANCH  29  30
HETATM   30  C   UNL     1      41.116 -15.644   2.378  1.00  0.00     0.092 A 
HETATM   31  C   UNL     1      42.338 -15.032   2.554  1.00  0.00     0.078 A 
HETATM   32  C   UNL     1      42.830 -13.643   2.508  1.00  0.00     0.079 C 
HETATM   33  O   UNL     1      43.250 -16.002   2.840  1.00  0.00    -0.294 OA
HETATM   34  C   UNL     1      42.540 -17.174   2.814  1.00  0.00     0.180 A 
HETATM   35  N   UNL     1      41.253 -17.010   2.542  1.00  0.00    -0.224 NA
BRANCH  34  36
HETATM   36  C   UNL     1      43.290 -18.391   3.110  1.00  0.00     0.019 A 
HETATM   37  C   UNL     1      43.306 -19.443   2.183  1.00  0.00     0.039 A 
HETATM   38  C   UNL     1      44.009 -20.617   2.460  1.00  0.00     0.035 A 
HETATM   39 CL   UNL     1      44.003 -21.896   1.311  1.00  0.00    -0.084 Cl
HETATM   40  C   UNL     1      44.708 -20.761   3.656  1.00  0.00     0.024 A 
HETATM   41  C   UNL     1      44.703 -19.724   4.585  1.00  0.00     0.003 A 
HETATM   42  C   UNL     1      43.998 -18.547   4.313  1.00  0.00     0.016 A 
ENDBRANCH  34  36
ENDBRANCH  29  30
ENDBRANCH   1  29
TORSDOF 9
ENDMDL
MODEL 4
REMARK VINA RESULT:      -8.5      4.584      8.814
REMARK  9 active torsions:
REMARK  status: ('A' for Active; 'I' for Inactive)
REMARK    1  A    between atoms: C_4  and  C_5 
REMARK    2  A    between atoms: C_13  and  C_14 
REMARK    3  A    between atoms: C_14  and  N_15 
REMARK    4  A    between atoms: C_19  and  C_20 
REMARK       I    between atoms: C_20  and  N_21 
REMARK    5  A    between atoms: N_21  and  C_22 
REMARK    6  A    between atoms: C_22  and  C_23 
REMARK    7  A    between atoms: C_23  and  C_24 
REMARK    8  A    between atoms: C_24  and  N_25 
REMARK    9  A    between atoms: N_29  and  C_30 
ROOT
HETATM    1  N   UNL     1      43.651 -15.063   6.995  1.00  0.00    -0.066 N 
HETATM    2  H   UNL     1      43.009 -14.521   7.592  1.00  0.00     0.280 HD
HETATM    3  C   UNL     1      43.036 -15.102   5.620  1.00  0.00     0.236 C 
HETATM    4  C   UNL     1      41.778 -15.969   5.621  1.00  0.00     0.042 C 
HETATM    5  C   UNL     1      42.060 -17.388   6.118  1.00  0.00     0.081 C 
HETATM    6  C   UNL     1      42.690 -17.327   7.510  1.00  0.00     0.042 C 
HETATM    7  C   UNL     1      43.905 -16.414   7.605  1.00  0.00     0.236 C 
ENDROOT
BRANCH   5   8
HETATM    8  C   UNL     1      42.944 -18.104   5.098  1.00  0.00     0.221 C 
HETATM    9  N   UNL     1      42.364 -18.296   3.866  1.00  0.00    -0.361 N 
HETATM   10  H   UNL     1      41.402 -17.998   3.723  1.00  0.00     0.162 HD
HETATM   11  O   UNL     1      44.120 -18.373   5.329  1.00  0.00    -0.273 OA
BRANCH   9  12
HETATM   12  C   UNL     1      43.145 -18.634   2.689  1.00  0.00     0.124 C 
BRANCH  12  13
HETATM   13  C   UNL     1      42.834 -17.774   1.459  1.00  0.00     0.047 C 
BRANCH  13  14
HETATM   14  C   UNL     1      42.853 -16.295   1.844  1.00  0.00     0.236 C 
BRANCH  14  15
HETATM   15  N   UNL     1      41.615 -15.562   1.374  1.00  0.00    -0.068 N 
HETATM   16  H   UNL     1      41.322 -15.944   0.465  1.00  0.00     0.280 HD
HETATM   17  C   UNL     1      40.446 -15.814   2.351  1.00  0.00     0.254 C 
HETATM   18  C   UNL     1      39.178 -15.044   1.926  1.00  0.00     0.150 C 
HETATM   19  N   UNL     1      39.459 -13.611   1.731  1.00  0.00    -0.378 N 
HETATM   20  C   UNL     1      40.532 -13.348   0.753  1.00  0.00     0.150 C 
HETATM   21  C   UNL     1      41.837 -14.050   1.187  1.00  0.00     0.254 C 
BRANCH  19  22
HETATM   22  C   UNL     1      39.317 -12.701   2.782  1.00  0.00     0.031 A 
HETATM   23  C   UNL     1      40.018 -12.802   3.992  1.00  0.00     0.053 A 
HETATM   24  C   UNL     1      39.853 -11.857   5.015  1.00  0.00     0.036 A 
HETATM   25 CL   UNL     1      40.778 -12.009   6.459  1.00  0.00    -0.084 Cl
HETATM   26  C   UNL     1      38.968 -10.799   4.871  1.00  0.00     0.024 A 
HETATM   27  C   UNL     1      38.232 -10.692   3.698  1.00  0.00     0.004 A 
HETATM   28  C   UNL     1      38.405 -11.633   2.674  1.00  0.00     0.029 A 
ENDBRANCH  19  22
ENDBRANCH  14  15
ENDBRANCH  13  14
ENDBRANCH  12  13
ENDBRANCH   9  12
ENDBRANCH   5   8
BRANCH   1  29
HETATM   29  C   UNL     1      44.949 -14.257   7.015  1.00  0.00     0.296 C 
BRANCH  29  30
HETATM   30  C   UNL     1      44.939 -13.052   7.880  1.00  0.00     0.092 A 
HETATM   31  C   UNL     1      45.984 -12.205   8.181  1.00  0.00     0.078 A 
HETATM   32  C   UNL     1      47.411 -12.131   7.819  1.00  0.00     0.079 C 
HETATM   33  O   UNL     1      45.504 -11.234   9.007  1.00  0.00    -0.294 OA
HETATM   34  C   UNL     1      44.180 -11.541   9.183  1.00  0.00     0.180 A 
HETATM   35  N   UNL     1      43.793 -12.625   8.524  1.00  0.00    -0.224 NA
BRANCH  34  36
HETATM   36  C   UNL     1      43.412 -10.631  10.028  1.00  0.00     0.019 A 
HETATM   37  C   UNL     1      43.809 -10.410  11.354  1.00  0.00     0.039 A 
HETATM   38  C   UNL     1      43.076  -9.552  12.176  1.00  0.00     0.035 A 
HETATM   39 CL   UNL     1      43.578  -9.306  13.802  1.00  0.00    -0.084 Cl
HETATM   40  C   UNL     1      41.944  -8.901  11.694  1.00  0.00     0.024 A 
HETATM   41  C   UNL     1      41.539  -9.109  10.377  1.00  0.00     0.003 A 
HETATM   42  C   UNL     1      42.268  -9.969   9.551  1.00  0.00     0.016 A 
ENDBRANCH  34  36
ENDBRANCH  29  30
ENDBRANCH   1  29
TORSDOF 9
ENDMDL
MODEL 5
REMARK VINA RESULT:      -8.4      4.131      5.360
REMARK  9 active torsions:
REMARK  status: ('A' for Active; 'I' for Inactive)
REMARK    1  A    between atoms: C_4  and  C_5 
REMARK    2  A    between atoms: C_13  and  C_14 
REMARK    3  A    between atoms: C_14  and  N_15 
REMARK    4  A    between atoms: C_19  and  C_20 
REMARK       I    between atoms: C_20  and  N_21 
REMARK    5  A    between atoms: N_21  and  C_22 
REMARK    6  A    between atoms: C_22  and  C_23 
REMARK    7  A    between atoms: C_23  and  C_24 
REMARK    8  A    between atoms: C_24  and  N_25 
REMARK    9  A    between atoms: N_29  and  C_30 
ROOT
HETATM    1  N   UNL     1      41.779 -14.243   2.347  1.00  0.00    -0.066 N 
HETATM    2  H   UNL     1      41.766 -15.044   1.698  1.00  0.00     0.280 HD
HETATM    3  C   UNL     1      40.539 -14.353   3.196  1.00  0.00     0.236 C 
HETATM    4  C   UNL     1      39.292 -14.077   2.359  1.00  0.00     0.042 C 
HETATM    5  C   UNL     1      39.350 -12.709   1.677  1.00  0.00     0.081 C 
HETATM    6  C   UNL     1      40.617 -12.614   0.827  1.00  0.00     0.042 C 
HETATM    7  C   UNL     1      41.897 -12.957   1.576  1.00  0.00     0.236 C 
ENDROOT
BRANCH   5   8
HETATM    8  C   UNL     1      39.269 -11.619   2.745  1.00  0.00     0.221 C 
HETATM    9  N   UNL     1      39.897 -10.441   2.415  1.00  0.00    -0.361 N 
HETATM   10  H   UNL     1      40.394 -10.379   1.530  1.00  0.00     0.162 HD
HETATM   11  O   UNL     1      38.591 -11.751   3.760  1.00  0.00    -0.273 OA
BRANCH   9  12
HETATM   12  C   UNL     1      39.639  -9.202   3.128  1.00  0.00     0.124 C 
BRANCH  12  13
HETATM   13  C   UNL     1      40.836  -8.676   3.929  1.00  0.00     0.047 C 
BRANCH  13  14
HETATM   14  C   UNL     1      41.324  -9.754   4.896  1.00  0.00     0.236 C 
BRANCH  14  15
HETATM   15  N   UNL     1      40.738  -9.593   6.282  1.00  0.00    -0.068 N 
HETATM   16  H   UNL     1      39.750  -9.315   6.199  1.00  0.00     0.280 HD
HETATM   17  C   UNL     1      40.748 -10.948   7.023  1.00  0.00     0.254 C 
HETATM   18  C   UNL     1      40.196 -10.812   8.458  1.00  0.00     0.150 C 
HETATM   19  N   UNL     1      40.893  -9.749   9.203  1.00  0.00    -0.378 N 
HETATM   20  C   UNL     1      40.840  -8.432   8.541  1.00  0.00     0.150 C 
HETATM   21  C   UNL     1      41.449  -8.519   7.124  1.00  0.00     0.254 C 
BRANCH  19  22
HETATM   22  C   UNL     1      42.027 -10.032   9.969  1.00  0.00     0.031 A 
HETATM   23  C   UNL     1      42.201  -9.589  11.288  1.00  0.00     0.053 A 
HETATM   24  C   UNL     1      43.352  -9.908  12.022  1.00  0.00     0.036 A 
HETATM   25 CL   UNL     1      43.484  -9.374  13.654  1.00  0.00    -0.084 Cl
HETATM   26  C   UNL     1      44.373 -10.656  11.456  1.00  0.00     0.024 A 
HETATM   27  C   UNL     1      44.247 -11.078  10.138  1.00  0.00     0.004 A 
HETATM   28  C   UNL     1      43.092 -10.765   9.410  1.00  0.00     0.029 A 
ENDBRANCH  19  22
ENDBRANCH  14  15
ENDBRANCH  13  14
ENDBRANCH  12  13
ENDBRANCH   9  12
ENDBRANCH   5   8
BRANCH   1  29
HETATM   29  C   UNL     1      43.052 -14.448   3.168  1.00  0.00     0.296 C 
BRANCH  29  30
HETATM   30  C   UNL     1      43.272 -15.827   3.669  1.00  0.00     0.092 A 
HETATM   31  C   UNL     1      43.276 -16.274   4.973  1.00  0.00     0.078 A 
HETATM   32  C   UNL     1      43.084 -15.651   6.295  1.00  0.00     0.079 C 
HETATM   33  O   UNL     1      43.514 -17.615   4.950  1.00  0.00    -0.294 OA
HETATM   34  C   UNL     1      43.659 -17.925   3.623  1.00  0.00     0.180 A 
HETATM   35  N   UNL     1      43.520 -16.884   2.814  1.00  0.00    -0.224 NA
BRANCH  34  36
HETATM   36  C   UNL     1      43.909 -19.330   3.312  1.00  0.00     0.019 A 
HETATM   37  C   UNL     1      44.452 -20.174   4.291  1.00  0.00     0.039 A 
HETATM   38  C   UNL     1      44.708 -21.516   4.003  1.00  0.00     0.035 A 
HETATM   39 CL   UNL     1      45.385 -22.527   5.218  1.00  0.00    -0.084 Cl
HETATM   40  C   UNL     1      44.425 -22.038   2.744  1.00  0.00     0.024 A 
HETATM   41  C   UNL     1      43.883 -21.212   1.762  1.00  0.00     0.003 A 
HETATM   42  C   UNL     1      43.627 -19.867   2.045  1.00  0.00     0.016 A 
ENDBRANCH  34  36
ENDBRANCH  29  30
ENDBRANCH   1  29
TORSDOF 9
ENDMDL
MODEL 6
REMARK VINA RESULT:      -8.4      1.647      2.046
REMARK  9 active torsions:
REMARK  status: ('A' for Active; 'I' for Inactive)
REMARK    1  A    between atoms: C_4  and  C_5 
REMARK    2  A    between atoms: C_13  and  C_14 
REMARK    3  A    between atoms: C_14  and  N_15 
REMARK    4  A    between atoms: C_19  and  C_20 
REMARK       I    between atoms: C_20  and  N_21 
REMARK    5  A    between atoms: N_21  and  C_22 
REMARK    6  A    between atoms: C_22  and  C_23 
REMARK    7  A    between atoms: C_23  and  C_24 
REMARK    8  A    between atoms: C_24  and  N_25 
REMARK    9  A    between atoms: N_29  and  C_30 
ROOT
HETATM    1  N   UNL     1      41.856 -14.325  -1.335  1.00  0.00    -0.066 N 
HETATM    2  H   UNL     1      42.808 -14.723  -1.357  1.00  0.00     0.280 HD
HETATM    3  C   UNL     1      41.576 -13.797  -2.719  1.00  0.00     0.236 C 
HETATM    4  C   UNL     1      42.439 -12.569  -3.008  1.00  0.00     0.042 C 
HETATM    5  C   UNL     1      42.237 -11.468  -1.966  1.00  0.00     0.081 C 
HETATM    6  C   UNL     1      42.519 -12.024  -0.570  1.00  0.00     0.042 C 
HETATM    7  C   UNL     1      41.752 -13.298  -0.241  1.00  0.00     0.236 C 
ENDROOT
BRANCH   5   8
HETATM    8  C   UNL     1      40.822 -10.907  -2.107  1.00  0.00     0.221 C 
HETATM    9  N   UNL     1      40.295 -10.377  -0.953  1.00  0.00    -0.361 N 
HETATM   10  H   UNL     1      40.840 -10.423  -0.095  1.00  0.00     0.162 HD
HETATM   11  O   UNL     1      40.258 -10.828  -3.194  1.00  0.00    -0.273 OA
BRANCH   9  12
HETATM   12  C   UNL     1      39.134  -9.504  -0.964  1.00  0.00     0.124 C 
BRANCH  12  13
HETATM   13  C   UNL     1      38.582  -9.172   0.427  1.00  0.00     0.047 C 
BRANCH  13  14
HETATM   14  C   UNL     1      39.737  -8.955   1.404  1.00  0.00     0.236 C 
BRANCH  14  15
HETATM   15  N   UNL     1      39.559  -9.736   2.688  1.00  0.00    -0.068 N 
HETATM   16  H   UNL     1      38.702  -9.416   3.161  1.00  0.00     0.280 HD
HETATM   17  C   UNL     1      39.350 -11.234   2.375  1.00  0.00     0.254 C 
HETATM   18  C   UNL     1      39.209 -12.067   3.666  1.00  0.00     0.150 C 
HETATM   19  N   UNL     1      40.335 -11.829   4.586  1.00  0.00    -0.378 N 
HETATM   20  C   UNL     1      40.511 -10.409   4.947  1.00  0.00     0.150 C 
HETATM   21  C   UNL     1      40.724  -9.555   3.677  1.00  0.00     0.254 C 
BRANCH  19  22
HETATM   22  C   UNL     1      41.485 -12.621   4.536  1.00  0.00     0.031 A 
HETATM   23  C   UNL     1      42.250 -12.945   5.665  1.00  0.00     0.053 A 
HETATM   24  C   UNL     1      43.391 -13.755   5.569  1.00  0.00     0.036 A 
HETATM   25 CL   UNL     1      44.262 -14.157   6.999  1.00  0.00    -0.084 Cl
HETATM   26  C   UNL     1      43.816 -14.243   4.342  1.00  0.00     0.024 A 
HETATM   27  C   UNL     1      43.100 -13.909   3.200  1.00  0.00     0.004 A 
HETATM   28  C   UNL     1      41.956 -13.107   3.301  1.00  0.00     0.029 A 
ENDBRANCH  19  22
ENDBRANCH  14  15
ENDBRANCH  13  14
ENDBRANCH  12  13
ENDBRANCH   9  12
ENDBRANCH   5   8
BRANCH   1  29
HETATM   29  C   UNL     1      40.962 -15.513  -0.988  1.00  0.00     0.296 C 
BRANCH  29  30
HETATM   30  C   UNL     1      41.255 -16.176   0.307  1.00  0.00     0.092 A 
HETATM   31  C   UNL     1      40.564 -16.077   1.496  1.00  0.00     0.078 A 
HETATM   32  C   UNL     1      39.364 -15.354   1.953  1.00  0.00     0.079 C 
HETATM   33  O   UNL     1      41.196 -16.866   2.408  1.00  0.00    -0.294 OA
HETATM   34  C   UNL     1      42.260 -17.405   1.734  1.00  0.00     0.180 A 
HETATM   35  N   UNL     1      42.337 -17.021   0.467  1.00  0.00    -0.224 NA
BRANCH  34  36
HETATM   36  C   UNL     1      43.108 -18.320   2.491  1.00  0.00     0.019 A 
HETATM   37  C   UNL     1      43.469 -19.557   1.935  1.00  0.00     0.039 A 
HETATM   38  C   UNL     1      44.269 -20.447   2.654  1.00  0.00     0.035 A 
HETATM   39 CL   UNL     1      44.687 -21.961   1.954  1.00  0.00    -0.084 Cl
HETATM   40  C   UNL     1      44.725 -20.122   3.928  1.00  0.00     0.024 A 
HETATM   41  C   UNL     1      44.378 -18.896   4.492  1.00  0.00     0.003 A 
HETATM   42  C   UNL     1      43.574 -18.002   3.777  1.00  0.00     0.016 A 
ENDBRANCH  34  36
ENDBRANCH  29  30
ENDBRANCH   1  29
TORSDOF 9
ENDMDL
MODEL 7
REMARK VINA RESULT:      -8.4      5.293      7.334
REMARK  9 active torsions:
REMARK  status: ('A' for Active; 'I' for Inactive)
REMARK    1  A    between atoms: C_4  and  C_5 
REMARK    2  A    between atoms: C_13  and  C_14 
REMARK    3  A    between atoms: C_14  and  N_15 
REMARK    4  A    between atoms: C_19  and  C_20 
REMARK       I    between atoms: C_20  and  N_21 
REMARK    5  A    between atoms: N_21  and  C_22 
REMARK    6  A    between atoms: C_22  and  C_23 
REMARK    7  A    between atoms: C_23  and  C_24 
REMARK    8  A    between atoms: C_24  and  N_25 
REMARK    9  A    between atoms: N_29  and  C_30 
ROOT
HETATM    1  N   UNL     1      41.183 -13.448   4.992  1.00  0.00    -0.066 N 
HETATM    2  H   UNL     1      41.862 -13.687   4.253  1.00  0.00     0.280 HD
HETATM    3  C   UNL     1      39.890 -13.106   4.297  1.00  0.00     0.236 C 
HETATM    4  C   UNL     1      40.024 -11.789   3.534  1.00  0.00     0.042 C 
HETATM    5  C   UNL     1      40.458 -10.640   4.446  1.00  0.00     0.081 C 
HETATM    6  C   UNL     1      41.767 -11.008   5.146  1.00  0.00     0.042 C 
HETATM    7  C   UNL     1      41.734 -12.351   5.862  1.00  0.00     0.236 C 
ENDROOT
BRANCH   5   8
HETATM    8  C   UNL     1      39.328 -10.330   5.426  1.00  0.00     0.221 C 
HETATM    9  N   UNL     1      39.735  -9.800   6.628  1.00  0.00    -0.361 N 
HETATM   10  H   UNL     1      40.730  -9.685   6.803  1.00  0.00     0.162 HD
HETATM   11  O   UNL     1      38.146 -10.435   5.111  1.00  0.00    -0.273 OA
BRANCH   9  12
HETATM   12  C   UNL     1      38.813  -9.131   7.529  1.00  0.00     0.124 C 
BRANCH  12  13
HETATM   13  C   UNL     1      38.889  -9.616   8.981  1.00  0.00     0.047 C 
BRANCH  13  14
HETATM   14  C   UNL     1      38.639  -8.445   9.930  1.00  0.00     0.236 C 
BRANCH  14  15
HETATM   15  N   UNL     1      39.682  -8.357  11.023  1.00  0.00    -0.068 N 
HETATM   16  H   UNL     1      39.429  -7.597  11.670  1.00  0.00     0.280 HD
HETATM   17  C   UNL     1      39.688  -9.656  11.857  1.00  0.00     0.254 C 
HETATM   18  C   UNL     1      40.772  -9.619  12.955  1.00  0.00     0.150 C 
HETATM   19  N   UNL     1      42.096  -9.297  12.393  1.00  0.00    -0.378 N 
HETATM   20  C   UNL     1      42.125  -8.025  11.645  1.00  0.00     0.150 C 
HETATM   21  C   UNL     1      41.096  -8.057  10.493  1.00  0.00     0.254 C 
BRANCH  19  22
HETATM   22  C   UNL     1      42.962 -10.307  11.967  1.00  0.00     0.031 A 
HETATM   23  C   UNL     1      43.915 -10.132  10.953  1.00  0.00     0.053 A 
HETATM   24  C   UNL     1      44.772 -11.172  10.567  1.00  0.00     0.036 A 
HETATM   25 CL   UNL     1      45.954 -10.880   9.349  1.00  0.00    -0.084 Cl
HETATM   26  C   UNL     1      44.688 -12.423  11.161  1.00  0.00     0.024 A 
HETATM   27  C   UNL     1      43.729 -12.638  12.142  1.00  0.00     0.004 A 
HETATM   28  C   UNL     1      42.879 -11.594  12.532  1.00  0.00     0.029 A 
ENDBRANCH  19  22
ENDBRANCH  14  15
ENDBRANCH  13  14
ENDBRANCH  12  13
ENDBRANCH   9  12
ENDBRANCH   5   8
BRANCH   1  29
HETATM   29  C   UNL     1      41.064 -14.726   5.819  1.00  0.00     0.296 C 
BRANCH  29  30
HETATM   30  C   UNL     1      42.126 -15.736   5.590  1.00  0.00     0.092 A 
HETATM   31  C   UNL     1      43.367 -15.825   6.184  1.00  0.00     0.078 A 
HETATM   32  C   UNL     1      44.102 -15.045   7.196  1.00  0.00     0.079 C 
HETATM   33  O   UNL     1      43.996 -16.917   5.667  1.00  0.00    -0.294 OA
HETATM   34  C   UNL     1      43.109 -17.442   4.765  1.00  0.00     0.180 A 
HETATM   35  N   UNL     1      41.970 -16.768   4.684  1.00  0.00    -0.224 NA
BRANCH  34  36
HETATM   36  C   UNL     1      43.536 -18.652   4.068  1.00  0.00     0.019 A 
HETATM   37  C   UNL     1      44.146 -19.690   4.786  1.00  0.00     0.039 A 
HETATM   38  C   UNL     1      44.571 -20.847   4.131  1.00  0.00     0.035 A 
HETATM   39 CL   UNL     1      45.326 -22.101   5.033  1.00  0.00    -0.084 Cl
HETATM   40  C   UNL     1      44.392 -20.992   2.757  1.00  0.00     0.024 A 
HETATM   41  C   UNL     1      43.785 -19.970   2.032  1.00  0.00     0.003 A 
HETATM   42  C   UNL     1      43.360 -18.808   2.683  1.00  0.00     0.016 A 
ENDBRANCH  34  36
ENDBRANCH  29  30
ENDBRANCH   1  29
TORSDOF 9
ENDMDL
MODEL 8
REMARK VINA RESULT:      -8.3      2.587      5.256
REMARK  9 active torsions:
REMARK  status: ('A' for Active; 'I' for Inactive)
REMARK    1  A    between atoms: C_4  and  C_5 
REMARK    2  A    between atoms: C_13  and  C_14 
REMARK    3  A    between atoms: C_14  and  N_15 
REMARK    4  A    between atoms: C_19  and  C_20 
REMARK       I    between atoms: C_20  and  N_21 
REMARK    5  A    between atoms: N_21  and  C_22 
REMARK    6  A    between atoms: C_22  and  C_23 
REMARK    7  A    between atoms: C_23  and  C_24 
REMARK    8  A    between atoms: C_24  and  N_25 
REMARK    9  A    between atoms: N_29  and  C_30 
ROOT
HETATM    1  N   UNL     1      41.682 -14.928   2.763  1.00  0.00    -0.066 N 
HETATM    2  H   UNL     1      42.139 -15.766   2.374  1.00  0.00     0.280 HD
HETATM    3  C   UNL     1      40.196 -15.142   2.627  1.00  0.00     0.236 C 
HETATM    4  C   UNL     1      39.780 -15.091   1.158  1.00  0.00     0.042 C 
HETATM    5  C   UNL     1      40.192 -13.778   0.490  1.00  0.00     0.081 C 
HETATM    6  C   UNL     1      41.700 -13.576   0.644  1.00  0.00     0.042 C 
HETATM    7  C   UNL     1      42.201 -13.693   2.077  1.00  0.00     0.236 C 
ENDROOT
BRANCH   5   8
HETATM    8  C   UNL     1      39.375 -12.637   1.095  1.00  0.00     0.221 C 
HETATM    9  N   UNL     1      40.069 -11.463   1.274  1.00  0.00    -0.361 N 
HETATM   10  H   UNL     1      41.058 -11.435   1.039  1.00  0.00     0.162 HD
HETATM   11  O   UNL     1      38.166 -12.732   1.288  1.00  0.00    -0.273 OA
BRANCH   9  12
HETATM   12  C   UNL     1      39.396 -10.196   1.502  1.00  0.00     0.124 C 
BRANCH  12  13
HETATM   13  C   UNL     1      39.393  -9.257   0.291  1.00  0.00     0.047 C 
BRANCH  13  14
HETATM   14  C   UNL     1      40.825  -9.034  -0.194  1.00  0.00     0.236 C 
BRANCH  14  15
HETATM   15  N   UNL     1      41.043  -9.549  -1.601  1.00  0.00    -0.068 N 
HETATM   16  H   UNL     1      41.373  -8.776  -2.195  1.00  0.00     0.280 HD
HETATM   17  C   UNL     1      42.161 -10.614  -1.609  1.00  0.00     0.254 C 
HETATM   18  C   UNL     1      42.380 -11.194  -3.023  1.00  0.00     0.150 C 
HETATM   19  N   UNL     1      41.118 -11.687  -3.603  1.00  0.00    -0.378 N 
HETATM   20  C   UNL     1      40.056 -10.664  -3.662  1.00  0.00     0.150 C 
HETATM   21  C   UNL     1      39.765 -10.112  -2.249  1.00  0.00     0.254 C 
BRANCH  19  22
HETATM   22  C   UNL     1      40.716 -13.014  -3.428  1.00  0.00     0.031 A 
HETATM   23  C   UNL     1      39.377 -13.427  -3.465  1.00  0.00     0.053 A 
HETATM   24  C   UNL     1      39.021 -14.773  -3.297  1.00  0.00     0.036 A 
HETATM   25 CL   UNL     1      37.363 -15.225  -3.400  1.00  0.00    -0.084 Cl
HETATM   26  C   UNL     1      39.987 -15.741  -3.062  1.00  0.00     0.024 A 
HETATM   27  C   UNL     1      41.319 -15.357  -2.983  1.00  0.00     0.004 A 
HETATM   28  C   UNL     1      41.672 -14.012  -3.160  1.00  0.00     0.029 A 
ENDBRANCH  19  22
ENDBRANCH  14  15
ENDBRANCH  13  14
ENDBRANCH  12  13
ENDBRANCH   9  12
ENDBRANCH   5   8
BRANCH   1  29
HETATM   29  C   UNL     1      42.123 -14.906   4.225  1.00  0.00     0.296 C 
BRANCH  29  30
HETATM   30  C   UNL     1      42.896 -16.088   4.676  1.00  0.00     0.092 A 
HETATM   31  C   UNL     1      43.698 -16.214   5.790  1.00  0.00     0.078 A 
HETATM   32  C   UNL     1      44.096 -15.328   6.900  1.00  0.00     0.079 C 
HETATM   33  O   UNL     1      44.198 -17.480   5.800  1.00  0.00    -0.294 OA
HETATM   34  C   UNL     1      43.685 -18.072   4.676  1.00  0.00     0.180 A 
HETATM   35  N   UNL     1      42.895 -17.276   3.969  1.00  0.00    -0.224 NA
BRANCH  34  36
HETATM   36  C   UNL     1      44.057 -19.466   4.452  1.00  0.00     0.019 A 
HETATM   37  C   UNL     1      44.008 -20.000   3.156  1.00  0.00     0.039 A 
HETATM   38  C   UNL     1      44.349 -21.335   2.930  1.00  0.00     0.035 A 
HETATM   39 CL   UNL     1      44.270 -21.969   1.334  1.00  0.00    -0.084 Cl
HETATM   40  C   UNL     1      44.745 -22.155   3.983  1.00  0.00     0.024 A 
HETATM   41  C   UNL     1      44.801 -21.637   5.275  1.00  0.00     0.003 A 
HETATM   42  C   UNL     1      44.458 -20.302   5.507  1.00  0.00     0.016 A 
ENDBRANCH  34  36
ENDBRANCH  29  30
ENDBRANCH   1  29
TORSDOF 9
ENDMDL
MODEL 9
REMARK VINA RESULT:      -8.3      4.687      6.917
REMARK  9 active torsions:
REMARK  status: ('A' for Active; 'I' for Inactive)
REMARK    1  A    between atoms: C_4  and  C_5 
REMARK    2  A    between atoms: C_13  and  C_14 
REMARK    3  A    between atoms: C_14  and  N_15 
REMARK    4  A    between atoms: C_19  and  C_20 
REMARK       I    between atoms: C_20  and  N_21 
REMARK    5  A    between atoms: N_21  and  C_22 
REMARK    6  A    between atoms: C_22  and  C_23 
REMARK    7  A    between atoms: C_23  and  C_24 
REMARK    8  A    between atoms: C_24  and  N_25 
REMARK    9  A    between atoms: N_29  and  C_30 
ROOT
HETATM    1  N   UNL     1      40.874 -13.311   4.196  1.00  0.00    -0.066 N 
HETATM    2  H   UNL     1      41.619 -13.351   3.485  1.00  0.00     0.280 HD
HETATM    3  C   UNL     1      39.858 -12.312   3.704  1.00  0.00     0.236 C 
HETATM    4  C   UNL     1      40.433 -10.898   3.751  1.00  0.00     0.042 C 
HETATM    5  C   UNL     1      40.915 -10.520   5.152  1.00  0.00     0.081 C 
HETATM    6  C   UNL     1      41.938 -11.548   5.636  1.00  0.00     0.042 C 
HETATM    7  C   UNL     1      41.464 -12.991   5.543  1.00  0.00     0.236 C 
ENDROOT
BRANCH   5   8
HETATM    8  C   UNL     1      39.705 -10.406   6.078  1.00  0.00     0.221 C 
HETATM    9  N   UNL     1      40.008 -10.337   7.418  1.00  0.00    -0.361 N 
HETATM   10  H   UNL     1      40.981 -10.403   7.707  1.00  0.00     0.162 HD
HETATM   11  O   UNL     1      38.565 -10.264   5.646  1.00  0.00    -0.273 OA
BRANCH   9  12
HETATM   12  C   UNL     1      39.044  -9.885   8.406  1.00  0.00     0.124 C 
BRANCH  12  13
HETATM   13  C   UNL     1      39.215 -10.521   9.790  1.00  0.00     0.047 C 
BRANCH  13  14
HETATM   14  C   UNL     1      39.555  -9.442  10.817  1.00  0.00     0.236 C 
BRANCH  14  15
HETATM   15  N   UNL     1      40.841  -9.736  11.557  1.00  0.00    -0.068 N 
HETATM   16  H   UNL     1      40.723  -9.487  12.549  1.00  0.00     0.280 HD
HETATM   17  C   UNL     1      41.141 -11.251  11.520  1.00  0.00     0.254 C 
HETATM   18  C   UNL     1      42.471 -11.582  12.230  1.00  0.00     0.150 C 
HETATM   19  N   UNL     1      43.579 -10.769  11.701  1.00  0.00    -0.378 N 
HETATM   20  C   UNL     1      43.338  -9.315  11.786  1.00  0.00     0.150 C 
HETATM   21  C   UNL     1      42.047  -8.941  11.025  1.00  0.00     0.254 C 
BRANCH  19  22
HETATM   22  C   UNL     1      44.361 -11.224  10.635  1.00  0.00     0.031 A 
HETATM   23  C   UNL     1      44.012 -12.321   9.834  1.00  0.00     0.053 A 
HETATM   24  C   UNL     1      44.821 -12.733   8.766  1.00  0.00     0.036 A 
HETATM   25 CL   UNL     1      44.315 -14.058   7.789  1.00  0.00    -0.084 Cl
HETATM   26  C   UNL     1      46.013 -12.082   8.482  1.00  0.00     0.024 A 
HETATM   27  C   UNL     1      46.403 -11.015   9.281  1.00  0.00     0.004 A 
HETATM   28  C   UNL     1      45.588 -10.599  10.342  1.00  0.00     0.029 A 
ENDBRANCH  19  22
ENDBRANCH  14  15
ENDBRANCH  13  14
ENDBRANCH  12  13
ENDBRANCH   9  12
ENDBRANCH   5   8
BRANCH   1  29
HETATM   29  C   UNL     1      40.309 -14.730   4.226  1.00  0.00     0.296 C 
BRANCH  29  30
HETATM   30  C   UNL     1      41.144 -15.763   3.565  1.00  0.00     0.092 A 
HETATM   31  C   UNL     1      41.429 -15.906   2.225  1.00  0.00     0.078 A 
HETATM   32  C   UNL     1      41.072 -15.177   0.994  1.00  0.00     0.079 C 
HETATM   33  O   UNL     1      42.239 -16.992   2.087  1.00  0.00    -0.294 OA
HETATM   34  C   UNL     1      42.403 -17.475   3.359  1.00  0.00     0.180 A 
HETATM   35  N   UNL     1      41.765 -16.768   4.283  1.00  0.00    -0.224 NA
BRANCH  34  36
HETATM   36  C   UNL     1      43.259 -18.649   3.500  1.00  0.00     0.019 A 
HETATM   37  C   UNL     1      43.291 -19.614   2.483  1.00  0.00     0.039 A 
HETATM   38  C   UNL     1      44.095 -20.747   2.610  1.00  0.00     0.035 A 
HETATM   39 CL   UNL     1      44.107 -21.921   1.353  1.00  0.00    -0.084 Cl
HETATM   40  C   UNL     1      44.880 -20.937   3.744  1.00  0.00     0.024 A 
HETATM   41  C   UNL     1      44.861 -19.986   4.761  1.00  0.00     0.003 A 
HETATM   42  C   UNL     1      44.055 -18.850   4.640  1.00  0.00     0.016 A 
ENDBRANCH  34  36
ENDBRANCH  29  30
ENDBRANCH   1  29
TORSDOF 9
ENDMDL
MODEL 10
REMARK VINA RESULT:      -8.2      2.639      5.955
REMARK  9 active torsions:
REMARK  status: ('A' for Active; 'I' for Inactive)
REMARK    1  A    between atoms: C_4  and  C_5 
REMARK    2  A    between atoms: C_13  and  C_14 
REMARK    3  A    between atoms: C_14  and  N_15 
REMARK    4  A    between atoms: C_19  and  C_20 
REMARK       I    between atoms: C_20  and  N_21 
REMARK    5  A    between atoms: N_21  and  C_22 
REMARK    6  A    between atoms: C_22  and  C_23 
REMARK    7  A    between atoms: C_23  and  C_24 
REMARK    8  A    between atoms: C_24  and  N_25 
REMARK    9  A    between atoms: N_29  and  C_30 
ROOT
HETATM    1  N   UNL     1      41.668 -13.845   4.993  1.00  0.00    -0.066 N 
HETATM    2  H   UNL     1      42.123 -14.247   5.827  1.00  0.00     0.280 HD
HETATM    3  C   UNL     1      42.004 -12.376   4.982  1.00  0.00     0.236 C 
HETATM    4  C   UNL     1      41.290 -11.655   6.124  1.00  0.00     0.042 C 
HETATM    5  C   UNL     1      39.774 -11.855   6.070  1.00  0.00     0.081 C 
HETATM    6  C   UNL     1      39.455 -13.350   6.075  1.00  0.00     0.042 C 
HETATM    7  C   UNL     1      40.195 -14.149   5.012  1.00  0.00     0.236 C 
ENDROOT
BRANCH   5   8
HETATM    8  C   UNL     1      39.223 -11.135   4.841  1.00  0.00     0.221 C 
HETATM    9  N   UNL     1      39.688  -9.852   4.667  1.00  0.00    -0.361 N 
HETATM   10  H   UNL     1      40.318  -9.458   5.362  1.00  0.00     0.162 HD
HETATM   11  O   UNL     1      38.518 -11.705   4.013  1.00  0.00    -0.273 OA
BRANCH   9  12
HETATM   12  C   UNL     1      39.558  -9.148   3.403  1.00  0.00     0.124 C 
BRANCH  12  13
HETATM   13  C   UNL     1      40.779  -9.271   2.484  1.00  0.00     0.047 C 
BRANCH  13  14
HETATM   14  C   UNL     1      40.373  -9.941   1.173  1.00  0.00     0.236 C 
BRANCH  14  15
HETATM   15  N   UNL     1      40.225 -11.441   1.314  1.00  0.00    -0.068 N 
HETATM   16  H   UNL     1      40.251 -11.689   2.313  1.00  0.00     0.280 HD
HETATM   17  C   UNL     1      38.844 -11.890   0.789  1.00  0.00     0.254 C 
HETATM   18  C   UNL     1      38.675 -13.421   0.878  1.00  0.00     0.150 C 
HETATM   19  N   UNL     1      39.790 -14.124   0.221  1.00  0.00    -0.378 N 
HETATM   20  C   UNL     1      41.116 -13.755   0.753  1.00  0.00     0.150 C 
HETATM   21  C   UNL     1      41.344 -12.233   0.615  1.00  0.00     0.254 C 
BRANCH  19  22
HETATM   22  C   UNL     1      39.722 -14.478  -1.129  1.00  0.00     0.031 A 
HETATM   23  C   UNL     1      38.575 -14.303  -1.918  1.00  0.00     0.053 A 
HETATM   24  C   UNL     1      38.557 -14.661  -3.273  1.00  0.00     0.036 A 
HETATM   25 CL   UNL     1      37.134 -14.378  -4.200  1.00  0.00    -0.084 Cl
HETATM   26  C   UNL     1      39.671 -15.228  -3.875  1.00  0.00     0.024 A 
HETATM   27  C   UNL     1      40.810 -15.448  -3.111  1.00  0.00     0.004 A 
HETATM   28  C   UNL     1      40.828 -15.080  -1.759  1.00  0.00     0.029 A 
ENDBRANCH  19  22
ENDBRANCH  14  15
ENDBRANCH  13  14
ENDBRANCH  12  13
ENDBRANCH   9  12
ENDBRANCH   5   8
BRANCH   1  29
HETATM   29  C   UNL     1      42.314 -14.585   3.823  1.00  0.00     0.296 C 
BRANCH  29  30
HETATM   30  C   UNL     1      42.931 -15.892   4.157  1.00  0.00     0.092 A 
HETATM   31  C   UNL     1      43.597 -16.256   5.308  1.00  0.00     0.078 A 
HETATM   32  C   UNL     1      43.948 -15.585   6.572  1.00  0.00     0.079 C 
HETATM   33  O   UNL     1      43.983 -17.555   5.169  1.00  0.00    -0.294 OA
HETATM   34  C   UNL     1      43.544 -17.923   3.924  1.00  0.00     0.180 A 
HETATM   35  N   UNL     1      42.904 -16.958   3.278  1.00  0.00    -0.224 NA
BRANCH  34  36
HETATM   36  C   UNL     1      43.817 -19.300   3.524  1.00  0.00     0.019 A 
HETATM   37  C   UNL     1      44.412 -20.186   4.434  1.00  0.00     0.039 A 
HETATM   38  C   UNL     1      44.691 -21.501   4.060  1.00  0.00     0.035 A 
HETATM   39 CL   UNL     1      45.431 -22.563   5.192  1.00  0.00    -0.084 Cl
HETATM   40  C   UNL     1      44.380 -21.957   2.782  1.00  0.00     0.024 A 
HETATM   41  C   UNL     1      43.787 -21.090   1.868  1.00  0.00     0.003 A 
HETATM   42  C   UNL     1      43.508 -19.770   2.236  1.00  0.00     0.016 A 
ENDBRANCH  34  36
ENDBRANCH  29  30
ENDBRANCH   1  29
TORSDOF 9
ENDMDL
