MODEL 1
REMARK VINA RESULT:      -8.8      0.000      0.000
REMARK  5 active torsions:
REMARK  status: ('A' for Active; 'I' for Inactive)
REMARK    1  A    between atoms: C_7  and  C_8 
REMARK    2  A    between atoms: C_16  and  C_17 
REMARK    3  A    between atoms: C_20  and  O_21 
REMARK    4  A    between atoms: C_24  and  C_25 
REMARK       I    between atoms: C_25  and  N_26 
REMARK    5  A    between atoms: N_26  and  C_27 
ROOT
HETATM    1  C   UNL     1      39.226 -12.843   3.862  1.00  0.00     0.070 C 
HETATM    2  C   UNL     1      39.932 -13.804   2.938  1.00  0.00     0.037 C 
HETATM    3  N   UNL     1      41.066 -14.421   3.468  1.00  0.00    -0.192 N 
HETATM    4  C   UNL     1      41.587 -15.546   2.933  1.00  0.00     0.726 A 
HETATM    5  N   UNL     1      41.188 -15.947   1.691  1.00  0.00    -0.083 N 
HETATM    6  N   UNL     1      41.676 -17.164   1.383  1.00  0.00    -0.135 NA
HETATM    7  C   UNL     1      42.415 -17.436   2.474  1.00  0.00     0.199 A 
HETATM    8  N   UNL     1      42.398 -16.439   3.437  1.00  0.00    -0.041 NA
HETATM    9  C   UNL     1      40.206 -15.223   0.876  1.00  0.00     0.202 C 
HETATM   10  C   UNL     1      39.494 -14.156   1.703  1.00  0.00     0.062 C 
HETATM   11  H   UNL     1      41.278 -14.233   4.445  1.00  0.00     0.184 HD
ENDROOT
BRANCH  10  12
HETATM   12  C   UNL     1      38.229 -13.681   1.083  1.00  0.00     0.256 C 
HETATM   13  N   UNL     1      38.274 -12.378   0.641  1.00  0.00    -0.323 N 
HETATM   14  H   UNL     1      39.155 -11.888   0.734  1.00  0.00     0.169 HD
HETATM   15  O   UNL     1      37.299 -14.471   0.982  1.00  0.00    -0.267 OA
BRANCH  13  16
HETATM   16  C   UNL     1      37.211 -11.632   0.088  1.00  0.00     0.035 A 
HETATM   17  C   UNL     1      37.059 -11.385  -1.278  1.00  0.00     0.029 A 
HETATM   18  C   UNL     1      35.964 -10.655  -1.752  1.00  0.00     0.002 A 
HETATM   19  C   UNL     1      35.007 -10.171  -0.864  1.00  0.00     0.000 A 
HETATM   20  C   UNL     1      35.148 -10.411   0.500  1.00  0.00     0.002 A 
HETATM   21  C   UNL     1      36.247 -11.134   0.974  1.00  0.00     0.029 A 
ENDBRANCH  13  16
ENDBRANCH  10  12
BRANCH   9  22
HETATM   22  C   UNL     1      40.870 -14.627  -0.363  1.00  0.00    -0.028 A 
HETATM   23  C   UNL     1      40.645 -15.216  -1.620  1.00  0.00     0.012 A 
HETATM   24  C   UNL     1      41.221 -14.679  -2.774  1.00  0.00     0.037 A 
HETATM   25  C   UNL     1      42.020 -13.545  -2.677  1.00  0.00     0.065 A 
HETATM   26  C   UNL     1      42.248 -12.940  -1.449  1.00  0.00     0.037 A 
HETATM   27  C   UNL     1      41.675 -13.475  -0.295  1.00  0.00     0.012 A 
BRANCH  25  28
HETATM   28  O   UNL     1      42.603 -12.990  -3.777  1.00  0.00    -0.361 OA
HETATM   29  H   UNL     1      41.950 -12.426  -4.223  1.00  0.00     0.217 HD
ENDBRANCH  25  28
ENDBRANCH   9  22
BRANCH   7  30
HETATM   30  C   UNL     1      43.115 -18.702   2.682  1.00  0.00     0.014 A 
HETATM   31  C   UNL     1      43.040 -19.731   1.730  1.00  0.00     0.017 A 
HETATM   32  C   UNL     1      43.676 -20.957   1.952  1.00  0.00     0.025 A 
HETATM   33  C   UNL     1      44.394 -21.160   3.128  1.00  0.00     0.034 A 
HETATM   34 CL   UNL     1      45.167 -22.671   3.408  1.00  0.00    -0.084 Cl
HETATM   35  C   UNL     1      44.486 -20.148   4.081  1.00  0.00     0.025 A 
HETATM   36  C   UNL     1      43.849 -18.923   3.858  1.00  0.00     0.017 A 
ENDBRANCH   7  30
TORSDOF 5
ENDMDL
MODEL 2
REMARK VINA RESULT:      -8.5      2.859      5.051
REMARK  5 active torsions:
REMARK  status: ('A' for Active; 'I' for Inactive)
REMARK    1  A    between atoms: C_7  and  C_8 
REMARK    2  A    between atoms: C_16  and  C_17 
REMARK    3  A    between atoms: C_20  and  O_21 
REMARK    4  A    between atoms: C_24  and  C_25 
REMARK       I    between atoms: C_25  and  N_26 
REMARK    5  A    between atoms: N_26  and  C_27 
ROOT
HETATM    1  C   UNL     1      39.524 -14.262  -0.983  1.00  0.00     0.070 C 
HETATM    2  C   UNL     1      40.268 -14.556   0.295  1.00  0.00     0.037 C 
HETATM    3  N   UNL     1      40.222 -15.883   0.726  1.00  0.00    -0.192 N 
HETATM    4  C   UNL     1      41.107 -16.380   1.614  1.00  0.00     0.726 A 
HETATM    5  N   UNL     1      41.893 -15.525   2.332  1.00  0.00    -0.083 N 
HETATM    6  N   UNL     1      42.825 -16.187   3.043  1.00  0.00    -0.135 NA
HETATM    7  C   UNL     1      42.522 -17.465   2.750  1.00  0.00     0.199 A 
HETATM    8  N   UNL     1      41.445 -17.613   1.890  1.00  0.00    -0.041 NA
HETATM    9  C   UNL     1      41.842 -14.065   2.198  1.00  0.00     0.202 C 
HETATM   10  C   UNL     1      41.026 -13.658   0.975  1.00  0.00     0.062 C 
HETATM   11  H   UNL     1      39.759 -16.549   0.112  1.00  0.00     0.184 HD
ENDROOT
BRANCH  10  12
HETATM   12  C   UNL     1      41.274 -12.256   0.544  1.00  0.00     0.256 C 
HETATM   13  N   UNL     1      42.089 -12.143  -0.559  1.00  0.00    -0.323 N 
HETATM   14  H   UNL     1      42.402 -13.003  -0.994  1.00  0.00     0.169 HD
HETATM   15  O   UNL     1      40.719 -11.353   1.158  1.00  0.00    -0.267 OA
BRANCH  13  16
HETATM   16  C   UNL     1      42.563 -10.949  -1.145  1.00  0.00     0.035 A 
HETATM   17  C   UNL     1      43.535 -10.130  -0.567  1.00  0.00     0.029 A 
HETATM   18  C   UNL     1      43.971  -8.973  -1.221  1.00  0.00     0.002 A 
HETATM   19  C   UNL     1      43.441  -8.627  -2.461  1.00  0.00     0.000 A 
HETATM   20  C   UNL     1      42.471  -9.436  -3.046  1.00  0.00     0.002 A 
HETATM   21  C   UNL     1      42.031 -10.588  -2.389  1.00  0.00     0.029 A 
ENDBRANCH  13  16
ENDBRANCH  10  12
BRANCH   9  22
HETATM   22  C   UNL     1      41.301 -13.426   3.475  1.00  0.00    -0.028 A 
HETATM   23  C   UNL     1      39.985 -13.704   3.885  1.00  0.00     0.012 A 
HETATM   24  C   UNL     1      39.472 -13.152   5.062  1.00  0.00     0.037 A 
HETATM   25  C   UNL     1      40.274 -12.323   5.837  1.00  0.00     0.065 A 
HETATM   26  C   UNL     1      41.579 -12.042   5.458  1.00  0.00     0.037 A 
HETATM   27  C   UNL     1      42.095 -12.592   4.284  1.00  0.00     0.012 A 
BRANCH  25  28
HETATM   28  O   UNL     1      39.812 -11.762   6.990  1.00  0.00    -0.361 OA
HETATM   29  H   UNL     1      39.310 -10.961   6.765  1.00  0.00     0.217 HD
ENDBRANCH  25  28
ENDBRANCH   9  22
BRANCH   7  30
HETATM   30  C   UNL     1      43.298 -18.610   3.224  1.00  0.00     0.014 A 
HETATM   31  C   UNL     1      43.640 -19.657   2.354  1.00  0.00     0.017 A 
HETATM   32  C   UNL     1      44.346 -20.771   2.820  1.00  0.00     0.025 A 
HETATM   33  C   UNL     1      44.717 -20.842   4.161  1.00  0.00     0.034 A 
HETATM   34 CL   UNL     1      45.575 -22.217   4.739  1.00  0.00    -0.084 Cl
HETATM   35  C   UNL     1      44.392 -19.809   5.038  1.00  0.00     0.025 A 
HETATM   36  C   UNL     1      43.686 -18.697   4.569  1.00  0.00     0.017 A 
ENDBRANCH   7  30
TORSDOF 5
ENDMDL
MODEL 3
REMARK VINA RESULT:      -8.4      2.532      4.481
REMARK  5 active torsions:
REMARK  status: ('A' for Active; 'I' for Inactive)
REMARK    1  A    between atoms: C_7  and  C_8 
REMARK    2  A    between atoms: C_16  and  C_17 
REMARK    3  A    between atoms: C_20  and  O_21 
REMARK    4  A    between atoms: C_24  and  C_25 
REMARK       I    between atoms: C_25  and  N_26 
REMARK    5  A    between atoms: N_26  and  C_27 
ROOT
HETATM    1  C   UNL     1      41.048 -14.270  -2.779  1.00  0.00     0.070 C 
HETATM    2  C   UNL     1      41.282 -14.477  -1.303  1.00  0.00     0.037 C 
HETATM    3  N   UNL     1      41.169 -15.794  -0.856  1.00  0.00    -0.192 N 
HETATM    4  C   UNL     1      41.692 -16.201   0.319  1.00  0.00     0.726 A 
HETATM    5  N   UNL     1      42.096 -15.271   1.234  1.00  0.00    -0.083 N 
HETATM    6  N   UNL     1      42.740 -15.841   2.270  1.00  0.00    -0.135 NA
HETATM    7  C   UNL     1      42.654 -17.145   1.948  1.00  0.00     0.199 A 
HETATM    8  N   UNL     1      41.987 -17.396   0.760  1.00  0.00    -0.041 NA
HETATM    9  C   UNL     1      42.000 -13.822   1.020  1.00  0.00     0.202 C 
HETATM   10  C   UNL     1      41.671 -13.508  -0.436  1.00  0.00     0.062 C 
HETATM   11  H   UNL     1      41.014 -16.508  -1.565  1.00  0.00     0.184 HD
ENDROOT
BRANCH  10  12
HETATM   12  C   UNL     1      41.965 -12.099  -0.812  1.00  0.00     0.256 C 
HETATM   13  N   UNL     1      40.844 -11.327  -1.018  1.00  0.00    -0.323 N 
HETATM   14  H   UNL     1      39.945 -11.764  -0.855  1.00  0.00     0.169 HD
HETATM   15  O   UNL     1      43.135 -11.744  -0.866  1.00  0.00    -0.267 OA
BRANCH  13  16
HETATM   16  C   UNL     1      40.806  -9.987  -1.459  1.00  0.00     0.035 A 
HETATM   17  C   UNL     1      40.890  -9.605  -2.800  1.00  0.00     0.029 A 
HETATM   18  C   UNL     1      40.823  -8.255  -3.161  1.00  0.00     0.002 A 
HETATM   19  C   UNL     1      40.664  -7.276  -2.185  1.00  0.00     0.000 A 
HETATM   20  C   UNL     1      40.580  -7.645  -0.846  1.00  0.00     0.002 A 
HETATM   21  C   UNL     1      40.655  -8.993  -0.484  1.00  0.00     0.029 A 
ENDBRANCH  13  16
ENDBRANCH  10  12
BRANCH   9  22
HETATM   22  C   UNL     1      40.981 -13.204   1.975  1.00  0.00    -0.028 A 
HETATM   23  C   UNL     1      41.429 -12.518   3.118  1.00  0.00     0.012 A 
HETATM   24  C   UNL     1      40.520 -11.924   3.997  1.00  0.00     0.037 A 
HETATM   25  C   UNL     1      39.158 -12.008   3.733  1.00  0.00     0.065 A 
HETATM   26  C   UNL     1      38.691 -12.671   2.607  1.00  0.00     0.037 A 
HETATM   27  C   UNL     1      39.597 -13.266   1.727  1.00  0.00     0.012 A 
BRANCH  25  28
HETATM   28  O   UNL     1      38.236 -11.444   4.566  1.00  0.00    -0.361 OA
HETATM   29  H   UNL     1      37.440 -11.235   4.050  1.00  0.00     0.217 HD
ENDBRANCH  25  28
ENDBRANCH   9  22
BRANCH   7  30
HETATM   30  C   UNL     1      43.275 -18.213   2.729  1.00  0.00     0.014 A 
HETATM   31  C   UNL     1      43.747 -19.380   2.107  1.00  0.00     0.017 A 
HETATM   32  C   UNL     1      44.301 -20.417   2.862  1.00  0.00     0.025 A 
HETATM   33  C   UNL     1      44.388 -20.294   4.247  1.00  0.00     0.034 A 
HETATM   34 CL   UNL     1      45.059 -21.576   5.179  1.00  0.00    -0.084 Cl
HETATM   35  C   UNL     1      43.931 -19.142   4.882  1.00  0.00     0.025 A 
HETATM   36  C   UNL     1      43.377 -18.105   4.125  1.00  0.00     0.017 A 
ENDBRANCH   7  30
TORSDOF 5
ENDMDL
MODEL 4
REMARK VINA RESULT:      -8.4      4.087      8.813
REMARK  5 active torsions:
REMARK  status: ('A' for Active; 'I' for Inactive)
REMARK    1  A    between atoms: C_7  and  C_8 
REMARK    2  A    between atoms: C_16  and  C_17 
REMARK    3  A    between atoms: C_20  and  O_21 
REMARK    4  A    between atoms: C_24  and  C_25 
REMARK       I    between atoms: C_25  and  N_26 
REMARK    5  A    between atoms: N_26  and  C_27 
ROOT
HETATM    1  C   UNL     1      43.749 -17.281   1.227  1.00  0.00     0.070 C 
HETATM    2  C   UNL     1      42.605 -16.298   1.247  1.00  0.00     0.037 C 
HETATM    3  N   UNL     1      42.378 -15.618   0.049  1.00  0.00    -0.192 N 
HETATM    4  C   UNL     1      41.207 -14.999  -0.214  1.00  0.00     0.726 A 
HETATM    5  N   UNL     1      40.320 -14.779   0.800  1.00  0.00    -0.083 N 
HETATM    6  N   UNL     1      39.147 -14.306   0.338  1.00  0.00    -0.135 NA
HETATM    7  C   UNL     1      39.400 -14.214  -0.981  1.00  0.00     0.199 A 
HETATM    8  N   UNL     1      40.677 -14.611  -1.345  1.00  0.00    -0.041 NA
HETATM    9  C   UNL     1      40.556 -15.180   2.191  1.00  0.00     0.202 C 
HETATM   10  C   UNL     1      41.760 -16.111   2.293  1.00  0.00     0.062 C 
HETATM   11  H   UNL     1      42.946 -15.891  -0.749  1.00  0.00     0.184 HD
ENDROOT
BRANCH  10  12
HETATM   12  C   UNL     1      41.806 -16.874   3.568  1.00  0.00     0.256 C 
HETATM   13  N   UNL     1      42.845 -16.517   4.399  1.00  0.00    -0.323 N 
HETATM   14  H   UNL     1      43.441 -15.757   4.095  1.00  0.00     0.169 HD
HETATM   15  O   UNL     1      40.926 -17.697   3.786  1.00  0.00    -0.267 OA
BRANCH  13  16
HETATM   16  C   UNL     1      43.190 -17.116   5.630  1.00  0.00     0.035 A 
HETATM   17  C   UNL     1      42.810 -16.612   6.875  1.00  0.00     0.029 A 
HETATM   18  C   UNL     1      43.173 -17.276   8.052  1.00  0.00     0.002 A 
HETATM   19  C   UNL     1      43.914 -18.452   7.993  1.00  0.00     0.000 A 
HETATM   20  C   UNL     1      44.299 -18.964   6.757  1.00  0.00     0.002 A 
HETATM   21  C   UNL     1      43.943 -18.296   5.582  1.00  0.00     0.029 A 
ENDBRANCH  13  16
ENDBRANCH  10  12
BRANCH   9  22
HETATM   22  C   UNL     1      40.714 -13.953   3.086  1.00  0.00    -0.028 A 
HETATM   23  C   UNL     1      39.739 -13.674   4.059  1.00  0.00     0.012 A 
HETATM   24  C   UNL     1      39.870 -12.570   4.906  1.00  0.00     0.037 A 
HETATM   25  C   UNL     1      40.981 -11.743   4.787  1.00  0.00     0.065 A 
HETATM   26  C   UNL     1      41.962 -12.003   3.840  1.00  0.00     0.037 A 
HETATM   27  C   UNL     1      41.834 -13.105   2.993  1.00  0.00     0.012 A 
BRANCH  25  28
HETATM   28  O   UNL     1      41.147 -10.655   5.591  1.00  0.00    -0.361 OA
HETATM   29  H   UNL     1      40.759 -10.850   6.460  1.00  0.00     0.217 HD
ENDBRANCH  25  28
ENDBRANCH   9  22
BRANCH   7  30
HETATM   30  C   UNL     1      38.403 -13.810  -1.970  1.00  0.00     0.014 A 
HETATM   31  C   UNL     1      38.000 -14.690  -2.987  1.00  0.00     0.017 A 
HETATM   32  C   UNL     1      37.078 -14.285  -3.957  1.00  0.00     0.025 A 
HETATM   33  C   UNL     1      36.551 -12.996  -3.914  1.00  0.00     0.034 A 
HETATM   34 CL   UNL     1      35.425 -12.493  -5.114  1.00  0.00    -0.084 Cl
HETATM   35  C   UNL     1      36.933 -12.111  -2.909  1.00  0.00     0.025 A 
HETATM   36  C   UNL     1      37.856 -12.518  -1.940  1.00  0.00     0.017 A 
ENDBRANCH   7  30
TORSDOF 5
ENDMDL
MODEL 5
REMARK VINA RESULT:      -8.3      2.150      2.929
REMARK  5 active torsions:
REMARK  status: ('A' for Active; 'I' for Inactive)
REMARK    1  A    between atoms: C_7  and  C_8 
REMARK    2  A    between atoms: C_16  and  C_17 
REMARK    3  A    between atoms: C_20  and  O_21 
REMARK    4  A    between atoms: C_24  and  C_25 
REMARK       I    between atoms: C_25  and  N_26 
REMARK    5  A    between atoms: N_26  and  C_27 
ROOT
HETATM    1  C   UNL     1      36.885 -13.887   0.654  1.00  0.00     0.070 C 
HETATM    2  C   UNL     1      38.365 -14.169   0.575  1.00  0.00     0.037 C 
HETATM    3  N   UNL     1      38.947 -14.652   1.748  1.00  0.00    -0.192 N 
HETATM    4  C   UNL     1      40.138 -15.286   1.750  1.00  0.00     0.726 A 
HETATM    5  N   UNL     1      40.938 -15.218   0.645  1.00  0.00    -0.083 N 
HETATM    6  N   UNL     1      42.003 -16.035   0.754  1.00  0.00    -0.135 NA
HETATM    7  C   UNL     1      41.819 -16.547   1.986  1.00  0.00     0.199 A 
HETATM    8  N   UNL     1      40.687 -16.078   2.634  1.00  0.00    -0.041 NA
HETATM    9  C   UNL     1      40.582 -14.487  -0.576  1.00  0.00     0.202 C 
HETATM   10  C   UNL     1      39.114 -14.072  -0.553  1.00  0.00     0.062 C 
HETATM   11  H   UNL     1      38.321 -14.841   2.527  1.00  0.00     0.184 HD
ENDROOT
BRANCH  10  12
HETATM   12  C   UNL     1      38.586 -13.710  -1.895  1.00  0.00     0.256 C 
HETATM   13  N   UNL     1      38.497 -12.354  -2.116  1.00  0.00    -0.323 N 
HETATM   14  H   UNL     1      38.833 -11.742  -1.382  1.00  0.00     0.169 HD
HETATM   15  O   UNL     1      38.322 -14.612  -2.679  1.00  0.00    -0.267 OA
BRANCH  13  16
HETATM   16  C   UNL     1      37.962 -11.713  -3.255  1.00  0.00     0.035 A 
HETATM   17  C   UNL     1      36.604 -11.706  -3.579  1.00  0.00     0.029 A 
HETATM   18  C   UNL     1      36.147 -11.029  -4.715  1.00  0.00     0.002 A 
HETATM   19  C   UNL     1      37.044 -10.348  -5.533  1.00  0.00     0.000 A 
HETATM   20  C   UNL     1      38.400 -10.349  -5.220  1.00  0.00     0.002 A 
HETATM   21  C   UNL     1      38.858 -11.032  -4.090  1.00  0.00     0.029 A 
ENDBRANCH  13  16
ENDBRANCH  10  12
BRANCH   9  22
HETATM   22  C   UNL     1      41.505 -13.287  -0.773  1.00  0.00    -0.028 A 
HETATM   23  C   UNL     1      42.212 -13.147  -1.980  1.00  0.00     0.012 A 
HETATM   24  C   UNL     1      43.046 -12.047  -2.196  1.00  0.00     0.037 A 
HETATM   25  C   UNL     1      43.172 -11.078  -1.207  1.00  0.00     0.065 A 
HETATM   26  C   UNL     1      42.477 -11.189  -0.011  1.00  0.00     0.037 A 
HETATM   27  C   UNL     1      41.644 -12.287   0.208  1.00  0.00     0.012 A 
BRANCH  25  28
HETATM   28  O   UNL     1      43.977  -9.990  -1.376  1.00  0.00    -0.361 OA
HETATM   29  H   UNL     1      43.424  -9.232  -1.628  1.00  0.00     0.217 HD
ENDBRANCH  25  28
ENDBRANCH   9  22
BRANCH   7  30
HETATM   30  C   UNL     1      42.682 -17.569   2.574  1.00  0.00     0.014 A 
HETATM   31  C   UNL     1      43.275 -18.559   1.774  1.00  0.00     0.017 A 
HETATM   32  C   UNL     1      44.065 -19.560   2.346  1.00  0.00     0.025 A 
HETATM   33  C   UNL     1      44.269 -19.577   3.724  1.00  0.00     0.034 A 
HETATM   34 CL   UNL     1      45.231 -20.816   4.431  1.00  0.00    -0.084 Cl
HETATM   35  C   UNL     1      43.694 -18.600   4.534  1.00  0.00     0.025 A 
HETATM   36  C   UNL     1      42.904 -17.599   3.959  1.00  0.00     0.017 A 
ENDBRANCH   7  30
TORSDOF 5
ENDMDL
MODEL 6
REMARK VINA RESULT:      -8.1      1.902      2.369
REMARK  5 active torsions:
REMARK  status: ('A' for Active; 'I' for Inactive)
REMARK    1  A    between atoms: C_7  and  C_8 
REMARK    2  A    between atoms: C_16  and  C_17 
REMARK    3  A    between atoms: C_20  and  O_21 
REMARK    4  A    between atoms: C_24  and  C_25 
REMARK       I    between atoms: C_25  and  N_26 
REMARK    5  A    between atoms: N_26  and  C_27 
ROOT
HETATM    1  C   UNL     1      40.568 -10.031   3.045  1.00  0.00     0.070 C 
HETATM    2  C   UNL     1      40.930 -11.207   2.173  1.00  0.00     0.037 C 
HETATM    3  N   UNL     1      41.962 -12.015   2.655  1.00  0.00    -0.192 N 
HETATM    4  C   UNL     1      42.158 -13.272   2.206  1.00  0.00     0.726 A 
HETATM    5  N   UNL     1      41.530 -13.685   1.065  1.00  0.00    -0.083 N 
HETATM    6  N   UNL     1      41.703 -15.004   0.855  1.00  0.00    -0.135 NA
HETATM    7  C   UNL     1      42.496 -15.335   1.890  1.00  0.00     0.199 A 
HETATM    8  N   UNL     1      42.814 -14.277   2.726  1.00  0.00    -0.041 NA
HETATM    9  C   UNL     1      40.633 -12.835   0.275  1.00  0.00     0.202 C 
HETATM   10  C   UNL     1      40.276 -11.563   1.038  1.00  0.00     0.062 C 
HETATM   11  H   UNL     1      42.329 -11.790   3.576  1.00  0.00     0.184 HD
ENDROOT
BRANCH  10  12
HETATM   12  C   UNL     1      39.075 -10.872   0.498  1.00  0.00     0.256 C 
HETATM   13  N   UNL     1      37.946 -11.658   0.458  1.00  0.00    -0.323 N 
HETATM   14  H   UNL     1      38.022 -12.596   0.831  1.00  0.00     0.169 HD
HETATM   15  O   UNL     1      39.175  -9.693   0.184  1.00  0.00    -0.267 OA
BRANCH  13  16
HETATM   16  C   UNL     1      36.687 -11.307  -0.074  1.00  0.00     0.035 A 
HETATM   17  C   UNL     1      36.429 -11.165  -1.440  1.00  0.00     0.029 A 
HETATM   18  C   UNL     1      35.147 -10.836  -1.892  1.00  0.00     0.002 A 
HETATM   19  C   UNL     1      34.109 -10.652  -0.982  1.00  0.00     0.000 A 
HETATM   20  C   UNL     1      34.354 -10.791   0.381  1.00  0.00     0.002 A 
HETATM   21  C   UNL     1      35.637 -11.112   0.833  1.00  0.00     0.029 A 
ENDBRANCH  13  16
ENDBRANCH  10  12
BRANCH   9  22
HETATM   22  C   UNL     1      41.249 -12.522  -1.086  1.00  0.00    -0.028 A 
HETATM   23  C   UNL     1      40.729 -13.135  -2.240  1.00  0.00     0.012 A 
HETATM   24  C   UNL     1      41.259 -12.850  -3.501  1.00  0.00     0.037 A 
HETATM   25  C   UNL     1      42.308 -11.945  -3.615  1.00  0.00     0.065 A 
HETATM   26  C   UNL     1      42.832 -11.320  -2.492  1.00  0.00     0.037 A 
HETATM   27  C   UNL     1      42.305 -11.602  -1.231  1.00  0.00     0.012 A 
BRANCH  25  28
HETATM   28  O   UNL     1      42.856 -11.640  -4.826  1.00  0.00    -0.361 OA
HETATM   29  H   UNL     1      42.182 -11.775  -5.513  1.00  0.00     0.217 HD
ENDBRANCH  25  28
ENDBRANCH   9  22
BRANCH   7  30
HETATM   30  C   UNL     1      42.928 -16.703   2.173  1.00  0.00     0.014 A 
HETATM   31  C   UNL     1      42.784 -17.252   3.457  1.00  0.00     0.017 A 
HETATM   32  C   UNL     1      43.238 -18.546   3.734  1.00  0.00     0.025 A 
HETATM   33  C   UNL     1      43.837 -19.299   2.727  1.00  0.00     0.034 A 
HETATM   34 CL   UNL     1      44.406 -20.886   3.070  1.00  0.00    -0.084 Cl
HETATM   35  C   UNL     1      43.982 -18.773   1.445  1.00  0.00     0.025 A 
HETATM   36  C   UNL     1      43.528 -17.479   1.170  1.00  0.00     0.017 A 
ENDBRANCH   7  30
TORSDOF 5
ENDMDL
MODEL 7
REMARK VINA RESULT:      -8.0      4.853      8.974
REMARK  5 active torsions:
REMARK  status: ('A' for Active; 'I' for Inactive)
REMARK    1  A    between atoms: C_7  and  C_8 
REMARK    2  A    between atoms: C_16  and  C_17 
REMARK    3  A    between atoms: C_20  and  O_21 
REMARK    4  A    between atoms: C_24  and  C_25 
REMARK       I    between atoms: C_25  and  N_26 
REMARK    5  A    between atoms: N_26  and  C_27 
ROOT
HETATM    1  C   UNL     1      41.392 -12.030   6.048  1.00  0.00     0.070 C 
HETATM    2  C   UNL     1      41.581 -12.358   4.588  1.00  0.00     0.037 C 
HETATM    3  N   UNL     1      40.928 -11.509   3.693  1.00  0.00    -0.192 N 
HETATM    4  C   UNL     1      41.276 -11.434   2.392  1.00  0.00     0.726 A 
HETATM    5  N   UNL     1      42.085 -12.394   1.855  1.00  0.00    -0.083 N 
HETATM    6  N   UNL     1      42.464 -12.079   0.602  1.00  0.00    -0.135 NA
HETATM    7  C   UNL     1      41.806 -10.920   0.410  1.00  0.00     0.199 A 
HETATM    8  N   UNL     1      41.043 -10.513   1.493  1.00  0.00    -0.041 NA
HETATM    9  C   UNL     1      42.616 -13.530   2.615  1.00  0.00     0.202 C 
HETATM   10  C   UNL     1      42.391 -13.338   4.111  1.00  0.00     0.062 C 
HETATM   11  H   UNL     1      40.447 -10.706   4.091  1.00  0.00     0.184 HD
ENDROOT
BRANCH  10  12
HETATM   12  C   UNL     1      43.249 -14.215   4.952  1.00  0.00     0.256 C 
HETATM   13  N   UNL     1      42.706 -15.454   5.207  1.00  0.00    -0.323 N 
HETATM   14  H   UNL     1      41.816 -15.667   4.774  1.00  0.00     0.169 HD
HETATM   15  O   UNL     1      44.345 -13.794   5.300  1.00  0.00    -0.267 OA
BRANCH  13  16
HETATM   16  C   UNL     1      43.246 -16.462   6.034  1.00  0.00     0.035 A 
HETATM   17  C   UNL     1      43.039 -16.533   7.413  1.00  0.00     0.029 A 
HETATM   18  C   UNL     1      43.590 -17.578   8.163  1.00  0.00     0.002 A 
HETATM   19  C   UNL     1      44.348 -18.564   7.538  1.00  0.00     0.000 A 
HETATM   20  C   UNL     1      44.561 -18.504   6.164  1.00  0.00     0.002 A 
HETATM   21  C   UNL     1      44.017 -17.456   5.417  1.00  0.00     0.029 A 
ENDBRANCH  13  16
ENDBRANCH  10  12
BRANCH   9  22
HETATM   22  C   UNL     1      42.011 -14.841   2.117  1.00  0.00    -0.028 A 
HETATM   23  C   UNL     1      42.844 -15.813   1.535  1.00  0.00     0.012 A 
HETATM   24  C   UNL     1      42.321 -17.030   1.091  1.00  0.00     0.037 A 
HETATM   25  C   UNL     1      40.962 -17.284   1.234  1.00  0.00     0.065 A 
HETATM   26  C   UNL     1      40.121 -16.345   1.814  1.00  0.00     0.037 A 
HETATM   27  C   UNL     1      40.640 -15.128   2.258  1.00  0.00     0.012 A 
BRANCH  25  28
HETATM   28  O   UNL     1      40.410 -18.457   0.813  1.00  0.00    -0.361 OA
HETATM   29  H   UNL     1      39.494 -18.502   1.134  1.00  0.00     0.217 HD
ENDBRANCH  25  28
ENDBRANCH   9  22
BRANCH   7  30
HETATM   30  C   UNL     1      41.937 -10.105  -0.796  1.00  0.00     0.014 A 
HETATM   31  C   UNL     1      42.633 -10.585  -1.917  1.00  0.00     0.017 A 
HETATM   32  C   UNL     1      42.792  -9.786  -3.053  1.00  0.00     0.025 A 
HETATM   33  C   UNL     1      42.255  -8.501  -3.076  1.00  0.00     0.034 A 
HETATM   34 CL   UNL     1      42.461  -7.512  -4.469  1.00  0.00    -0.084 Cl
HETATM   35  C   UNL     1      41.556  -8.010  -1.976  1.00  0.00     0.025 A 
HETATM   36  C   UNL     1      41.397  -8.810  -0.840  1.00  0.00     0.017 A 
ENDBRANCH   7  30
TORSDOF 5
ENDMDL
MODEL 8
REMARK VINA RESULT:      -8.0      2.795      5.260
REMARK  5 active torsions:
REMARK  status: ('A' for Active; 'I' for Inactive)
REMARK    1  A    between atoms: C_7  and  C_8 
REMARK    2  A    between atoms: C_16  and  C_17 
REMARK    3  A    between atoms: C_20  and  O_21 
REMARK    4  A    between atoms: C_24  and  C_25 
REMARK       I    between atoms: C_25  and  N_26 
REMARK    5  A    between atoms: N_26  and  C_27 
ROOT
HETATM    1  C   UNL     1      40.551 -15.588  -3.569  1.00  0.00     0.070 C 
HETATM    2  C   UNL     1      40.604 -15.143  -2.129  1.00  0.00     0.037 C 
HETATM    3  N   UNL     1      40.726 -16.168  -1.188  1.00  0.00    -0.192 N 
HETATM    4  C   UNL     1      41.147 -15.937   0.073  1.00  0.00     0.726 A 
HETATM    5  N   UNL     1      41.189 -14.657   0.545  1.00  0.00    -0.083 N 
HETATM    6  N   UNL     1      41.784 -14.593   1.752  1.00  0.00    -0.135 NA
HETATM    7  C   UNL     1      42.044 -15.892   1.987  1.00  0.00     0.199 A 
HETATM    8  N   UNL     1      41.635 -16.747   0.976  1.00  0.00    -0.041 NA
HETATM    9  C   UNL     1      40.801 -13.484  -0.246  1.00  0.00     0.202 C 
HETATM   10  C   UNL     1      40.630 -13.850  -1.716  1.00  0.00     0.062 C 
HETATM   11  H   UNL     1      40.843 -17.111  -1.550  1.00  0.00     0.184 HD
ENDROOT
BRANCH  10  12
HETATM   12  C   UNL     1      40.650 -12.671  -2.621  1.00  0.00     0.256 C 
HETATM   13  N   UNL     1      41.861 -12.018  -2.666  1.00  0.00    -0.323 N 
HETATM   14  H   UNL     1      42.621 -12.415  -2.127  1.00  0.00     0.169 HD
HETATM   15  O   UNL     1      39.639 -12.411  -3.261  1.00  0.00    -0.267 OA
BRANCH  13  16
HETATM   16  C   UNL     1      42.158 -10.829  -3.366  1.00  0.00     0.035 A 
HETATM   17  C   UNL     1      42.338 -10.763  -4.749  1.00  0.00     0.029 A 
HETATM   18  C   UNL     1      42.608  -9.541  -5.375  1.00  0.00     0.002 A 
HETATM   19  C   UNL     1      42.696  -8.373  -4.622  1.00  0.00     0.000 A 
HETATM   20  C   UNL     1      42.520  -8.427  -3.243  1.00  0.00     0.002 A 
HETATM   21  C   UNL     1      42.257  -9.649  -2.617  1.00  0.00     0.029 A 
ENDBRANCH  13  16
ENDBRANCH  10  12
BRANCH   9  22
HETATM   22  C   UNL     1      39.538 -12.843   0.327  1.00  0.00    -0.028 A 
HETATM   23  C   UNL     1      39.630 -11.616   1.008  1.00  0.00     0.012 A 
HETATM   24  C   UNL     1      38.488 -10.997   1.522  1.00  0.00     0.037 A 
HETATM   25  C   UNL     1      37.247 -11.599   1.352  1.00  0.00     0.065 A 
HETATM   26  C   UNL     1      37.129 -12.805   0.676  1.00  0.00     0.037 A 
HETATM   27  C   UNL     1      38.268 -13.426   0.161  1.00  0.00     0.012 A 
BRANCH  25  28
HETATM   28  O   UNL     1      36.108 -11.030   1.840  1.00  0.00    -0.361 OA
HETATM   29  H   UNL     1      36.038 -11.239   2.786  1.00  0.00     0.217 HD
ENDBRANCH  25  28
ENDBRANCH   9  22
BRANCH   7  30
HETATM   30  C   UNL     1      42.767 -16.372   3.164  1.00  0.00     0.014 A 
HETATM   31  C   UNL     1      43.347 -17.650   3.180  1.00  0.00     0.017 A 
HETATM   32  C   UNL     1      44.000 -18.122   4.323  1.00  0.00     0.025 A 
HETATM   33  C   UNL     1      44.080 -17.317   5.456  1.00  0.00     0.034 A 
HETATM   34 CL   UNL     1      44.873 -17.901   6.867  1.00  0.00    -0.084 Cl
HETATM   35  C   UNL     1      43.516 -16.042   5.456  1.00  0.00     0.025 A 
HETATM   36  C   UNL     1      42.863 -15.572   4.313  1.00  0.00     0.017 A 
ENDBRANCH   7  30
TORSDOF 5
ENDMDL
MODEL 9
REMARK VINA RESULT:      -7.9      2.352      3.323
REMARK  5 active torsions:
REMARK  status: ('A' for Active; 'I' for Inactive)
REMARK    1  A    between atoms: C_7  and  C_8 
REMARK    2  A    between atoms: C_16  and  C_17 
REMARK    3  A    between atoms: C_20  and  O_21 
REMARK    4  A    between atoms: C_24  and  C_25 
REMARK       I    between atoms: C_25  and  N_26 
REMARK    5  A    between atoms: N_26  and  C_27 
ROOT
HETATM    1  C   UNL     1      41.597 -11.347   6.621  1.00  0.00     0.070 C 
HETATM    2  C   UNL     1      41.651 -12.514   5.667  1.00  0.00     0.037 C 
HETATM    3  N   UNL     1      42.793 -13.312   5.759  1.00  0.00    -0.192 N 
HETATM    4  C   UNL     1      42.835 -14.565   5.259  1.00  0.00     0.726 A 
HETATM    5  N   UNL     1      41.859 -14.978   4.398  1.00  0.00    -0.083 N 
HETATM    6  N   UNL     1      41.962 -16.294   4.128  1.00  0.00    -0.135 NA
HETATM    7  C   UNL     1      43.064 -16.622   4.828  1.00  0.00     0.199 A 
HETATM    8  N   UNL     1      43.639 -15.564   5.514  1.00  0.00    -0.041 NA
HETATM    9  C   UNL     1      40.738 -14.134   3.970  1.00  0.00     0.202 C 
HETATM   10  C   UNL     1      40.652 -12.871   4.821  1.00  0.00     0.062 C 
HETATM   11  H   UNL     1      43.450 -13.088   6.502  1.00  0.00     0.184 HD
ENDROOT
BRANCH  10  12
HETATM   12  C   UNL     1      39.332 -12.192   4.730  1.00  0.00     0.256 C 
HETATM   13  N   UNL     1      39.204 -11.356   3.643  1.00  0.00    -0.323 N 
HETATM   14  H   UNL     1      39.983 -11.315   2.997  1.00  0.00     0.169 HD
HETATM   15  O   UNL     1      38.485 -12.453   5.574  1.00  0.00    -0.267 OA
BRANCH  13  16
HETATM   16  C   UNL     1      38.107 -10.522   3.339  1.00  0.00     0.035 A 
HETATM   17  C   UNL     1      37.692  -9.457   4.141  1.00  0.00     0.029 A 
HETATM   18  C   UNL     1      36.607  -8.660   3.760  1.00  0.00     0.002 A 
HETATM   19  C   UNL     1      35.931  -8.918   2.571  1.00  0.00     0.000 A 
HETATM   20  C   UNL     1      36.336  -9.978   1.764  1.00  0.00     0.002 A 
HETATM   21  C   UNL     1      37.415 -10.778   2.149  1.00  0.00     0.029 A 
ENDBRANCH  13  16
ENDBRANCH  10  12
BRANCH   9  22
HETATM   22  C   UNL     1      40.849 -13.806   2.482  1.00  0.00    -0.028 A 
HETATM   23  C   UNL     1      41.927 -13.029   2.023  1.00  0.00     0.012 A 
HETATM   24  C   UNL     1      42.066 -12.733   0.664  1.00  0.00     0.037 A 
HETATM   25  C   UNL     1      41.130 -13.218  -0.242  1.00  0.00     0.065 A 
HETATM   26  C   UNL     1      40.063 -13.995   0.186  1.00  0.00     0.037 A 
HETATM   27  C   UNL     1      39.922 -14.293   1.543  1.00  0.00     0.012 A 
BRANCH  25  28
HETATM   28  O   UNL     1      41.227 -12.951  -1.576  1.00  0.00    -0.361 OA
HETATM   29  H   UNL     1      40.424 -13.276  -2.015  1.00  0.00     0.217 HD
ENDBRANCH  25  28
ENDBRANCH   9  22
BRANCH   7  30
HETATM   30  C   UNL     1      43.579 -17.985   4.933  1.00  0.00     0.014 A 
HETATM   31  C   UNL     1      44.048 -18.668   3.799  1.00  0.00     0.017 A 
HETATM   32  C   UNL     1      44.500 -19.987   3.897  1.00  0.00     0.025 A 
HETATM   33  C   UNL     1      44.488 -20.633   5.131  1.00  0.00     0.034 A 
HETATM   34 CL   UNL     1      45.033 -22.260   5.250  1.00  0.00    -0.084 Cl
HETATM   35  C   UNL     1      44.033 -19.970   6.269  1.00  0.00     0.025 A 
HETATM   36  C   UNL     1      43.581 -18.650   6.169  1.00  0.00     0.017 A 
ENDBRANCH   7  30
TORSDOF 5
ENDMDL
MODEL 10
REMARK VINA RESULT:      -7.9      2.448      3.281
REMARK  5 active torsions:
REMARK  status: ('A' for Active; 'I' for Inactive)
REMARK    1  A    between atoms: C_7  and  C_8 
REMARK    2  A    between atoms: C_16  and  C_17 
REMARK    3  A    between atoms: C_20  and  O_21 
REMARK    4  A    between atoms: C_24  and  C_25 
REMARK       I    between atoms: C_25  and  N_26 
REMARK    5  A    between atoms: N_26  and  C_27 
ROOT
HETATM    1  C   UNL     1      40.890 -10.043  -0.535  1.00  0.00     0.070 C 
HETATM    2  C   UNL     1      40.683 -11.532  -0.411  1.00  0.00     0.037 C 
HETATM    3  N   UNL     1      41.752 -12.243   0.135  1.00  0.00    -0.192 N 
HETATM    4  C   UNL     1      41.603 -13.484   0.644  1.00  0.00     0.726 A 
HETATM    5  N   UNL     1      40.463 -14.188   0.378  1.00  0.00    -0.083 N 
HETATM    6  N   UNL     1      40.408 -15.328   1.092  1.00  0.00    -0.135 NA
HETATM    7  C   UNL     1      41.581 -15.286   1.749  1.00  0.00     0.199 A 
HETATM    8  N   UNL     1      42.352 -14.169   1.468  1.00  0.00    -0.041 NA
HETATM    9  C   UNL     1      39.361 -13.674  -0.442  1.00  0.00     0.202 C 
HETATM   10  C   UNL     1      39.527 -12.181  -0.705  1.00  0.00     0.062 C 
HETATM   11  H   UNL     1      42.543 -11.698   0.469  1.00  0.00     0.184 HD
ENDROOT
BRANCH  10  12
HETATM   12  C   UNL     1      38.273 -11.521  -1.156  1.00  0.00     0.256 C 
HETATM   13  N   UNL     1      37.235 -11.613  -0.256  1.00  0.00    -0.323 N 
HETATM   14  H   UNL     1      37.427 -12.070   0.627  1.00  0.00     0.169 HD
HETATM   15  O   UNL     1      38.278 -10.936  -2.231  1.00  0.00    -0.267 OA
BRANCH  13  16
HETATM   16  C   UNL     1      35.911 -11.158  -0.439  1.00  0.00     0.035 A 
HETATM   17  C   UNL     1      35.316 -10.975  -1.688  1.00  0.00     0.029 A 
HETATM   18  C   UNL     1      33.989 -10.541  -1.788  1.00  0.00     0.002 A 
HETATM   19  C   UNL     1      33.245 -10.294  -0.638  1.00  0.00     0.000 A 
HETATM   20  C   UNL     1      33.828 -10.472   0.613  1.00  0.00     0.002 A 
HETATM   21  C   UNL     1      35.156 -10.898   0.712  1.00  0.00     0.029 A 
ENDBRANCH  13  16
ENDBRANCH  10  12
BRANCH   9  22
HETATM   22  C   UNL     1      39.243 -14.466  -1.742  1.00  0.00    -0.028 A 
HETATM   23  C   UNL     1      38.012 -14.507  -2.420  1.00  0.00     0.012 A 
HETATM   24  C   UNL     1      37.882 -15.205  -3.624  1.00  0.00     0.037 A 
HETATM   25  C   UNL     1      38.985 -15.861  -4.158  1.00  0.00     0.065 A 
HETATM   26  C   UNL     1      40.212 -15.827  -3.512  1.00  0.00     0.037 A 
HETATM   27  C   UNL     1      40.346 -15.131  -2.310  1.00  0.00     0.012 A 
BRANCH  25  28
HETATM   28  O   UNL     1      38.901 -16.555  -5.328  1.00  0.00    -0.361 OA
HETATM   29  H   UNL     1      39.790 -16.863  -5.571  1.00  0.00     0.217 HD
ENDBRANCH  25  28
ENDBRANCH   9  22
BRANCH   7  30
HETATM   30  C   UNL     1      41.991 -16.281   2.738  1.00  0.00     0.014 A 
HETATM   31  C   UNL     1      41.101 -16.715   3.734  1.00  0.00     0.017 A 
HETATM   32  C   UNL     1      41.510 -17.635   4.705  1.00  0.00     0.025 A 
HETATM   33  C   UNL     1      42.812 -18.129   4.684  1.00  0.00     0.034 A 
HETATM   34 CL   UNL     1      43.320 -19.252   5.885  1.00  0.00    -0.084 Cl
HETATM   35  C   UNL     1      43.707 -17.716   3.700  1.00  0.00     0.025 A 
HETATM   36  C   UNL     1      43.296 -16.795   2.730  1.00  0.00     0.017 A 
ENDBRANCH   7  30
TORSDOF 5
ENDMDL
