MODEL 1
REMARK VINA RESULT:      -9.1      0.000      0.000
REMARK  2 active torsions:
REMARK  status: ('A' for Active; 'I' for Inactive)
REMARK    1  A    between atoms: C_15  and  C_16 
REMARK    2  A    between atoms: C_19  and  O_20 
ROOT
HETATM    1  C   UNL     1      44.503 -21.569   2.884  1.00  0.00     0.048 C 
HETATM    2  C   UNL     1      43.968 -20.173   3.012  1.00  0.00    -0.061 A 
HETATM    3  C   UNL     1      44.236 -19.404   4.161  1.00  0.00     0.021 A 
HETATM    4  C   UNL     1      43.758 -18.079   4.247  1.00  0.00    -0.000 A 
HETATM    5  C   UNL     1      43.013 -17.569   3.176  1.00  0.00     0.043 A 
HETATM    6  N   UNL     1      42.658 -16.277   3.497  1.00  0.00    -0.353 N 
HETATM    7  H   UNL     1      42.099 -15.660   2.920  1.00  0.00     0.166 HD
HETATM    8  C   UNL     1      43.224 -15.937   4.686  1.00  0.00     0.066 A 
HETATM    9  C   UNL     1      43.850 -17.044   5.221  1.00  0.00    -0.017 A 
HETATM   10  C   UNL     1      44.485 -17.003   6.583  1.00  0.00     0.043 C 
HETATM   11  C   UNL     1      44.100 -15.698   7.368  1.00  0.00     0.018 C 
HETATM   12  C   UNL     1      44.216 -14.468   6.444  1.00  0.00     0.065 C 
HETATM   13  C   UNL     1      43.168 -14.699   5.381  1.00  0.00     0.082 C 
HETATM   14  N   UNL     1      42.204 -13.843   5.292  1.00  0.00    -0.203 NA
HETATM   15  C   UNL     1      43.810 -13.037   6.818  1.00  0.00     0.121 C 
HETATM   16  N   UNL     1      42.442 -12.916   6.261  1.00  0.00    -0.207 NA
HETATM   17  C   UNL     1      42.730 -18.315   2.027  1.00  0.00     0.031 A 
HETATM   18  C   UNL     1      43.227 -19.621   1.963  1.00  0.00     0.009 A 
HETATM   19  H   UNL     1      41.749 -13.012   7.008  1.00  0.00     0.149 HD
ENDROOT
BRANCH  15  20
HETATM   20  C   UNL     1      43.982 -12.431   8.193  1.00  0.00    -0.038 A 
HETATM   21  C   UNL     1      43.072 -11.446   8.623  1.00  0.00     0.011 A 
HETATM   22  C   UNL     1      43.250 -10.760   9.827  1.00  0.00     0.037 A 
HETATM   23  C   UNL     1      44.350 -11.027  10.636  1.00  0.00     0.068 A 
HETATM   24  C   UNL     1      45.269 -11.989  10.225  1.00  0.00     0.037 A 
HETATM   25  C   UNL     1      45.096 -12.670   9.007  1.00  0.00     0.011 A 
BRANCH  23  26
HETATM   26  O   UNL     1      44.416 -10.271  11.772  1.00  0.00    -0.356 OA
HETATM   27  C   UNL     1      43.268 -10.263  12.611  1.00  0.00     0.210 C 
ENDBRANCH  23  26
ENDBRANCH  15  20
TORSDOF 2
ENDMDL
MODEL 2
REMARK VINA RESULT:      -8.9      5.591      7.154
REMARK  2 active torsions:
REMARK  status: ('A' for Active; 'I' for Inactive)
REMARK    1  A    between atoms: C_15  and  C_16 
REMARK    2  A    between atoms: C_19  and  O_20 
ROOT
HETATM    1  C   UNL     1      44.721 -22.267   2.096  1.00  0.00     0.048 C 
HETATM    2  C   UNL     1      44.366 -20.952   2.726  1.00  0.00    -0.061 A 
HETATM    3  C   UNL     1      43.440 -20.089   2.111  1.00  0.00     0.021 A 
HETATM    4  C   UNL     1      43.090 -18.873   2.737  1.00  0.00    -0.000 A 
HETATM    5  C   UNL     1      43.692 -18.557   3.962  1.00  0.00     0.043 A 
HETATM    6  N   UNL     1      43.199 -17.334   4.361  1.00  0.00    -0.353 N 
HETATM    7  H   UNL     1      43.466 -16.839   5.204  1.00  0.00     0.166 HD
HETATM    8  C   UNL     1      42.253 -16.919   3.477  1.00  0.00     0.066 A 
HETATM    9  C   UNL     1      42.206 -17.802   2.419  1.00  0.00    -0.017 A 
HETATM   10  C   UNL     1      41.319 -17.554   1.230  1.00  0.00     0.043 C 
HETATM   11  C   UNL     1      40.723 -16.101   1.239  1.00  0.00     0.018 C 
HETATM   12  C   UNL     1      40.211 -15.746   2.650  1.00  0.00     0.065 C 
HETATM   13  C   UNL     1      41.452 -15.745   3.511  1.00  0.00     0.082 C 
HETATM   14  N   UNL     1      41.789 -14.635   4.079  1.00  0.00    -0.203 NA
HETATM   15  C   UNL     1      39.670 -14.375   3.078  1.00  0.00     0.121 C 
HETATM   16  N   UNL     1      40.848 -13.726   3.701  1.00  0.00    -0.207 NA
HETATM   17  C   UNL     1      44.619 -19.396   4.588  1.00  0.00     0.031 A 
HETATM   18  C   UNL     1      44.938 -20.600   3.952  1.00  0.00     0.009 A 
HETATM   19  H   UNL     1      41.261 -13.052   3.051  1.00  0.00     0.149 HD
ENDROOT
BRANCH  15  20
HETATM   20  C   UNL     1      38.848 -13.466   2.192  1.00  0.00    -0.038 A 
HETATM   21  C   UNL     1      38.753 -12.099   2.520  1.00  0.00     0.011 A 
HETATM   22  C   UNL     1      37.911 -11.235   1.816  1.00  0.00     0.037 A 
HETATM   23  C   UNL     1      37.127 -11.709   0.770  1.00  0.00     0.068 A 
HETATM   24  C   UNL     1      37.196 -13.059   0.436  1.00  0.00     0.037 A 
HETATM   25  C   UNL     1      38.034 -13.931   1.152  1.00  0.00     0.011 A 
BRANCH  23  26
HETATM   26  O   UNL     1      36.333 -10.764   0.182  1.00  0.00    -0.356 OA
HETATM   27  C   UNL     1      34.928 -10.909   0.344  1.00  0.00     0.210 C 
ENDBRANCH  23  26
ENDBRANCH  15  20
TORSDOF 2
ENDMDL
MODEL 3
REMARK VINA RESULT:      -8.8      6.049      8.043
REMARK  2 active torsions:
REMARK  status: ('A' for Active; 'I' for Inactive)
REMARK    1  A    between atoms: C_15  and  C_16 
REMARK    2  A    between atoms: C_19  and  O_20 
ROOT
HETATM    1  C   UNL     1      45.426 -22.620   5.120  1.00  0.00     0.048 C 
HETATM    2  C   UNL     1      44.709 -21.302   5.129  1.00  0.00    -0.061 A 
HETATM    3  C   UNL     1      44.512 -20.583   3.935  1.00  0.00     0.021 A 
HETATM    4  C   UNL     1      43.801 -19.364   3.958  1.00  0.00    -0.000 A 
HETATM    5  C   UNL     1      43.317 -18.898   5.186  1.00  0.00     0.043 A 
HETATM    6  N   UNL     1      42.674 -17.703   4.951  1.00  0.00    -0.353 N 
HETATM    7  H   UNL     1      42.237 -17.121   5.656  1.00  0.00     0.166 HD
HETATM    8  C   UNL     1      42.666 -17.451   3.615  1.00  0.00     0.066 A 
HETATM    9  C   UNL     1      43.416 -18.413   2.970  1.00  0.00    -0.017 A 
HETATM   10  C   UNL     1      43.673 -18.343   1.490  1.00  0.00     0.043 C 
HETATM   11  C   UNL     1      43.241 -16.960   0.886  1.00  0.00     0.018 C 
HETATM   12  C   UNL     1      41.857 -16.551   1.431  1.00  0.00     0.065 C 
HETATM   13  C   UNL     1      42.079 -16.363   2.913  1.00  0.00     0.082 C 
HETATM   14  N   UNL     1      41.883 -15.184   3.406  1.00  0.00    -0.203 NA
HETATM   15  C   UNL     1      41.159 -15.212   1.162  1.00  0.00     0.121 C 
HETATM   16  N   UNL     1      41.503 -14.404   2.356  1.00  0.00    -0.207 NA
HETATM   17  C   UNL     1      43.505 -19.592   6.386  1.00  0.00     0.031 A 
HETATM   18  C   UNL     1      44.202 -20.803   6.333  1.00  0.00     0.009 A 
HETATM   19  H   UNL     1      42.251 -13.744   2.130  1.00  0.00     0.149 HD
ENDROOT
BRANCH  15  20
HETATM   20  C   UNL     1      41.231 -14.457  -0.146  1.00  0.00    -0.038 A 
HETATM   21  C   UNL     1      40.972 -15.148  -1.346  1.00  0.00     0.011 A 
HETATM   22  C   UNL     1      41.144 -14.540  -2.592  1.00  0.00     0.037 A 
HETATM   23  C   UNL     1      41.593 -13.227  -2.682  1.00  0.00     0.068 A 
HETATM   24  C   UNL     1      41.867 -12.529  -1.509  1.00  0.00     0.037 A 
HETATM   25  C   UNL     1      41.706 -13.144  -0.255  1.00  0.00     0.011 A 
BRANCH  23  26
HETATM   26  O   UNL     1      41.740 -12.763  -3.959  1.00  0.00    -0.356 OA
HETATM   27  C   UNL     1      42.384 -11.506  -4.120  1.00  0.00     0.210 C 
ENDBRANCH  23  26
ENDBRANCH  15  20
TORSDOF 2
ENDMDL
MODEL 4
REMARK VINA RESULT:      -8.7      3.826      4.813
REMARK  2 active torsions:
REMARK  status: ('A' for Active; 'I' for Inactive)
REMARK    1  A    between atoms: C_15  and  C_16 
REMARK    2  A    between atoms: C_19  and  O_20 
ROOT
HETATM    1  C   UNL     1      43.985 -21.900   1.369  1.00  0.00     0.048 C 
HETATM    2  C   UNL     1      44.062 -20.840   2.430  1.00  0.00    -0.061 A 
HETATM    3  C   UNL     1      43.346 -19.636   2.294  1.00  0.00     0.021 A 
HETATM    4  C   UNL     1      43.399 -18.667   3.319  1.00  0.00    -0.000 A 
HETATM    5  C   UNL     1      44.181 -18.937   4.449  1.00  0.00     0.043 A 
HETATM    6  N   UNL     1      44.078 -17.851   5.292  1.00  0.00    -0.353 N 
HETATM    7  H   UNL     1      44.549 -17.751   6.182  1.00  0.00     0.166 HD
HETATM    8  C   UNL     1      43.197 -16.957   4.769  1.00  0.00     0.066 A 
HETATM    9  C   UNL     1      42.811 -17.385   3.516  1.00  0.00    -0.017 A 
HETATM   10  C   UNL     1      41.912 -16.551   2.645  1.00  0.00     0.043 C 
HETATM   11  C   UNL     1      41.733 -15.098   3.214  1.00  0.00     0.018 C 
HETATM   12  C   UNL     1      41.475 -15.150   4.734  1.00  0.00     0.065 C 
HETATM   13  C   UNL     1      42.749 -15.722   5.310  1.00  0.00     0.082 C 
HETATM   14  N   UNL     1      43.427 -14.981   6.123  1.00  0.00    -0.203 NA
HETATM   15  C   UNL     1      41.369 -13.929   5.657  1.00  0.00     0.121 C 
HETATM   16  N   UNL     1      42.733 -13.813   6.225  1.00  0.00    -0.207 NA
HETATM   17  C   UNL     1      44.905 -20.123   4.604  1.00  0.00     0.031 A 
HETATM   18  C   UNL     1      44.824 -21.071   3.579  1.00  0.00     0.009 A 
HETATM   19  H   UNL     1      43.247 -13.065   5.753  1.00  0.00     0.149 HD
ENDROOT
BRANCH  15  20
HETATM   20  C   UNL     1      40.740 -12.612   5.263  1.00  0.00    -0.038 A 
HETATM   21  C   UNL     1      39.363 -12.574   4.969  1.00  0.00     0.011 A 
HETATM   22  C   UNL     1      38.750 -11.418   4.480  1.00  0.00     0.037 A 
HETATM   23  C   UNL     1      39.494 -10.265   4.256  1.00  0.00     0.068 A 
HETATM   24  C   UNL     1      40.859 -10.282   4.529  1.00  0.00     0.037 A 
HETATM   25  C   UNL     1      41.478 -11.449   5.009  1.00  0.00     0.011 A 
BRANCH  23  26
HETATM   26  O   UNL     1      38.777  -9.215   3.755  1.00  0.00    -0.356 OA
HETATM   27  C   UNL     1      37.369  -9.386   3.645  1.00  0.00     0.210 C 
ENDBRANCH  23  26
ENDBRANCH  15  20
TORSDOF 2
ENDMDL
MODEL 5
REMARK VINA RESULT:      -8.5      2.995      3.471
REMARK  2 active torsions:
REMARK  status: ('A' for Active; 'I' for Inactive)
REMARK    1  A    between atoms: C_15  and  C_16 
REMARK    2  A    between atoms: C_19  and  O_20 
ROOT
HETATM    1  C   UNL     1      45.445 -22.629   5.112  1.00  0.00     0.048 C 
HETATM    2  C   UNL     1      44.783 -21.460   4.444  1.00  0.00    -0.061 A 
HETATM    3  C   UNL     1      44.304 -20.376   5.204  1.00  0.00     0.021 A 
HETATM    4  C   UNL     1      43.718 -19.268   4.556  1.00  0.00    -0.000 A 
HETATM    5  C   UNL     1      43.623 -19.287   3.159  1.00  0.00     0.043 A 
HETATM    6  N   UNL     1      43.017 -18.113   2.769  1.00  0.00    -0.353 N 
HETATM    7  H   UNL     1      42.797 -17.852   1.815  1.00  0.00     0.166 HD
HETATM    8  C   UNL     1      42.809 -17.329   3.861  1.00  0.00     0.066 A 
HETATM    9  C   UNL     1      43.159 -18.033   4.994  1.00  0.00    -0.017 A 
HETATM   10  C   UNL     1      42.947 -17.460   6.369  1.00  0.00     0.043 C 
HETATM   11  C   UNL     1      42.064 -16.163   6.331  1.00  0.00     0.018 C 
HETATM   12  C   UNL     1      42.531 -15.235   5.190  1.00  0.00     0.065 C 
HETATM   13  C   UNL     1      42.256 -16.022   3.931  1.00  0.00     0.082 C 
HETATM   14  N   UNL     1      41.409 -15.530   3.087  1.00  0.00    -0.203 NA
HETATM   15  C   UNL     1      41.838 -13.933   4.767  1.00  0.00     0.121 C 
HETATM   16  N   UNL     1      40.986 -14.355   3.631  1.00  0.00    -0.207 NA
HETATM   17  C   UNL     1      44.087 -20.355   2.383  1.00  0.00     0.031 A 
HETATM   18  C   UNL     1      44.674 -21.434   3.050  1.00  0.00     0.009 A 
HETATM   19  H   UNL     1      40.014 -14.448   3.937  1.00  0.00     0.149 HD
ENDROOT
BRANCH  15  20
HETATM   20  C   UNL     1      41.175 -12.968   5.723  1.00  0.00    -0.038 A 
HETATM   21  C   UNL     1      39.846 -13.210   6.124  1.00  0.00     0.011 A 
HETATM   22  C   UNL     1      39.138 -12.292   6.904  1.00  0.00     0.037 A 
HETATM   23  C   UNL     1      39.728 -11.097   7.299  1.00  0.00     0.068 A 
HETATM   24  C   UNL     1      41.037 -10.831   6.904  1.00  0.00     0.037 A 
HETATM   25  C   UNL     1      41.746 -11.749   6.110  1.00  0.00     0.011 A 
BRANCH  23  26
HETATM   26  O   UNL     1      38.919 -10.280   8.037  1.00  0.00    -0.356 OA
HETATM   27  C   UNL     1      39.199 -10.177   9.427  1.00  0.00     0.210 C 
ENDBRANCH  23  26
ENDBRANCH  15  20
TORSDOF 2
ENDMDL
MODEL 6
REMARK VINA RESULT:      -8.4      5.989      9.025
REMARK  2 active torsions:
REMARK  status: ('A' for Active; 'I' for Inactive)
REMARK    1  A    between atoms: C_15  and  C_16 
REMARK    2  A    between atoms: C_19  and  O_20 
ROOT
HETATM    1  C   UNL     1      35.381 -10.990   0.490  1.00  0.00     0.048 C 
HETATM    2  C   UNL     1      36.541 -11.826   0.035  1.00  0.00    -0.061 A 
HETATM    3  C   UNL     1      37.241 -12.639   0.946  1.00  0.00     0.021 A 
HETATM    4  C   UNL     1      38.305 -13.447   0.492  1.00  0.00    -0.000 A 
HETATM    5  C   UNL     1      38.640 -13.407  -0.867  1.00  0.00     0.043 A 
HETATM    6  N   UNL     1      39.700 -14.266  -1.059  1.00  0.00    -0.353 N 
HETATM    7  H   UNL     1      40.170 -14.432  -1.940  1.00  0.00     0.166 HD
HETATM    8  C   UNL     1      39.981 -14.902   0.110  1.00  0.00     0.066 A 
HETATM    9  C   UNL     1      39.193 -14.372   1.112  1.00  0.00    -0.017 A 
HETATM   10  C   UNL     1      39.348 -14.809   2.543  1.00  0.00     0.043 C 
HETATM   11  C   UNL     1      40.641 -15.674   2.753  1.00  0.00     0.018 C 
HETATM   12  C   UNL     1      40.771 -16.720   1.627  1.00  0.00     0.065 C 
HETATM   13  C   UNL     1      40.958 -15.900   0.373  1.00  0.00     0.082 C 
HETATM   14  N   UNL     1      42.065 -16.041  -0.278  1.00  0.00    -0.203 NA
HETATM   15  C   UNL     1      41.962 -17.665   1.428  1.00  0.00     0.121 C 
HETATM   16  N   UNL     1      42.788 -16.961   0.418  1.00  0.00    -0.207 NA
HETATM   17  C   UNL     1      37.962 -12.603  -1.790  1.00  0.00     0.031 A 
HETATM   18  C   UNL     1      36.904 -11.821  -1.316  1.00  0.00     0.009 A 
HETATM   19  H   UNL     1      43.583 -16.503   0.873  1.00  0.00     0.149 HD
ENDROOT
BRANCH  15  20
HETATM   20  C   UNL     1      42.751 -18.296   2.553  1.00  0.00    -0.038 A 
HETATM   21  C   UNL     1      43.666 -19.324   2.251  1.00  0.00     0.011 A 
HETATM   22  C   UNL     1      44.330 -20.031   3.257  1.00  0.00     0.037 A 
HETATM   23  C   UNL     1      44.094 -19.743   4.597  1.00  0.00     0.068 A 
HETATM   24  C   UNL     1      43.184 -18.739   4.918  1.00  0.00     0.037 A 
HETATM   25  C   UNL     1      42.506 -18.037   3.907  1.00  0.00     0.011 A 
BRANCH  23  26
HETATM   26  O   UNL     1      44.791 -20.523   5.476  1.00  0.00    -0.356 OA
HETATM   27  C   UNL     1      45.039 -21.869   5.091  1.00  0.00     0.210 C 
ENDBRANCH  23  26
ENDBRANCH  15  20
TORSDOF 2
ENDMDL
MODEL 7
REMARK VINA RESULT:      -8.3      3.680      4.325
REMARK  2 active torsions:
REMARK  status: ('A' for Active; 'I' for Inactive)
REMARK    1  A    between atoms: C_15  and  C_16 
REMARK    2  A    between atoms: C_19  and  O_20 
ROOT
HETATM    1  C   UNL     1      45.466 -22.321   5.017  1.00  0.00     0.048 C 
HETATM    2  C   UNL     1      44.695 -21.316   4.212  1.00  0.00    -0.061 A 
HETATM    3  C   UNL     1      44.199 -20.144   4.813  1.00  0.00     0.021 A 
HETATM    4  C   UNL     1      43.509 -19.192   4.032  1.00  0.00    -0.000 A 
HETATM    5  C   UNL     1      43.330 -19.454   2.668  1.00  0.00     0.043 A 
HETATM    6  N   UNL     1      42.631 -18.395   2.131  1.00  0.00    -0.353 N 
HETATM    7  H   UNL     1      42.338 -18.311   1.166  1.00  0.00     0.166 HD
HETATM    8  C   UNL     1      42.444 -17.447   3.089  1.00  0.00     0.066 A 
HETATM    9  C   UNL     1      42.904 -17.930   4.297  1.00  0.00    -0.017 A 
HETATM   10  C   UNL     1      42.744 -17.142   5.568  1.00  0.00     0.043 C 
HETATM   11  C   UNL     1      41.783 -15.915   5.377  1.00  0.00     0.018 C 
HETATM   12  C   UNL     1      42.122 -15.173   4.067  1.00  0.00     0.065 C 
HETATM   13  C   UNL     1      41.819 -16.176   2.979  1.00  0.00     0.082 C 
HETATM   14  N   UNL     1      40.894 -15.877   2.127  1.00  0.00    -0.203 NA
HETATM   15  C   UNL     1      41.328 -13.998   3.483  1.00  0.00     0.121 C 
HETATM   16  N   UNL     1      40.435 -14.649   2.496  1.00  0.00    -0.207 NA
HETATM   17  C   UNL     1      43.808 -20.614   2.050  1.00  0.00     0.031 A 
HETATM   18  C   UNL     1      44.499 -21.534   2.845  1.00  0.00     0.009 A 
HETATM   19  H   UNL     1      39.491 -14.736   2.881  1.00  0.00     0.149 HD
ENDROOT
BRANCH  15  20
HETATM   20  C   UNL     1      40.668 -12.917   4.310  1.00  0.00    -0.038 A 
HETATM   21  C   UNL     1      39.421 -12.410   3.897  1.00  0.00     0.011 A 
HETATM   22  C   UNL     1      38.820 -11.327   4.544  1.00  0.00     0.037 A 
HETATM   23  C   UNL     1      39.450 -10.709   5.618  1.00  0.00     0.068 A 
HETATM   24  C   UNL     1      40.689 -11.186   6.037  1.00  0.00     0.037 A 
HETATM   25  C   UNL     1      41.300 -12.267   5.377  1.00  0.00     0.011 A 
BRANCH  23  26
HETATM   26  O   UNL     1      38.765  -9.650   6.145  1.00  0.00    -0.356 OA
HETATM   27  C   UNL     1      39.310  -9.041   7.309  1.00  0.00     0.210 C 
ENDBRANCH  23  26
ENDBRANCH  15  20
TORSDOF 2
ENDMDL
MODEL 8
REMARK VINA RESULT:      -7.9      3.847      4.590
REMARK  2 active torsions:
REMARK  status: ('A' for Active; 'I' for Inactive)
REMARK    1  A    between atoms: C_15  and  C_16 
REMARK    2  A    between atoms: C_19  and  O_20 
ROOT
HETATM    1  C   UNL     1      45.442 -21.757   4.784  1.00  0.00     0.048 C 
HETATM    2  C   UNL     1      44.617 -20.825   3.945  1.00  0.00    -0.061 A 
HETATM    3  C   UNL     1      44.141 -19.612   4.476  1.00  0.00     0.021 A 
HETATM    4  C   UNL     1      43.400 -18.731   3.660  1.00  0.00    -0.000 A 
HETATM    5  C   UNL     1      43.150 -19.103   2.333  1.00  0.00     0.043 A 
HETATM    6  N   UNL     1      42.412 -18.095   1.753  1.00  0.00    -0.353 N 
HETATM    7  H   UNL     1      42.066 -18.091   0.801  1.00  0.00     0.166 HD
HETATM    8  C   UNL     1      42.266 -17.074   2.641  1.00  0.00     0.066 A 
HETATM    9  C   UNL     1      42.796 -17.455   3.856  1.00  0.00    -0.017 A 
HETATM   10  C   UNL     1      42.695 -16.569   5.067  1.00  0.00     0.043 C 
HETATM   11  C   UNL     1      41.712 -15.367   4.831  1.00  0.00     0.018 C 
HETATM   12  C   UNL     1      41.971 -14.731   3.450  1.00  0.00     0.065 C 
HETATM   13  C   UNL     1      41.621 -15.820   2.464  1.00  0.00     0.082 C 
HETATM   14  N   UNL     1      40.648 -15.598   1.642  1.00  0.00    -0.203 NA
HETATM   15  C   UNL     1      41.134 -13.612   2.818  1.00  0.00     0.121 C 
HETATM   16  N   UNL     1      40.196 -14.347   1.936  1.00  0.00    -0.207 NA
HETATM   17  C   UNL     1      43.608 -20.305   1.785  1.00  0.00     0.031 A 
HETATM   18  C   UNL     1      44.350 -21.154   2.612  1.00  0.00     0.009 A 
HETATM   19  H   UNL     1      39.275 -14.409   2.378  1.00  0.00     0.149 HD
ENDROOT
BRANCH  15  20
HETATM   20  C   UNL     1      40.507 -12.474   3.590  1.00  0.00    -0.038 A 
HETATM   21  C   UNL     1      41.309 -11.725   4.473  1.00  0.00     0.011 A 
HETATM   22  C   UNL     1      40.763 -10.745   5.306  1.00  0.00     0.037 A 
HETATM   23  C   UNL     1      39.396 -10.488   5.293  1.00  0.00     0.068 A 
HETATM   24  C   UNL     1      38.582 -11.224   4.435  1.00  0.00     0.037 A 
HETATM   25  C   UNL     1      39.130 -12.219   3.607  1.00  0.00     0.011 A 
BRANCH  23  26
HETATM   26  O   UNL     1      38.992  -9.522   6.171  1.00  0.00    -0.356 OA
HETATM   27  C   UNL     1      39.673  -9.455   7.417  1.00  0.00     0.210 C 
ENDBRANCH  23  26
ENDBRANCH  15  20
TORSDOF 2
ENDMDL
MODEL 9
REMARK VINA RESULT:      -7.9      5.573      7.260
REMARK  2 active torsions:
REMARK  status: ('A' for Active; 'I' for Inactive)
REMARK    1  A    between atoms: C_15  and  C_16 
REMARK    2  A    between atoms: C_19  and  O_20 
ROOT
HETATM    1  C   UNL     1      44.351 -22.273   2.155  1.00  0.00     0.048 C 
HETATM    2  C   UNL     1      44.240 -20.877   2.697  1.00  0.00    -0.061 A 
HETATM    3  C   UNL     1      43.631 -19.859   1.939  1.00  0.00     0.021 A 
HETATM    4  C   UNL     1      43.501 -18.563   2.480  1.00  0.00    -0.000 A 
HETATM    5  C   UNL     1      43.997 -18.326   3.768  1.00  0.00     0.043 A 
HETATM    6  N   UNL     1      43.761 -17.001   4.065  1.00  0.00    -0.353 N 
HETATM    7  H   UNL     1      44.026 -16.534   4.924  1.00  0.00     0.166 HD
HETATM    8  C   UNL     1      43.063 -16.429   3.048  1.00  0.00     0.066 A 
HETATM    9  C   UNL     1      42.945 -17.336   2.015  1.00  0.00    -0.017 A 
HETATM   10  C   UNL     1      42.304 -16.957   0.709  1.00  0.00     0.043 C 
HETATM   11  C   UNL     1      42.073 -15.408   0.599  1.00  0.00     0.018 C 
HETATM   12  C   UNL     1      41.481 -14.864   1.916  1.00  0.00     0.065 C 
HETATM   13  C   UNL     1      42.565 -15.102   2.941  1.00  0.00     0.082 C 
HETATM   14  N   UNL     1      43.079 -14.069   3.523  1.00  0.00    -0.203 NA
HETATM   15  C   UNL     1      41.230 -13.384   2.230  1.00  0.00     0.121 C 
HETATM   16  N   UNL     1      42.437 -12.990   2.995  1.00  0.00    -0.207 NA
HETATM   17  C   UNL     1      44.610 -19.319   4.538  1.00  0.00     0.031 A 
HETATM   18  C   UNL     1      44.715 -20.598   3.982  1.00  0.00     0.009 A 
HETATM   19  H   UNL     1      43.079 -12.468   2.393  1.00  0.00     0.149 HD
ENDROOT
BRANCH  15  20
HETATM   20  C   UNL     1      40.769 -12.361   1.217  1.00  0.00    -0.038 A 
HETATM   21  C   UNL     1      39.549 -12.570   0.544  1.00  0.00     0.011 A 
HETATM   22  C   UNL     1      39.130 -11.729  -0.490  1.00  0.00     0.037 A 
HETATM   23  C   UNL     1      39.921 -10.659  -0.894  1.00  0.00     0.068 A 
HETATM   24  C   UNL     1      41.136 -10.440  -0.251  1.00  0.00     0.037 A 
HETATM   25  C   UNL     1      41.563 -11.294   0.781  1.00  0.00     0.011 A 
BRANCH  23  26
HETATM   26  O   UNL     1      39.405  -9.931  -1.930  1.00  0.00    -0.356 OA
HETATM   27  C   UNL     1      39.207 -10.611  -3.163  1.00  0.00     0.210 C 
ENDBRANCH  23  26
ENDBRANCH  15  20
TORSDOF 2
ENDMDL
MODEL 10
REMARK VINA RESULT:      -7.9      5.276      8.408
REMARK  2 active torsions:
REMARK  status: ('A' for Active; 'I' for Inactive)
REMARK    1  A    between atoms: C_15  and  C_16 
REMARK    2  A    between atoms: C_19  and  O_20 
ROOT
HETATM    1  C   UNL     1      43.852 -20.840   7.307  1.00  0.00     0.048 C 
HETATM    2  C   UNL     1      43.806 -19.450   6.741  1.00  0.00    -0.061 A 
HETATM    3  C   UNL     1      43.128 -19.188   5.535  1.00  0.00     0.021 A 
HETATM    4  C   UNL     1      43.062 -17.869   5.039  1.00  0.00    -0.000 A 
HETATM    5  C   UNL     1      43.692 -16.851   5.766  1.00  0.00     0.043 A 
HETATM    6  N   UNL     1      43.496 -15.672   5.082  1.00  0.00    -0.353 N 
HETATM    7  H   UNL     1      43.852 -14.765   5.358  1.00  0.00     0.166 HD
HETATM    8  C   UNL     1      42.698 -15.903   4.005  1.00  0.00     0.066 A 
HETATM    9  C   UNL     1      42.468 -17.259   3.897  1.00  0.00    -0.017 A 
HETATM   10  C   UNL     1      41.697 -17.833   2.740  1.00  0.00     0.043 C 
HETATM   11  C   UNL     1      41.464 -16.770   1.608  1.00  0.00     0.018 C 
HETATM   12  C   UNL     1      41.016 -15.428   2.222  1.00  0.00     0.065 C 
HETATM   13  C   UNL     1      42.200 -14.979   3.046  1.00  0.00     0.082 C 
HETATM   14  N   UNL     1      42.778 -13.872   2.715  1.00  0.00    -0.203 NA
HETATM   15  C   UNL     1      40.808 -14.122   1.444  1.00  0.00     0.121 C 
HETATM   16  N   UNL     1      42.091 -13.405   1.636  1.00  0.00    -0.207 NA
HETATM   17  C   UNL     1      44.376 -17.088   6.963  1.00  0.00     0.031 A 
HETATM   18  C   UNL     1      44.414 -18.402   7.439  1.00  0.00     0.009 A 
HETATM   19  H   UNL     1      42.669 -13.489   0.796  1.00  0.00     0.149 HD
ENDROOT
BRANCH  15  20
HETATM   20  C   UNL     1      40.250 -14.043   0.041  1.00  0.00    -0.038 A 
HETATM   21  C   UNL     1      38.887 -13.731  -0.134  1.00  0.00     0.011 A 
HETATM   22  C   UNL     1      38.284 -13.765  -1.393  1.00  0.00     0.037 A 
HETATM   23  C   UNL     1      39.018 -14.124  -2.518  1.00  0.00     0.068 A 
HETATM   24  C   UNL     1      40.364 -14.448  -2.368  1.00  0.00     0.037 A 
HETATM   25  C   UNL     1      40.968 -14.426  -1.098  1.00  0.00     0.011 A 
BRANCH  23  26
HETATM   26  O   UNL     1      38.302 -14.139  -3.682  1.00  0.00    -0.356 OA
HETATM   27  C   UNL     1      37.243 -15.083  -3.778  1.00  0.00     0.210 C 
ENDBRANCH  23  26
ENDBRANCH  15  20
TORSDOF 2
ENDMDL
