MODEL 1
REMARK VINA RESULT:      -8.7      0.000      0.000
REMARK  9 active torsions:
REMARK  status: ('A' for Active; 'I' for Inactive)
REMARK    1  A    between atoms: S_2  and  C_3 
REMARK    2  A    between atoms: C_3  and  C_4 
REMARK    3  A    between atoms: C_5  and  C_6 
REMARK    4  A    between atoms: C_6  and  O_7 
REMARK    5  A    between atoms: O_7  and  C_8 
REMARK    6  A    between atoms: C_8  and  C_9 
REMARK       I    between atoms: C_9  and  N_10 
REMARK    7  A    between atoms: N_10  and  C_11 
REMARK    8  A    between atoms: C_12  and  C_13 
REMARK       I    between atoms: C_13  and  N_14 
REMARK    9  A    between atoms: N_14  and  C_15 
ROOT
HETATM    1  C   UNL     1      44.637 -13.677   7.038  1.00  0.00     0.246 C 
HETATM    2  N   UNL     1      43.768 -12.934   7.819  1.00  0.00    -0.324 N 
HETATM    3  O   UNL     1      45.852 -13.520   6.991  1.00  0.00    -0.271 OA
HETATM    4  H   UNL     1      42.785 -12.952   7.557  1.00  0.00     0.169 HD
ENDROOT
BRANCH   1   5
HETATM    5  C   UNL     1      43.914 -14.716   6.177  1.00  0.00     0.282 C 
BRANCH   5   6
HETATM    6  O   UNL     1      44.368 -16.034   6.486  1.00  0.00    -0.307 OA
BRANCH   6   7
HETATM    7  C   UNL     1      43.366 -16.963   6.529  1.00  0.00     0.318 C 
HETATM    8  O   UNL     1      42.484 -16.981   7.379  1.00  0.00    -0.257 OA
BRANCH   7   9
HETATM    9  C   UNL     1      43.455 -17.871   5.409  1.00  0.00     0.159 A 
HETATM   10  C   UNL     1      42.858 -17.812   4.152  1.00  0.00     0.004 A 
HETATM   11  C   UNL     1      43.309 -18.968   3.444  1.00  0.00     0.008 A 
HETATM   12  C   UNL     1      44.150 -19.649   4.314  1.00  0.00     0.087 A 
HETATM   13  C   UNL     1      43.095 -19.507   2.161  1.00  0.00     0.015 A 
HETATM   14  O   UNL     1      44.243 -18.988   5.498  1.00  0.00    -0.303 OA
HETATM   15  C   UNL     1      44.802 -20.839   3.999  1.00  0.00     0.038 A 
HETATM   16  C   UNL     1      44.578 -21.357   2.720  1.00  0.00     0.003 A 
HETATM   17  C   UNL     1      43.739 -20.704   1.814  1.00  0.00     0.001 A 
BRANCH  10  18
HETATM   18  C   UNL     1      41.955 -16.743   3.640  1.00  0.00     0.116 C 
BRANCH  18  19
HETATM   19  S   UNL     1      42.871 -15.576   2.590  1.00  0.00    -0.169 SA
HETATM   20  C   UNL     1      42.151 -16.039   0.997  1.00  0.00     0.090 C 
ENDBRANCH  18  19
ENDBRANCH  10  18
ENDBRANCH   7   9
ENDBRANCH   6   7
ENDBRANCH   5   6
ENDBRANCH   1   5
BRANCH   2  21
HETATM   21  C   UNL     1      44.122 -12.078   8.889  1.00  0.00     0.050 A 
HETATM   22  C   UNL     1      43.244 -11.049   9.288  1.00  0.00     0.058 A 
HETATM   23  C   UNL     1      43.506 -10.285  10.434  1.00  0.00     0.019 A 
HETATM   24  C   UNL     1      44.664 -10.516  11.171  1.00  0.00     0.001 A 
HETATM   25  C   UNL     1      45.559 -11.504  10.764  1.00  0.00     0.002 A 
HETATM   26  C   UNL     1      45.291 -12.280   9.631  1.00  0.00     0.030 A 
BRANCH  22  27
HETATM   27  C   UNL     1      42.060 -10.671   8.476  1.00  0.00     0.254 C 
HETATM   28  N   UNL     1      40.860 -10.728   9.163  1.00  0.00    -0.352 N 
HETATM   29  H   UNL     1      40.864 -11.148  10.088  1.00  0.00     0.163 HD
HETATM   30  O   UNL     1      42.184 -10.363   7.298  1.00  0.00    -0.268 OA
BRANCH  28  31
HETATM   31  C   UNL     1      39.596 -10.417   8.576  1.00  0.00     0.084 A 
HETATM   32  C   UNL     1      38.396 -10.171   9.447  1.00  0.00     0.027 A 
HETATM   33  C   UNL     1      39.032  -9.029   8.713  1.00  0.00     0.027 A 
ENDBRANCH  28  31
ENDBRANCH  22  27
ENDBRANCH   2  21
TORSDOF 9
ENDMDL
MODEL 2
REMARK VINA RESULT:      -8.7      0.920      1.180
REMARK  9 active torsions:
REMARK  status: ('A' for Active; 'I' for Inactive)
REMARK    1  A    between atoms: S_2  and  C_3 
REMARK    2  A    between atoms: C_3  and  C_4 
REMARK    3  A    between atoms: C_5  and  C_6 
REMARK    4  A    between atoms: C_6  and  O_7 
REMARK    5  A    between atoms: O_7  and  C_8 
REMARK    6  A    between atoms: C_8  and  C_9 
REMARK       I    between atoms: C_9  and  N_10 
REMARK    7  A    between atoms: N_10  and  C_11 
REMARK    8  A    between atoms: C_12  and  C_13 
REMARK       I    between atoms: C_13  and  N_14 
REMARK    9  A    between atoms: N_14  and  C_15 
ROOT
HETATM    1  C   UNL     1      44.755 -13.500   7.265  1.00  0.00     0.246 C 
HETATM    2  N   UNL     1      43.772 -12.793   7.936  1.00  0.00    -0.324 N 
HETATM    3  O   UNL     1      45.960 -13.289   7.352  1.00  0.00    -0.271 OA
HETATM    4  H   UNL     1      42.827 -12.857   7.566  1.00  0.00     0.169 HD
ENDROOT
BRANCH   1   5
HETATM    5  C   UNL     1      44.180 -14.575   6.340  1.00  0.00     0.282 C 
BRANCH   5   6
HETATM    6  O   UNL     1      44.653 -15.870   6.713  1.00  0.00    -0.307 OA
BRANCH   6   7
HETATM    7  C   UNL     1      43.663 -16.811   6.798  1.00  0.00     0.318 C 
HETATM    8  O   UNL     1      42.843 -16.863   7.706  1.00  0.00    -0.257 OA
BRANCH   7   9
HETATM    9  C   UNL     1      43.682 -17.685   5.647  1.00  0.00     0.159 A 
HETATM   10  C   UNL     1      42.975 -17.611   4.450  1.00  0.00     0.004 A 
HETATM   11  C   UNL     1      43.397 -18.732   3.670  1.00  0.00     0.008 A 
HETATM   12  C   UNL     1      44.332 -19.408   4.443  1.00  0.00     0.087 A 
HETATM   13  C   UNL     1      43.088 -19.243   2.395  1.00  0.00     0.015 A 
HETATM   14  O   UNL     1      44.508 -18.777   5.634  1.00  0.00    -0.303 OA
HETATM   15  C   UNL     1      44.990 -20.567   4.037  1.00  0.00     0.038 A 
HETATM   16  C   UNL     1      44.670 -21.056   2.767  1.00  0.00     0.003 A 
HETATM   17  C   UNL     1      43.735 -20.407   1.958  1.00  0.00     0.001 A 
BRANCH  10  18
HETATM   18  C   UNL     1      41.997 -16.559   4.051  1.00  0.00     0.116 C 
BRANCH  18  19
HETATM   19  S   UNL     1      42.788 -15.320   2.981  1.00  0.00    -0.169 SA
HETATM   20  C   UNL     1      42.056 -15.830   1.408  1.00  0.00     0.090 C 
ENDBRANCH  18  19
ENDBRANCH  10  18
ENDBRANCH   7   9
ENDBRANCH   6   7
ENDBRANCH   5   6
ENDBRANCH   1   5
BRANCH   2  21
HETATM   21  C   UNL     1      43.966 -11.916   9.030  1.00  0.00     0.050 A 
HETATM   22  C   UNL     1      43.048 -10.872   9.267  1.00  0.00     0.058 A 
HETATM   23  C   UNL     1      43.138 -10.085  10.423  1.00  0.00     0.019 A 
HETATM   24  C   UNL     1      44.166 -10.308  11.335  1.00  0.00     0.001 A 
HETATM   25  C   UNL     1      45.102 -11.311  11.092  1.00  0.00     0.002 A 
HETATM   26  C   UNL     1      45.004 -12.110   9.948  1.00  0.00     0.030 A 
BRANCH  22  27
HETATM   27  C   UNL     1      42.008 -10.504   8.273  1.00  0.00     0.254 C 
HETATM   28  N   UNL     1      40.976 -11.419   8.167  1.00  0.00    -0.352 N 
HETATM   29  H   UNL     1      41.080 -12.307   8.650  1.00  0.00     0.163 HD
HETATM   30  O   UNL     1      42.111  -9.478   7.614  1.00  0.00    -0.268 OA
BRANCH  28  31
HETATM   31  C   UNL     1      39.876 -11.272   7.269  1.00  0.00     0.084 A 
HETATM   32  C   UNL     1      40.052 -11.552   5.802  1.00  0.00     0.027 A 
HETATM   33  C   UNL     1      39.250 -12.493   6.651  1.00  0.00     0.027 A 
ENDBRANCH  28  31
ENDBRANCH  22  27
ENDBRANCH   2  21
TORSDOF 9
ENDMDL
MODEL 3
REMARK VINA RESULT:      -8.5      5.111      8.910
REMARK  9 active torsions:
REMARK  status: ('A' for Active; 'I' for Inactive)
REMARK    1  A    between atoms: S_2  and  C_3 
REMARK    2  A    between atoms: C_3  and  C_4 
REMARK    3  A    between atoms: C_5  and  C_6 
REMARK    4  A    between atoms: C_6  and  O_7 
REMARK    5  A    between atoms: O_7  and  C_8 
REMARK    6  A    between atoms: C_8  and  C_9 
REMARK       I    between atoms: C_9  and  N_10 
REMARK    7  A    between atoms: N_10  and  C_11 
REMARK    8  A    between atoms: C_12  and  C_13 
REMARK       I    between atoms: C_13  and  N_14 
REMARK    9  A    between atoms: N_14  and  C_15 
ROOT
HETATM    1  C   UNL     1      40.939 -15.874   3.467  1.00  0.00     0.246 C 
HETATM    2  N   UNL     1      41.120 -17.065   4.150  1.00  0.00    -0.324 N 
HETATM    3  O   UNL     1      41.362 -14.782   3.830  1.00  0.00    -0.271 OA
HETATM    4  H   UNL     1      40.489 -17.828   3.918  1.00  0.00     0.169 HD
ENDROOT
BRANCH   1   5
HETATM    5  C   UNL     1      40.096 -16.043   2.201  1.00  0.00     0.282 C 
BRANCH   5   6
HETATM    6  O   UNL     1      40.410 -15.029   1.246  1.00  0.00    -0.307 OA
BRANCH   6   7
HETATM    7  C   UNL     1      41.309 -15.429   0.296  1.00  0.00     0.318 C 
HETATM    8  O   UNL     1      41.760 -16.566   0.216  1.00  0.00    -0.257 OA
BRANCH   7   9
HETATM    9  C   UNL     1      41.601 -14.356  -0.626  1.00  0.00     0.159 A 
HETATM   10  C   UNL     1      41.402 -14.273  -2.002  1.00  0.00     0.004 A 
HETATM   11  C   UNL     1      41.861 -12.976  -2.391  1.00  0.00     0.008 A 
HETATM   12  C   UNL     1      42.303 -12.359  -1.228  1.00  0.00     0.087 A 
HETATM   13  C   UNL     1      41.947 -12.262  -3.601  1.00  0.00     0.015 A 
HETATM   14  O   UNL     1      42.143 -13.187  -0.162  1.00  0.00    -0.303 OA
HETATM   15  C   UNL     1      42.829 -11.070  -1.178  1.00  0.00     0.038 A 
HETATM   16  C   UNL     1      42.903 -10.377  -2.390  1.00  0.00     0.003 A 
HETATM   17  C   UNL     1      42.471 -10.961  -3.583  1.00  0.00     0.001 A 
BRANCH  10  18
HETATM   18  C   UNL     1      40.806 -15.314  -2.885  1.00  0.00     0.116 C 
BRANCH  18  19
HETATM   19  S   UNL     1      39.116 -14.853  -3.372  1.00  0.00    -0.169 SA
HETATM   20  C   UNL     1      38.800 -16.205  -4.530  1.00  0.00     0.090 C 
ENDBRANCH  18  19
ENDBRANCH  10  18
ENDBRANCH   7   9
ENDBRANCH   6   7
ENDBRANCH   5   6
ENDBRANCH   1   5
BRANCH   2  21
HETATM   21  C   UNL     1      42.036 -17.299   5.204  1.00  0.00     0.050 A 
HETATM   22  C   UNL     1      43.340 -17.750   4.916  1.00  0.00     0.058 A 
HETATM   23  C   UNL     1      44.306 -17.849   5.927  1.00  0.00     0.019 A 
HETATM   24  C   UNL     1      43.969 -17.533   7.241  1.00  0.00     0.001 A 
HETATM   25  C   UNL     1      42.672 -17.124   7.544  1.00  0.00     0.002 A 
HETATM   26  C   UNL     1      41.711 -17.007   6.533  1.00  0.00     0.030 A 
BRANCH  22  27
HETATM   27  C   UNL     1      43.725 -18.220   3.561  1.00  0.00     0.254 C 
HETATM   28  N   UNL     1      43.682 -19.594   3.406  1.00  0.00    -0.352 N 
HETATM   29  H   UNL     1      43.540 -20.160   4.237  1.00  0.00     0.163 HD
HETATM   30  O   UNL     1      44.063 -17.423   2.697  1.00  0.00    -0.268 OA
BRANCH  28  31
HETATM   31  C   UNL     1      44.021 -20.265   2.192  1.00  0.00     0.084 A 
HETATM   32  C   UNL     1      44.657 -21.627   2.230  1.00  0.00     0.027 A 
HETATM   33  C   UNL     1      43.238 -21.478   1.766  1.00  0.00     0.027 A 
ENDBRANCH  28  31
ENDBRANCH  22  27
ENDBRANCH   2  21
TORSDOF 9
ENDMDL
MODEL 4
REMARK VINA RESULT:      -8.5      4.941      7.845
REMARK  9 active torsions:
REMARK  status: ('A' for Active; 'I' for Inactive)
REMARK    1  A    between atoms: S_2  and  C_3 
REMARK    2  A    between atoms: C_3  and  C_4 
REMARK    3  A    between atoms: C_5  and  C_6 
REMARK    4  A    between atoms: C_6  and  O_7 
REMARK    5  A    between atoms: O_7  and  C_8 
REMARK    6  A    between atoms: C_8  and  C_9 
REMARK       I    between atoms: C_9  and  N_10 
REMARK    7  A    between atoms: N_10  and  C_11 
REMARK    8  A    between atoms: C_12  and  C_13 
REMARK       I    between atoms: C_13  and  N_14 
REMARK    9  A    between atoms: N_14  and  C_15 
ROOT
HETATM    1  C   UNL     1      40.297 -15.499   2.204  1.00  0.00     0.246 C 
HETATM    2  N   UNL     1      40.299 -14.459   1.289  1.00  0.00    -0.324 N 
HETATM    3  O   UNL     1      39.898 -16.636   1.979  1.00  0.00    -0.271 OA
HETATM    4  H   UNL     1      40.370 -13.517   1.665  1.00  0.00     0.169 HD
ENDROOT
BRANCH   1   5
HETATM    5  C   UNL     1      40.813 -15.073   3.581  1.00  0.00     0.282 C 
BRANCH   5   6
HETATM    6  O   UNL     1      41.380 -16.185   4.275  1.00  0.00    -0.307 OA
BRANCH   6   7
HETATM    7  C   UNL     1      42.746 -16.230   4.215  1.00  0.00     0.318 C 
HETATM    8  O   UNL     1      43.473 -15.270   4.440  1.00  0.00    -0.257 OA
BRANCH   7   9
HETATM    9  C   UNL     1      43.207 -17.566   3.916  1.00  0.00     0.159 A 
HETATM   10  C   UNL     1      44.052 -18.408   4.633  1.00  0.00     0.004 A 
HETATM   11  C   UNL     1      44.150 -19.614   3.873  1.00  0.00     0.008 A 
HETATM   12  C   UNL     1      43.356 -19.426   2.750  1.00  0.00     0.087 A 
HETATM   13  C   UNL     1      44.823 -20.842   4.018  1.00  0.00     0.015 A 
HETATM   14  O   UNL     1      42.783 -18.194   2.775  1.00  0.00    -0.303 OA
HETATM   15  C   UNL     1      43.179 -20.379   1.749  1.00  0.00     0.038 A 
HETATM   16  C   UNL     1      43.855 -21.592   1.914  1.00  0.00     0.003 A 
HETATM   17  C   UNL     1      44.664 -21.822   3.028  1.00  0.00     0.001 A 
BRANCH  10  18
HETATM   18  C   UNL     1      44.702 -18.119   5.943  1.00  0.00     0.116 C 
BRANCH  18  19
HETATM   19  S   UNL     1      43.725 -18.812   7.311  1.00  0.00    -0.169 SA
HETATM   20  C   UNL     1      43.311 -17.262   8.146  1.00  0.00     0.090 C 
ENDBRANCH  18  19
ENDBRANCH  10  18
ENDBRANCH   7   9
ENDBRANCH   6   7
ENDBRANCH   5   6
ENDBRANCH   1   5
BRANCH   2  21
HETATM   21  C   UNL     1      40.121 -14.571  -0.110  1.00  0.00     0.050 A 
HETATM   22  C   UNL     1      38.947 -14.075  -0.713  1.00  0.00     0.058 A 
HETATM   23  C   UNL     1      38.813 -14.043  -2.108  1.00  0.00     0.019 A 
HETATM   24  C   UNL     1      39.835 -14.539  -2.914  1.00  0.00     0.001 A 
HETATM   25  C   UNL     1      40.983 -15.068  -2.329  1.00  0.00     0.002 A 
HETATM   26  C   UNL     1      41.127 -15.084  -0.937  1.00  0.00     0.030 A 
BRANCH  22  27
HETATM   27  C   UNL     1      37.774 -13.649   0.092  1.00  0.00     0.254 C 
HETATM   28  N   UNL     1      37.373 -12.345  -0.138  1.00  0.00    -0.352 N 
HETATM   29  H   UNL     1      37.976 -11.758  -0.706  1.00  0.00     0.163 HD
HETATM   30  O   UNL     1      37.254 -14.416   0.891  1.00  0.00    -0.268 OA
BRANCH  28  31
HETATM   31  C   UNL     1      36.275 -11.725   0.532  1.00  0.00     0.084 A 
HETATM   32  C   UNL     1      36.188 -10.226   0.618  1.00  0.00     0.027 A 
HETATM   33  C   UNL     1      35.239 -10.980  -0.266  1.00  0.00     0.027 A 
ENDBRANCH  28  31
ENDBRANCH  22  27
ENDBRANCH   2  21
TORSDOF 9
ENDMDL
MODEL 5
REMARK VINA RESULT:      -8.4      4.397      6.752
REMARK  9 active torsions:
REMARK  status: ('A' for Active; 'I' for Inactive)
REMARK    1  A    between atoms: S_2  and  C_3 
REMARK    2  A    between atoms: C_3  and  C_4 
REMARK    3  A    between atoms: C_5  and  C_6 
REMARK    4  A    between atoms: C_6  and  O_7 
REMARK    5  A    between atoms: O_7  and  C_8 
REMARK    6  A    between atoms: C_8  and  C_9 
REMARK       I    between atoms: C_9  and  N_10 
REMARK    7  A    between atoms: N_10  and  C_11 
REMARK    8  A    between atoms: C_12  and  C_13 
REMARK       I    between atoms: C_13  and  N_14 
REMARK    9  A    between atoms: N_14  and  C_15 
ROOT
HETATM    1  C   UNL     1      40.496 -16.074   1.181  1.00  0.00     0.246 C 
HETATM    2  N   UNL     1      39.370 -15.671   1.881  1.00  0.00    -0.324 N 
HETATM    3  O   UNL     1      40.944 -15.516   0.186  1.00  0.00    -0.271 OA
HETATM    4  H   UNL     1      38.935 -16.362   2.488  1.00  0.00     0.169 HD
ENDROOT
BRANCH   1   5
HETATM    5  C   UNL     1      41.122 -17.347   1.756  1.00  0.00     0.282 C 
BRANCH   5   6
HETATM    6  O   UNL     1      42.288 -17.714   1.017  1.00  0.00    -0.307 OA
BRANCH   6   7
HETATM    7  C   UNL     1      43.457 -17.505   1.698  1.00  0.00     0.318 C 
HETATM    8  O   UNL     1      44.094 -16.460   1.658  1.00  0.00    -0.257 OA
BRANCH   7   9
HETATM    9  C   UNL     1      43.795 -18.651   2.509  1.00  0.00     0.159 A 
HETATM   10  C   UNL     1      43.984 -18.756   3.884  1.00  0.00     0.004 A 
HETATM   11  C   UNL     1      44.288 -20.129   4.140  1.00  0.00     0.008 A 
HETATM   12  C   UNL     1      44.259 -20.765   2.906  1.00  0.00     0.087 A 
HETATM   13  C   UNL     1      44.581 -20.897   5.282  1.00  0.00     0.015 A 
HETATM   14  O   UNL     1      43.958 -19.877   1.922  1.00  0.00    -0.303 OA
HETATM   15  C   UNL     1      44.502 -22.124   2.722  1.00  0.00     0.038 A 
HETATM   16  C   UNL     1      44.789 -22.870   3.870  1.00  0.00     0.003 A 
HETATM   17  C   UNL     1      44.830 -22.269   5.130  1.00  0.00     0.001 A 
BRANCH  10  18
HETATM   18  C   UNL     1      43.867 -17.662   4.890  1.00  0.00     0.116 C 
BRANCH  18  19
HETATM   19  S   UNL     1      42.225 -17.682   5.670  1.00  0.00    -0.169 SA
HETATM   20  C   UNL     1      42.752 -17.491   7.390  1.00  0.00     0.090 C 
ENDBRANCH  18  19
ENDBRANCH  10  18
ENDBRANCH   7   9
ENDBRANCH   6   7
ENDBRANCH   5   6
ENDBRANCH   1   5
BRANCH   2  21
HETATM   21  C   UNL     1      38.711 -14.424   1.767  1.00  0.00     0.050 A 
HETATM   22  C   UNL     1      39.157 -13.320   2.521  1.00  0.00     0.058 A 
HETATM   23  C   UNL     1      38.614 -12.044   2.318  1.00  0.00     0.019 A 
HETATM   24  C   UNL     1      37.596 -11.865   1.384  1.00  0.00     0.001 A 
HETATM   25  C   UNL     1      37.120 -12.956   0.660  1.00  0.00     0.002 A 
HETATM   26  C   UNL     1      37.673 -14.227   0.849  1.00  0.00     0.030 A 
BRANCH  22  27
HETATM   27  C   UNL     1      40.148 -13.469   3.617  1.00  0.00     0.254 C 
HETATM   28  N   UNL     1      41.366 -12.864   3.365  1.00  0.00    -0.352 N 
HETATM   29  H   UNL     1      41.532 -12.506   2.429  1.00  0.00     0.163 HD
HETATM   30  O   UNL     1      39.870 -14.100   4.627  1.00  0.00    -0.268 OA
BRANCH  28  31
HETATM   31  C   UNL     1      42.467 -12.890   4.274  1.00  0.00     0.084 A 
HETATM   32  C   UNL     1      42.685 -14.080   5.167  1.00  0.00     0.027 A 
HETATM   33  C   UNL     1      43.620 -13.824   4.023  1.00  0.00     0.027 A 
ENDBRANCH  28  31
ENDBRANCH  22  27
ENDBRANCH   2  21
TORSDOF 9
ENDMDL
MODEL 6
REMARK VINA RESULT:      -8.3      5.066      9.271
REMARK  9 active torsions:
REMARK  status: ('A' for Active; 'I' for Inactive)
REMARK    1  A    between atoms: S_2  and  C_3 
REMARK    2  A    between atoms: C_3  and  C_4 
REMARK    3  A    between atoms: C_5  and  C_6 
REMARK    4  A    between atoms: C_6  and  O_7 
REMARK    5  A    between atoms: O_7  and  C_8 
REMARK    6  A    between atoms: C_8  and  C_9 
REMARK       I    between atoms: C_9  and  N_10 
REMARK    7  A    between atoms: N_10  and  C_11 
REMARK    8  A    between atoms: C_12  and  C_13 
REMARK       I    between atoms: C_13  and  N_14 
REMARK    9  A    between atoms: N_14  and  C_15 
ROOT
HETATM    1  C   UNL     1      43.556 -17.347   1.902  1.00  0.00     0.246 C 
HETATM    2  N   UNL     1      43.122 -18.376   2.720  1.00  0.00    -0.324 N 
HETATM    3  O   UNL     1      44.643 -17.305   1.337  1.00  0.00    -0.271 OA
HETATM    4  H   UNL     1      42.353 -18.168   3.353  1.00  0.00     0.169 HD
ENDROOT
BRANCH   1   5
HETATM    5  C   UNL     1      42.540 -16.206   1.801  1.00  0.00     0.282 C 
BRANCH   5   6
HETATM    6  O   UNL     1      42.133 -16.009   0.447  1.00  0.00    -0.307 OA
BRANCH   6   7
HETATM    7  C   UNL     1      41.139 -15.081   0.302  1.00  0.00     0.318 C 
HETATM    8  O   UNL     1      40.072 -15.122   0.902  1.00  0.00    -0.257 OA
BRANCH   7   9
HETATM    9  C   UNL     1      41.543 -14.026  -0.597  1.00  0.00     0.159 A 
HETATM   10  C   UNL     1      41.493 -13.960  -1.987  1.00  0.00     0.004 A 
HETATM   11  C   UNL     1      42.011 -12.675  -2.342  1.00  0.00     0.008 A 
HETATM   12  C   UNL     1      42.337 -12.048  -1.147  1.00  0.00     0.087 A 
HETATM   13  C   UNL     1      42.236 -11.981  -3.546  1.00  0.00     0.015 A 
HETATM   14  O   UNL     1      42.052 -12.858  -0.093  1.00  0.00    -0.303 OA
HETATM   15  C   UNL     1      42.875 -10.766  -1.059  1.00  0.00     0.038 A 
HETATM   16  C   UNL     1      43.089 -10.093  -2.265  1.00  0.00     0.003 A 
HETATM   17  C   UNL     1      42.776 -10.688  -3.489  1.00  0.00     0.001 A 
BRANCH  10  18
HETATM   18  C   UNL     1      40.978 -15.005  -2.915  1.00  0.00     0.116 C 
BRANCH  18  19
HETATM   19  S   UNL     1      39.266 -14.639  -3.408  1.00  0.00    -0.169 SA
HETATM   20  C   UNL     1      38.908 -16.185  -4.274  1.00  0.00     0.090 C 
ENDBRANCH  18  19
ENDBRANCH  10  18
ENDBRANCH   7   9
ENDBRANCH   6   7
ENDBRANCH   5   6
ENDBRANCH   1   5
BRANCH   2  21
HETATM   21  C   UNL     1      43.700 -19.664   2.829  1.00  0.00     0.050 A 
HETATM   22  C   UNL     1      44.234 -20.094   4.061  1.00  0.00     0.058 A 
HETATM   23  C   UNL     1      44.679 -21.412   4.231  1.00  0.00     0.019 A 
HETATM   24  C   UNL     1      44.627 -22.304   3.163  1.00  0.00     0.001 A 
HETATM   25  C   UNL     1      44.138 -21.879   1.929  1.00  0.00     0.002 A 
HETATM   26  C   UNL     1      43.677 -20.569   1.762  1.00  0.00     0.030 A 
BRANCH  22  27
HETATM   27  C   UNL     1      44.431 -19.159   5.198  1.00  0.00     0.254 C 
HETATM   28  N   UNL     1      43.278 -18.883   5.911  1.00  0.00    -0.352 N 
HETATM   29  H   UNL     1      42.396 -19.212   5.529  1.00  0.00     0.163 HD
HETATM   30  O   UNL     1      45.534 -18.684   5.431  1.00  0.00    -0.268 OA
BRANCH  28  31
HETATM   31  C   UNL     1      43.233 -18.004   7.036  1.00  0.00     0.084 A 
HETATM   32  C   UNL     1      43.432 -16.525   6.850  1.00  0.00     0.027 A 
HETATM   33  C   UNL     1      42.074 -17.059   7.197  1.00  0.00     0.027 A 
ENDBRANCH  28  31
ENDBRANCH  22  27
ENDBRANCH   2  21
TORSDOF 9
ENDMDL
MODEL 7
REMARK VINA RESULT:      -8.3      4.785      8.607
REMARK  9 active torsions:
REMARK  status: ('A' for Active; 'I' for Inactive)
REMARK    1  A    between atoms: S_2  and  C_3 
REMARK    2  A    between atoms: C_3  and  C_4 
REMARK    3  A    between atoms: C_5  and  C_6 
REMARK    4  A    between atoms: C_6  and  O_7 
REMARK    5  A    between atoms: O_7  and  C_8 
REMARK    6  A    between atoms: C_8  and  C_9 
REMARK       I    between atoms: C_9  and  N_10 
REMARK    7  A    between atoms: N_10  and  C_11 
REMARK    8  A    between atoms: C_12  and  C_13 
REMARK       I    between atoms: C_13  and  N_14 
REMARK    9  A    between atoms: N_14  and  C_15 
ROOT
HETATM    1  C   UNL     1      41.765 -15.528   3.706  1.00  0.00     0.246 C 
HETATM    2  N   UNL     1      41.723 -16.816   4.214  1.00  0.00    -0.324 N 
HETATM    3  O   UNL     1      42.213 -14.551   4.295  1.00  0.00    -0.271 OA
HETATM    4  H   UNL     1      41.077 -17.464   3.771  1.00  0.00     0.169 HD
ENDROOT
BRANCH   1   5
HETATM    5  C   UNL     1      41.137 -15.424   2.314  1.00  0.00     0.282 C 
BRANCH   5   6
HETATM    6  O   UNL     1      42.123 -15.082   1.339  1.00  0.00    -0.307 OA
BRANCH   6   7
HETATM    7  C   UNL     1      41.837 -13.936   0.648  1.00  0.00     0.318 C 
HETATM    8  O   UNL     1      42.331 -12.844   0.900  1.00  0.00    -0.257 OA
BRANCH   7   9
HETATM    9  C   UNL     1      40.930 -14.203  -0.444  1.00  0.00     0.159 A 
HETATM   10  C   UNL     1      39.735 -13.581  -0.794  1.00  0.00     0.004 A 
HETATM   11  C   UNL     1      39.270 -14.248  -1.970  1.00  0.00     0.008 A 
HETATM   12  C   UNL     1      40.214 -15.225  -2.257  1.00  0.00     0.087 A 
HETATM   13  C   UNL     1      38.155 -14.125  -2.820  1.00  0.00     0.015 A 
HETATM   14  O   UNL     1      41.218 -15.198  -1.341  1.00  0.00    -0.303 OA
HETATM   15  C   UNL     1      40.130 -16.099  -3.338  1.00  0.00     0.038 A 
HETATM   16  C   UNL     1      39.016 -15.959  -4.171  1.00  0.00     0.003 A 
HETATM   17  C   UNL     1      38.043 -14.990  -3.918  1.00  0.00     0.001 A 
BRANCH  10  18
HETATM   18  C   UNL     1      39.085 -12.434  -0.099  1.00  0.00     0.116 C 
BRANCH  18  19
HETATM   19  S   UNL     1      38.102 -13.014   1.316  1.00  0.00    -0.169 SA
HETATM   20  C   UNL     1      39.086 -12.272   2.639  1.00  0.00     0.090 C 
ENDBRANCH  18  19
ENDBRANCH  10  18
ENDBRANCH   7   9
ENDBRANCH   6   7
ENDBRANCH   5   6
ENDBRANCH   1   5
BRANCH   2  21
HETATM   21  C   UNL     1      42.423 -17.295   5.348  1.00  0.00     0.050 A 
HETATM   22  C   UNL     1      43.599 -18.053   5.179  1.00  0.00     0.058 A 
HETATM   23  C   UNL     1      44.386 -18.414   6.282  1.00  0.00     0.019 A 
HETATM   24  C   UNL     1      43.987 -18.051   7.567  1.00  0.00     0.001 A 
HETATM   25  C   UNL     1      42.805 -17.336   7.748  1.00  0.00     0.002 A 
HETATM   26  C   UNL     1      42.028 -16.959   6.647  1.00  0.00     0.030 A 
BRANCH  22  27
HETATM   27  C   UNL     1      44.011 -18.577   3.852  1.00  0.00     0.254 C 
HETATM   28  N   UNL     1      44.215 -19.945   3.821  1.00  0.00    -0.352 N 
HETATM   29  H   UNL     1      44.210 -20.444   4.706  1.00  0.00     0.163 HD
HETATM   30  O   UNL     1      44.164 -17.820   2.903  1.00  0.00    -0.268 OA
BRANCH  28  31
HETATM   31  C   UNL     1      44.624 -20.658   2.654  1.00  0.00     0.084 A 
HETATM   32  C   UNL     1      44.415 -22.145   2.562  1.00  0.00     0.027 A 
HETATM   33  C   UNL     1      43.585 -21.220   1.722  1.00  0.00     0.027 A 
ENDBRANCH  28  31
ENDBRANCH  22  27
ENDBRANCH   2  21
TORSDOF 9
ENDMDL
MODEL 8
REMARK VINA RESULT:      -8.3      2.184      4.559
REMARK  9 active torsions:
REMARK  status: ('A' for Active; 'I' for Inactive)
REMARK    1  A    between atoms: S_2  and  C_3 
REMARK    2  A    between atoms: C_3  and  C_4 
REMARK    3  A    between atoms: C_5  and  C_6 
REMARK    4  A    between atoms: C_6  and  O_7 
REMARK    5  A    between atoms: O_7  and  C_8 
REMARK    6  A    between atoms: C_8  and  C_9 
REMARK       I    between atoms: C_9  and  N_10 
REMARK    7  A    between atoms: N_10  and  C_11 
REMARK    8  A    between atoms: C_12  and  C_13 
REMARK       I    between atoms: C_13  and  N_14 
REMARK    9  A    between atoms: N_14  and  C_15 
ROOT
HETATM    1  C   UNL     1      39.644 -12.122   6.607  1.00  0.00     0.246 C 
HETATM    2  N   UNL     1      39.867 -12.100   7.974  1.00  0.00    -0.324 N 
HETATM    3  O   UNL     1      39.101 -11.228   5.967  1.00  0.00    -0.271 OA
HETATM    4  H   UNL     1      40.046 -12.995   8.424  1.00  0.00     0.169 HD
ENDROOT
BRANCH   1   5
HETATM    5  C   UNL     1      40.112 -13.425   5.955  1.00  0.00     0.282 C 
BRANCH   5   6
HETATM    6  O   UNL     1      41.255 -13.196   5.130  1.00  0.00    -0.307 OA
BRANCH   6   7
HETATM    7  C   UNL     1      42.394 -13.795   5.593  1.00  0.00     0.318 C 
HETATM    8  O   UNL     1      43.067 -13.362   6.520  1.00  0.00    -0.257 OA
BRANCH   7   9
HETATM    9  C   UNL     1      42.653 -15.028   4.886  1.00  0.00     0.159 A 
HETATM   10  C   UNL     1      42.491 -16.350   5.293  1.00  0.00     0.004 A 
HETATM   11  C   UNL     1      42.890 -17.158   4.183  1.00  0.00     0.008 A 
HETATM   12  C   UNL     1      43.263 -16.275   3.178  1.00  0.00     0.087 A 
HETATM   13  C   UNL     1      42.972 -18.539   3.925  1.00  0.00     0.015 A 
HETATM   14  O   UNL     1      43.117 -14.991   3.598  1.00  0.00    -0.303 OA
HETATM   15  C   UNL     1      43.716 -16.669   1.921  1.00  0.00     0.038 A 
HETATM   16  C   UNL     1      43.788 -18.045   1.684  1.00  0.00     0.003 A 
HETATM   17  C   UNL     1      43.424 -18.967   2.668  1.00  0.00     0.001 A 
BRANCH  10  18
HETATM   18  C   UNL     1      41.979 -16.825   6.609  1.00  0.00     0.116 C 
BRANCH  18  19
HETATM   19  S   UNL     1      43.335 -16.963   7.813  1.00  0.00    -0.169 SA
HETATM   20  C   UNL     1      43.712 -18.717   7.580  1.00  0.00     0.090 C 
ENDBRANCH  18  19
ENDBRANCH  10  18
ENDBRANCH   7   9
ENDBRANCH   6   7
ENDBRANCH   5   6
ENDBRANCH   1   5
BRANCH   2  21
HETATM   21  C   UNL     1      39.780 -10.971   8.822  1.00  0.00     0.050 A 
HETATM   22  C   UNL     1      40.931 -10.205   9.095  1.00  0.00     0.058 A 
HETATM   23  C   UNL     1      40.843  -9.003   9.811  1.00  0.00     0.019 A 
HETATM   24  C   UNL     1      39.609  -8.573  10.293  1.00  0.00     0.001 A 
HETATM   25  C   UNL     1      38.469  -9.342  10.064  1.00  0.00     0.002 A 
HETATM   26  C   UNL     1      38.553 -10.533   9.334  1.00  0.00     0.030 A 
BRANCH  22  27
HETATM   27  C   UNL     1      42.290 -10.671   8.718  1.00  0.00     0.254 C 
HETATM   28  N   UNL     1      42.964 -11.329   9.731  1.00  0.00    -0.352 N 
HETATM   29  H   UNL     1      42.553 -11.314  10.660  1.00  0.00     0.163 HD
HETATM   30  O   UNL     1      42.738 -10.450   7.601  1.00  0.00    -0.268 OA
BRANCH  28  31
HETATM   31  C   UNL     1      44.285 -11.853   9.594  1.00  0.00     0.084 A 
HETATM   32  C   UNL     1      45.479 -10.956   9.769  1.00  0.00     0.027 A 
HETATM   33  C   UNL     1      45.163 -11.990  10.808  1.00  0.00     0.027 A 
ENDBRANCH  28  31
ENDBRANCH  22  27
ENDBRANCH   2  21
TORSDOF 9
ENDMDL
MODEL 9
REMARK VINA RESULT:      -8.3      1.933      2.761
REMARK  9 active torsions:
REMARK  status: ('A' for Active; 'I' for Inactive)
REMARK    1  A    between atoms: S_2  and  C_3 
REMARK    2  A    between atoms: C_3  and  C_4 
REMARK    3  A    between atoms: C_5  and  C_6 
REMARK    4  A    between atoms: C_6  and  O_7 
REMARK    5  A    between atoms: O_7  and  C_8 
REMARK    6  A    between atoms: C_8  and  C_9 
REMARK       I    between atoms: C_9  and  N_10 
REMARK    7  A    between atoms: N_10  and  C_11 
REMARK    8  A    between atoms: C_12  and  C_13 
REMARK       I    between atoms: C_13  and  N_14 
REMARK    9  A    between atoms: N_14  and  C_15 
ROOT
HETATM    1  C   UNL     1      45.168 -13.140   7.525  1.00  0.00     0.246 C 
HETATM    2  N   UNL     1      44.015 -12.543   8.005  1.00  0.00    -0.324 N 
HETATM    3  O   UNL     1      46.309 -12.845   7.864  1.00  0.00    -0.271 OA
HETATM    4  H   UNL     1      43.171 -12.658   7.448  1.00  0.00     0.169 HD
ENDROOT
BRANCH   1   5
HETATM    5  C   UNL     1      44.882 -14.206   6.464  1.00  0.00     0.282 C 
BRANCH   5   6
HETATM    6  O   UNL     1      44.147 -15.294   7.026  1.00  0.00    -0.307 OA
BRANCH   6   7
HETATM    7  C   UNL     1      43.050 -15.652   6.291  1.00  0.00     0.318 C 
HETATM    8  O   UNL     1      41.974 -15.067   6.338  1.00  0.00    -0.257 OA
BRANCH   7   9
HETATM    9  C   UNL     1      43.353 -16.761   5.416  1.00  0.00     0.159 A 
HETATM   10  C   UNL     1      44.211 -17.842   5.598  1.00  0.00     0.004 A 
HETATM   11  C   UNL     1      44.105 -18.636   4.414  1.00  0.00     0.008 A 
HETATM   12  C   UNL     1      43.189 -17.987   3.597  1.00  0.00     0.087 A 
HETATM   13  C   UNL     1      44.685 -19.832   3.952  1.00  0.00     0.015 A 
HETATM   14  O   UNL     1      42.731 -16.859   4.200  1.00  0.00    -0.303 OA
HETATM   15  C   UNL     1      42.803 -18.446   2.339  1.00  0.00     0.038 A 
HETATM   16  C   UNL     1      43.389 -19.636   1.900  1.00  0.00     0.003 A 
HETATM   17  C   UNL     1      44.315 -20.320   2.690  1.00  0.00     0.001 A 
BRANCH  10  18
HETATM   18  C   UNL     1      45.049 -18.128   6.797  1.00  0.00     0.116 C 
BRANCH  18  19
HETATM   19  S   UNL     1      44.021 -18.736   8.168  1.00  0.00    -0.169 SA
HETATM   20  C   UNL     1      43.688 -20.395   7.528  1.00  0.00     0.090 C 
ENDBRANCH  18  19
ENDBRANCH  10  18
ENDBRANCH   7   9
ENDBRANCH   6   7
ENDBRANCH   5   6
ENDBRANCH   1   5
BRANCH   2  21
HETATM   21  C   UNL     1      43.911 -11.711   9.146  1.00  0.00     0.050 A 
HETATM   22  C   UNL     1      42.843 -10.797   9.256  1.00  0.00     0.058 A 
HETATM   23  C   UNL     1      42.639 -10.070  10.437  1.00  0.00     0.019 A 
HETATM   24  C   UNL     1      43.519 -10.221  11.505  1.00  0.00     0.001 A 
HETATM   25  C   UNL     1      44.601 -11.092  11.394  1.00  0.00     0.002 A 
HETATM   26  C   UNL     1      44.797 -11.833  10.223  1.00  0.00     0.030 A 
BRANCH  22  27
HETATM   27  C   UNL     1      41.946 -10.499   8.111  1.00  0.00     0.254 C 
HETATM   28  N   UNL     1      40.966 -11.451   7.896  1.00  0.00    -0.352 N 
HETATM   29  H   UNL     1      41.024 -12.317   8.424  1.00  0.00     0.163 HD
HETATM   30  O   UNL     1      42.114  -9.494   7.433  1.00  0.00    -0.268 OA
BRANCH  28  31
HETATM   31  C   UNL     1      40.002 -11.373   6.846  1.00  0.00     0.084 A 
HETATM   32  C   UNL     1      40.275 -12.020   5.516  1.00  0.00     0.027 A 
HETATM   33  C   UNL     1      39.245 -12.607   6.435  1.00  0.00     0.027 A 
ENDBRANCH  28  31
ENDBRANCH  22  27
ENDBRANCH   2  21
TORSDOF 9
ENDMDL
MODEL 10
REMARK VINA RESULT:      -8.3      3.876      6.061
REMARK  9 active torsions:
REMARK  status: ('A' for Active; 'I' for Inactive)
REMARK    1  A    between atoms: S_2  and  C_3 
REMARK    2  A    between atoms: C_3  and  C_4 
REMARK    3  A    between atoms: C_5  and  C_6 
REMARK    4  A    between atoms: C_6  and  O_7 
REMARK    5  A    between atoms: O_7  and  C_8 
REMARK    6  A    between atoms: C_8  and  C_9 
REMARK       I    between atoms: C_9  and  N_10 
REMARK    7  A    between atoms: N_10  and  C_11 
REMARK    8  A    between atoms: C_12  and  C_13 
REMARK       I    between atoms: C_13  and  N_14 
REMARK    9  A    between atoms: N_14  and  C_15 
ROOT
HETATM    1  C   UNL     1      40.439 -14.016   5.392  1.00  0.00     0.246 C 
HETATM    2  N   UNL     1      41.358 -13.088   4.930  1.00  0.00    -0.324 N 
HETATM    3  O   UNL     1      39.227 -13.838   5.451  1.00  0.00    -0.271 OA
HETATM    4  H   UNL     1      42.328 -13.229   5.201  1.00  0.00     0.169 HD
ENDROOT
BRANCH   1   5
HETATM    5  C   UNL     1      41.100 -15.307   5.881  1.00  0.00     0.282 C 
BRANCH   5   6
HETATM    6  O   UNL     1      41.592 -16.071   4.779  1.00  0.00    -0.307 OA
BRANCH   6   7
HETATM    7  C   UNL     1      42.955 -16.193   4.762  1.00  0.00     0.318 C 
HETATM    8  O   UNL     1      43.725 -15.319   5.141  1.00  0.00    -0.257 OA
BRANCH   7   9
HETATM    9  C   UNL     1      43.351 -17.504   4.301  1.00  0.00     0.159 A 
HETATM   10  C   UNL     1      44.191 -18.447   4.885  1.00  0.00     0.004 A 
HETATM   11  C   UNL     1      44.211 -19.566   3.996  1.00  0.00     0.008 A 
HETATM   12  C   UNL     1      43.380 -19.229   2.936  1.00  0.00     0.087 A 
HETATM   13  C   UNL     1      44.841 -20.825   3.978  1.00  0.00     0.015 A 
HETATM   14  O   UNL     1      42.857 -17.988   3.119  1.00  0.00    -0.303 OA
HETATM   15  C   UNL     1      43.126 -20.061   1.848  1.00  0.00     0.038 A 
HETATM   16  C   UNL     1      43.760 -21.307   1.850  1.00  0.00     0.003 A 
HETATM   17  C   UNL     1      44.604 -21.685   2.896  1.00  0.00     0.001 A 
BRANCH  10  18
HETATM   18  C   UNL     1      44.905 -18.326   6.188  1.00  0.00     0.116 C 
BRANCH  18  19
HETATM   19  S   UNL     1      43.863 -18.934   7.549  1.00  0.00    -0.169 SA
HETATM   20  C   UNL     1      43.438 -17.338   8.285  1.00  0.00     0.090 C 
ENDBRANCH  18  19
ENDBRANCH  10  18
ENDBRANCH   7   9
ENDBRANCH   6   7
ENDBRANCH   5   6
ENDBRANCH   1   5
BRANCH   2  21
HETATM   21  C   UNL     1      41.070 -11.913   4.195  1.00  0.00     0.050 A 
HETATM   22  C   UNL     1      41.271 -11.889   2.800  1.00  0.00     0.058 A 
HETATM   23  C   UNL     1      40.858 -10.790   2.034  1.00  0.00     0.019 A 
HETATM   24  C   UNL     1      40.272  -9.691   2.657  1.00  0.00     0.001 A 
HETATM   25  C   UNL     1      40.103  -9.688   4.040  1.00  0.00     0.002 A 
HETATM   26  C   UNL     1      40.499 -10.791   4.805  1.00  0.00     0.030 A 
BRANCH  22  27
HETATM   27  C   UNL     1      42.002 -12.972   2.095  1.00  0.00     0.254 C 
HETATM   28  N   UNL     1      41.363 -13.440   0.961  1.00  0.00    -0.352 N 
HETATM   29  H   UNL     1      40.414 -13.123   0.787  1.00  0.00     0.163 HD
HETATM   30  O   UNL     1      43.064 -13.394   2.531  1.00  0.00    -0.268 OA
BRANCH  28  31
HETATM   31  C   UNL     1      41.879 -14.485   0.136  1.00  0.00     0.084 A 
HETATM   32  C   UNL     1      41.596 -15.924   0.468  1.00  0.00     0.027 A 
HETATM   33  C   UNL     1      40.941 -15.290  -0.723  1.00  0.00     0.027 A 
ENDBRANCH  28  31
ENDBRANCH  22  27
ENDBRANCH   2  21
TORSDOF 9
ENDMDL
