MODEL 1
REMARK VINA RESULT:      -9.0      0.000      0.000
REMARK  10 active torsions:
REMARK  status: ('A' for Active; 'I' for Inactive)
REMARK    1  A    between atoms: O_2  and  C_3 
REMARK    2  A    between atoms: C_6  and  C_7 
REMARK    3  A    between atoms: C_7  and  C_8 
REMARK    4  A    between atoms: C_8  and  N_9 
REMARK    5  A    between atoms: N_12  and  C_13 
REMARK    6  A    between atoms: C_16  and  O_17 
REMARK    7  A    between atoms: C_23  and  C_24 
REMARK    8  A    between atoms: C_24  and  C_25 
REMARK       I    between atoms: C_25  and  N_26 
REMARK    9  A    between atoms: N_26  and  C_27 
REMARK   10  A    between atoms: C_30  and  O_31 
ROOT
HETATM    1  N   UNL     1      42.883 -15.977   6.295  1.00  0.00    -0.319 N 
HETATM    2  C   UNL     1      42.347 -16.415   5.088  1.00  0.00     0.332 A 
HETATM    3  O   UNL     1      41.842 -17.520   4.951  1.00  0.00    -0.246 OA
HETATM    4  N   UNL     1      42.544 -15.431   4.137  1.00  0.00    -0.232 N 
HETATM    5  C   UNL     1      43.234 -14.386   4.706  1.00  0.00     0.256 A 
HETATM    6  O   UNL     1      43.661 -13.362   4.177  1.00  0.00    -0.270 OA
HETATM    7  C   UNL     1      43.436 -14.644   6.201  1.00  0.00     0.190 A 
ENDROOT
BRANCH   7   8
HETATM    8  C   UNL     1      44.913 -14.515   6.551  1.00  0.00     0.138 C 
BRANCH   8   9
HETATM    9  C   UNL     1      45.114 -13.391   7.553  1.00  0.00     0.224 C 
HETATM   10  N   UNL     1      43.970 -13.069   8.254  1.00  0.00    -0.327 N 
HETATM   11  H   UNL     1      43.149 -13.657   8.100  1.00  0.00     0.169 HD
HETATM   12  O   UNL     1      46.224 -12.885   7.689  1.00  0.00    -0.273 OA
BRANCH  10  13
HETATM   13  C   UNL     1      43.807 -12.085   9.249  1.00  0.00     0.034 A 
HETATM   14  C   UNL     1      44.404 -12.130  10.505  1.00  0.00     0.032 A 
HETATM   15  C   UNL     1      44.179 -11.099  11.428  1.00  0.00     0.039 A 
HETATM   16  C   UNL     1      43.358 -10.016  11.109  1.00  0.00     0.068 A 
HETATM   17  C   UNL     1      42.762  -9.966   9.851  1.00  0.00     0.039 A 
HETATM   18  C   UNL     1      42.988 -10.994   8.928  1.00  0.00     0.032 A 
BRANCH  16  19
HETATM   19  O   UNL     1      43.222  -9.085  12.100  1.00  0.00    -0.356 OA
HETATM   20  C   UNL     1      43.425  -9.532  13.435  1.00  0.00     0.210 C 
ENDBRANCH  16  19
ENDBRANCH  10  13
ENDBRANCH   8   9
ENDBRANCH   7   8
BRANCH   1  21
HETATM   21  C   UNL     1      42.930 -16.796   7.503  1.00  0.00     0.133 C 
BRANCH  21  22
HETATM   22  C   UNL     1      44.275 -17.493   7.724  1.00  0.00     0.058 C 
BRANCH  22  23
HETATM   23  C   UNL     1      44.353 -18.784   6.949  1.00  0.00    -0.057 A 
HETATM   24  C   UNL     1      45.000 -18.829   5.708  1.00  0.00     0.010 A 
HETATM   25  C   UNL     1      45.036 -20.019   4.977  1.00  0.00     0.037 A 
HETATM   26  C   UNL     1      44.434 -21.178   5.468  1.00  0.00     0.068 A 
HETATM   27  C   UNL     1      43.784 -21.138   6.701  1.00  0.00     0.037 A 
HETATM   28  C   UNL     1      43.743 -19.946   7.436  1.00  0.00     0.010 A 
BRANCH  26  29
HETATM   29  O   UNL     1      44.544 -22.270   4.651  1.00  0.00    -0.356 OA
HETATM   30  C   UNL     1      44.612 -22.022   3.253  1.00  0.00     0.210 C 
ENDBRANCH  26  29
ENDBRANCH  22  23
ENDBRANCH  21  22
ENDBRANCH   1  21
BRANCH   4  31
HETATM   31  C   UNL     1      42.155 -15.519   2.764  1.00  0.00     0.047 A 
HETATM   32  C   UNL     1      41.132 -14.719   2.238  1.00  0.00     0.033 A 
HETATM   33  C   UNL     1      40.754 -14.806   0.890  1.00  0.00     0.039 A 
HETATM   34  C   UNL     1      41.379 -15.700   0.027  1.00  0.00     0.068 A 
HETATM   35  C   UNL     1      42.398 -16.503   0.526  1.00  0.00     0.039 A 
HETATM   36  C   UNL     1      42.780 -16.408   1.874  1.00  0.00     0.033 A 
BRANCH  34  37
HETATM   37  O   UNL     1      40.914 -15.692  -1.256  1.00  0.00    -0.356 OA
HETATM   38  C   UNL     1      40.343 -14.477  -1.725  1.00  0.00     0.210 C 
ENDBRANCH  34  37
ENDBRANCH   4  31
TORSDOF 10
ENDMDL
MODEL 2
REMARK VINA RESULT:      -8.6      3.793      7.811
REMARK  10 active torsions:
REMARK  status: ('A' for Active; 'I' for Inactive)
REMARK    1  A    between atoms: O_2  and  C_3 
REMARK    2  A    between atoms: C_6  and  C_7 
REMARK    3  A    between atoms: C_7  and  C_8 
REMARK    4  A    between atoms: C_8  and  N_9 
REMARK    5  A    between atoms: N_12  and  C_13 
REMARK    6  A    between atoms: C_16  and  O_17 
REMARK    7  A    between atoms: C_23  and  C_24 
REMARK    8  A    between atoms: C_24  and  C_25 
REMARK       I    between atoms: C_25  and  N_26 
REMARK    9  A    between atoms: N_26  and  C_27 
REMARK   10  A    between atoms: C_30  and  O_31 
ROOT
HETATM    1  N   UNL     1      41.803 -13.657   1.629  1.00  0.00    -0.319 N 
HETATM    2  C   UNL     1      41.740 -12.654   0.667  1.00  0.00     0.332 A 
HETATM    3  O   UNL     1      41.782 -11.464   0.949  1.00  0.00    -0.246 OA
HETATM    4  N   UNL     1      41.575 -13.242  -0.572  1.00  0.00    -0.232 N 
HETATM    5  C   UNL     1      41.490 -14.606  -0.415  1.00  0.00     0.256 A 
HETATM    6  O   UNL     1      41.272 -15.470  -1.262  1.00  0.00    -0.270 OA
HETATM    7  C   UNL     1      41.716 -14.979   1.051  1.00  0.00     0.190 A 
ENDROOT
BRANCH   7   8
HETATM    8  C   UNL     1      40.562 -15.843   1.547  1.00  0.00     0.138 C 
BRANCH   8   9
HETATM    9  C   UNL     1      41.092 -16.969   2.419  1.00  0.00     0.224 C 
HETATM   10  N   UNL     1      42.402 -17.305   2.146  1.00  0.00    -0.327 N 
HETATM   11  H   UNL     1      42.900 -16.725   1.468  1.00  0.00     0.169 HD
HETATM   12  O   UNL     1      40.372 -17.463   3.281  1.00  0.00    -0.273 OA
BRANCH  10  13
HETATM   13  C   UNL     1      43.193 -18.295   2.763  1.00  0.00     0.034 A 
HETATM   14  C   UNL     1      43.780 -18.163   4.018  1.00  0.00     0.032 A 
HETATM   15  C   UNL     1      44.551 -19.207   4.546  1.00  0.00     0.039 A 
HETATM   16  C   UNL     1      44.746 -20.390   3.831  1.00  0.00     0.068 A 
HETATM   17  C   UNL     1      44.156 -20.526   2.576  1.00  0.00     0.039 A 
HETATM   18  C   UNL     1      43.384 -19.484   2.048  1.00  0.00     0.032 A 
BRANCH  16  19
HETATM   19  O   UNL     1      45.520 -21.324   4.460  1.00  0.00    -0.356 OA
HETATM   20  C   UNL     1      44.850 -22.252   5.304  1.00  0.00     0.210 C 
ENDBRANCH  16  19
ENDBRANCH  10  13
ENDBRANCH   8   9
ENDBRANCH   7   8
BRANCH   1  21
HETATM   21  C   UNL     1      41.889 -13.397   3.064  1.00  0.00     0.133 C 
BRANCH  21  22
HETATM   22  C   UNL     1      43.282 -13.639   3.652  1.00  0.00     0.058 C 
BRANCH  22  23
HETATM   23  C   UNL     1      43.211 -14.509   4.882  1.00  0.00    -0.057 A 
HETATM   24  C   UNL     1      44.342 -14.698   5.683  1.00  0.00     0.010 A 
HETATM   25  C   UNL     1      44.281 -15.535   6.799  1.00  0.00     0.037 A 
HETATM   26  C   UNL     1      43.097 -16.193   7.135  1.00  0.00     0.068 A 
HETATM   27  C   UNL     1      41.968 -16.013   6.337  1.00  0.00     0.037 A 
HETATM   28  C   UNL     1      42.026 -15.176   5.216  1.00  0.00     0.010 A 
BRANCH  26  29
HETATM   29  O   UNL     1      43.176 -16.981   8.250  1.00  0.00    -0.356 OA
HETATM   30  C   UNL     1      43.855 -18.223   8.112  1.00  0.00     0.210 C 
ENDBRANCH  26  29
ENDBRANCH  22  23
ENDBRANCH  21  22
ENDBRANCH   1  21
BRANCH   4  31
HETATM   31  C   UNL     1      41.442 -12.540  -1.810  1.00  0.00     0.047 A 
HETATM   32  C   UNL     1      42.538 -12.335  -2.660  1.00  0.00     0.033 A 
HETATM   33  C   UNL     1      42.404 -11.647  -3.875  1.00  0.00     0.039 A 
HETATM   34  C   UNL     1      41.174 -11.134  -4.275  1.00  0.00     0.068 A 
HETATM   35  C   UNL     1      40.073 -11.326  -3.450  1.00  0.00     0.039 A 
HETATM   36  C   UNL     1      40.208 -12.023  -2.238  1.00  0.00     0.033 A 
BRANCH  34  37
HETATM   37  O   UNL     1      41.180 -10.479  -5.473  1.00  0.00    -0.356 OA
HETATM   38  C   UNL     1      42.242  -9.560  -5.699  1.00  0.00     0.210 C 
ENDBRANCH  34  37
ENDBRANCH   4  31
TORSDOF 10
ENDMDL
MODEL 3
REMARK VINA RESULT:      -8.3      3.589      5.792
REMARK  10 active torsions:
REMARK  status: ('A' for Active; 'I' for Inactive)
REMARK    1  A    between atoms: O_2  and  C_3 
REMARK    2  A    between atoms: C_6  and  C_7 
REMARK    3  A    between atoms: C_7  and  C_8 
REMARK    4  A    between atoms: C_8  and  N_9 
REMARK    5  A    between atoms: N_12  and  C_13 
REMARK    6  A    between atoms: C_16  and  O_17 
REMARK    7  A    between atoms: C_23  and  C_24 
REMARK    8  A    between atoms: C_24  and  C_25 
REMARK       I    between atoms: C_25  and  N_26 
REMARK    9  A    between atoms: N_26  and  C_27 
REMARK   10  A    between atoms: C_30  and  O_31 
ROOT
HETATM    1  N   UNL     1      41.531 -15.118   0.782  1.00  0.00    -0.319 N 
HETATM    2  C   UNL     1      40.909 -15.007  -0.458  1.00  0.00     0.332 A 
HETATM    3  O   UNL     1      41.112 -15.794  -1.373  1.00  0.00    -0.246 OA
HETATM    4  N   UNL     1      40.120 -13.873  -0.453  1.00  0.00    -0.232 N 
HETATM    5  C   UNL     1      40.258 -13.233   0.756  1.00  0.00     0.256 A 
HETATM    6  O   UNL     1      39.780 -12.162   1.124  1.00  0.00    -0.270 OA
HETATM    7  C   UNL     1      41.144 -14.061   1.688  1.00  0.00     0.190 A 
ENDROOT
BRANCH   7   8
HETATM    8  C   UNL     1      42.281 -13.197   2.221  1.00  0.00     0.138 C 
BRANCH   8   9
HETATM    9  C   UNL     1      43.028 -13.938   3.317  1.00  0.00     0.224 C 
HETATM   10  N   UNL     1      42.197 -14.499   4.265  1.00  0.00    -0.327 N 
HETATM   11  H   UNL     1      41.192 -14.440   4.096  1.00  0.00     0.169 HD
HETATM   12  O   UNL     1      44.252 -14.009   3.280  1.00  0.00    -0.273 OA
BRANCH  10  13
HETATM   13  C   UNL     1      42.557 -15.246   5.405  1.00  0.00     0.034 A 
HETATM   14  C   UNL     1      43.734 -15.063   6.125  1.00  0.00     0.032 A 
HETATM   15  C   UNL     1      44.001 -15.858   7.247  1.00  0.00     0.039 A 
HETATM   16  C   UNL     1      43.102 -16.843   7.662  1.00  0.00     0.068 A 
HETATM   17  C   UNL     1      41.922 -17.025   6.945  1.00  0.00     0.039 A 
HETATM   18  C   UNL     1      41.652 -16.230   5.825  1.00  0.00     0.032 A 
BRANCH  16  19
HETATM   19  O   UNL     1      43.488 -17.547   8.768  1.00  0.00    -0.356 OA
HETATM   20  C   UNL     1      44.260 -18.721   8.545  1.00  0.00     0.210 C 
ENDBRANCH  16  19
ENDBRANCH  10  13
ENDBRANCH   8   9
ENDBRANCH   7   8
BRANCH   1  21
HETATM   21  C   UNL     1      42.508 -16.155   1.106  1.00  0.00     0.133 C 
BRANCH  21  22
HETATM   22  C   UNL     1      41.890 -17.540   1.318  1.00  0.00     0.058 C 
BRANCH  22  23
HETATM   23  C   UNL     1      42.791 -18.416   2.152  1.00  0.00    -0.057 A 
HETATM   24  C   UNL     1      43.296 -17.957   3.373  1.00  0.00     0.010 A 
HETATM   25  C   UNL     1      44.160 -18.758   4.123  1.00  0.00     0.037 A 
HETATM   26  C   UNL     1      44.532 -20.025   3.670  1.00  0.00     0.068 A 
HETATM   27  C   UNL     1      44.036 -20.486   2.451  1.00  0.00     0.037 A 
HETATM   28  C   UNL     1      43.171 -19.684   1.696  1.00  0.00     0.010 A 
BRANCH  26  29
HETATM   29  O   UNL     1      45.383 -20.702   4.501  1.00  0.00    -0.356 OA
HETATM   30  C   UNL     1      44.817 -21.738   5.293  1.00  0.00     0.210 C 
ENDBRANCH  26  29
ENDBRANCH  22  23
ENDBRANCH  21  22
ENDBRANCH   1  21
BRANCH   4  31
HETATM   31  C   UNL     1      39.341 -13.404  -1.556  1.00  0.00     0.047 A 
HETATM   32  C   UNL     1      39.774 -12.342  -2.362  1.00  0.00     0.033 A 
HETATM   33  C   UNL     1      39.008 -11.884  -3.445  1.00  0.00     0.039 A 
HETATM   34  C   UNL     1      37.782 -12.466  -3.752  1.00  0.00     0.068 A 
HETATM   35  C   UNL     1      37.333 -13.522  -2.968  1.00  0.00     0.039 A 
HETATM   36  C   UNL     1      38.105 -13.983  -1.889  1.00  0.00     0.033 A 
BRANCH  34  37
HETATM   37  O   UNL     1      37.134 -11.924  -4.823  1.00  0.00    -0.356 OA
HETATM   38  C   UNL     1      36.980 -10.509  -4.834  1.00  0.00     0.210 C 
ENDBRANCH  34  37
ENDBRANCH   4  31
TORSDOF 10
ENDMDL
MODEL 4
REMARK VINA RESULT:      -8.1      2.125      8.208
REMARK  10 active torsions:
REMARK  status: ('A' for Active; 'I' for Inactive)
REMARK    1  A    between atoms: O_2  and  C_3 
REMARK    2  A    between atoms: C_6  and  C_7 
REMARK    3  A    between atoms: C_7  and  C_8 
REMARK    4  A    between atoms: C_8  and  N_9 
REMARK    5  A    between atoms: N_12  and  C_13 
REMARK    6  A    between atoms: C_16  and  O_17 
REMARK    7  A    between atoms: C_23  and  C_24 
REMARK    8  A    between atoms: C_24  and  C_25 
REMARK       I    between atoms: C_25  and  N_26 
REMARK    9  A    between atoms: N_26  and  C_27 
REMARK   10  A    between atoms: C_30  and  O_31 
ROOT
HETATM    1  N   UNL     1      40.837 -13.127   4.723  1.00  0.00    -0.319 N 
HETATM    2  C   UNL     1      40.411 -13.415   3.430  1.00  0.00     0.332 A 
HETATM    3  O   UNL     1      39.229 -13.471   3.121  1.00  0.00    -0.246 OA
HETATM    4  N   UNL     1      41.522 -13.662   2.646  1.00  0.00    -0.232 N 
HETATM    5  C   UNL     1      42.652 -13.577   3.426  1.00  0.00     0.256 A 
HETATM    6  O   UNL     1      43.821 -13.798   3.120  1.00  0.00    -0.270 OA
HETATM    7  C   UNL     1      42.278 -13.136   4.843  1.00  0.00     0.190 A 
ENDROOT
BRANCH   7   8
HETATM    8  C   UNL     1      42.851 -14.119   5.856  1.00  0.00     0.138 C 
BRANCH   8   9
HETATM    9  C   UNL     1      42.624 -15.545   5.385  1.00  0.00     0.224 C 
HETATM   10  N   UNL     1      43.783 -16.190   5.008  1.00  0.00    -0.327 N 
HETATM   11  H   UNL     1      44.663 -15.694   5.160  1.00  0.00     0.169 HD
HETATM   12  O   UNL     1      41.491 -16.017   5.393  1.00  0.00    -0.273 OA
BRANCH  10  13
HETATM   13  C   UNL     1      43.930 -17.506   4.526  1.00  0.00     0.034 A 
HETATM   14  C   UNL     1      44.395 -18.575   5.288  1.00  0.00     0.032 A 
HETATM   15  C   UNL     1      44.505 -19.850   4.716  1.00  0.00     0.039 A 
HETATM   16  C   UNL     1      44.156 -20.072   3.383  1.00  0.00     0.068 A 
HETATM   17  C   UNL     1      43.687 -19.006   2.620  1.00  0.00     0.039 A 
HETATM   18  C   UNL     1      43.574 -17.732   3.190  1.00  0.00     0.032 A 
BRANCH  16  19
HETATM   19  O   UNL     1      44.315 -21.360   2.953  1.00  0.00    -0.356 OA
HETATM   20  C   UNL     1      43.862 -21.659   1.638  1.00  0.00     0.210 C 
ENDBRANCH  16  19
ENDBRANCH  10  13
ENDBRANCH   8   9
ENDBRANCH   7   8
BRANCH   1  21
HETATM   21  C   UNL     1      39.927 -12.898   5.842  1.00  0.00     0.133 C 
BRANCH  21  22
HETATM   22  C   UNL     1      39.761 -11.421   6.210  1.00  0.00     0.058 C 
BRANCH  22  23
HETATM   23  C   UNL     1      40.395 -11.117   7.544  1.00  0.00    -0.057 A 
HETATM   24  C   UNL     1      39.634 -11.162   8.718  1.00  0.00     0.010 A 
HETATM   25  C   UNL     1      40.218 -10.841   9.946  1.00  0.00     0.037 A 
HETATM   26  C   UNL     1      41.562 -10.475  10.025  1.00  0.00     0.068 A 
HETATM   27  C   UNL     1      42.323 -10.424   8.857  1.00  0.00     0.037 A 
HETATM   28  C   UNL     1      41.741 -10.742   7.624  1.00  0.00     0.010 A 
BRANCH  26  29
HETATM   29  O   UNL     1      42.004 -10.188  11.287  1.00  0.00    -0.356 OA
HETATM   30  C   UNL     1      43.399  -9.957  11.442  1.00  0.00     0.210 C 
ENDBRANCH  26  29
ENDBRANCH  22  23
ENDBRANCH  21  22
ENDBRANCH   1  21
BRANCH   4  31
HETATM   31  C   UNL     1      41.494 -14.020   1.263  1.00  0.00     0.047 A 
HETATM   32  C   UNL     1      41.296 -15.344   0.850  1.00  0.00     0.033 A 
HETATM   33  C   UNL     1      41.267 -15.692  -0.509  1.00  0.00     0.039 A 
HETATM   34  C   UNL     1      41.445 -14.730  -1.498  1.00  0.00     0.068 A 
HETATM   35  C   UNL     1      41.641 -13.409  -1.113  1.00  0.00     0.039 A 
HETATM   36  C   UNL     1      41.661 -13.063   0.248  1.00  0.00     0.033 A 
BRANCH  34  37
HETATM   37  O   UNL     1      41.403 -15.199  -2.779  1.00  0.00    -0.356 OA
HETATM   38  C   UNL     1      40.220 -15.884  -3.175  1.00  0.00     0.210 C 
ENDBRANCH  34  37
ENDBRANCH   4  31
TORSDOF 10
ENDMDL
MODEL 5
REMARK VINA RESULT:      -8.0      3.105      9.509
REMARK  10 active torsions:
REMARK  status: ('A' for Active; 'I' for Inactive)
REMARK    1  A    between atoms: O_2  and  C_3 
REMARK    2  A    between atoms: C_6  and  C_7 
REMARK    3  A    between atoms: C_7  and  C_8 
REMARK    4  A    between atoms: C_8  and  N_9 
REMARK    5  A    between atoms: N_12  and  C_13 
REMARK    6  A    between atoms: C_16  and  O_17 
REMARK    7  A    between atoms: C_23  and  C_24 
REMARK    8  A    between atoms: C_24  and  C_25 
REMARK       I    between atoms: C_25  and  N_26 
REMARK    9  A    between atoms: N_26  and  C_27 
REMARK   10  A    between atoms: C_30  and  O_31 
ROOT
HETATM    1  N   UNL     1      39.830 -12.569   4.088  1.00  0.00    -0.319 N 
HETATM    2  C   UNL     1      39.366 -11.740   5.105  1.00  0.00     0.332 A 
HETATM    3  O   UNL     1      38.316 -11.117   5.023  1.00  0.00    -0.246 OA
HETATM    4  N   UNL     1      40.300 -11.728   6.123  1.00  0.00    -0.232 N 
HETATM    5  C   UNL     1      41.375 -12.505   5.757  1.00  0.00     0.256 A 
HETATM    6  O   UNL     1      42.433 -12.691   6.354  1.00  0.00    -0.270 OA
HETATM    7  C   UNL     1      41.099 -13.180   4.413  1.00  0.00     0.190 A 
ENDROOT
BRANCH   7   8
HETATM    8  C   UNL     1      42.240 -12.889   3.446  1.00  0.00     0.138 C 
BRANCH   8   9
HETATM    9  C   UNL     1      43.145 -14.104   3.328  1.00  0.00     0.224 C 
HETATM   10  N   UNL     1      42.456 -15.295   3.234  1.00  0.00    -0.327 N 
HETATM   11  H   UNL     1      41.438 -15.240   3.167  1.00  0.00     0.169 HD
HETATM   12  O   UNL     1      44.363 -13.956   3.298  1.00  0.00    -0.273 OA
BRANCH  10  13
HETATM   13  C   UNL     1      42.981 -16.597   3.114  1.00  0.00     0.034 A 
HETATM   14  C   UNL     1      43.172 -17.469   4.182  1.00  0.00     0.032 A 
HETATM   15  C   UNL     1      43.703 -18.747   3.959  1.00  0.00     0.039 A 
HETATM   16  C   UNL     1      44.049 -19.168   2.674  1.00  0.00     0.068 A 
HETATM   17  C   UNL     1      43.855 -18.298   1.603  1.00  0.00     0.039 A 
HETATM   18  C   UNL     1      43.323 -17.022   1.824  1.00  0.00     0.032 A 
BRANCH  16  19
HETATM   19  O   UNL     1      44.557 -20.434   2.599  1.00  0.00    -0.356 OA
HETATM   20  C   UNL     1      43.824 -21.377   1.826  1.00  0.00     0.210 C 
ENDBRANCH  16  19
ENDBRANCH  10  13
ENDBRANCH   8   9
ENDBRANCH   7   8
BRANCH   1  21
HETATM   21  C   UNL     1      39.137 -12.752   2.815  1.00  0.00     0.133 C 
BRANCH  21  22
HETATM   22  C   UNL     1      39.124 -14.201   2.323  1.00  0.00     0.058 C 
BRANCH  22  23
HETATM   23  C   UNL     1      39.213 -14.268   0.819  1.00  0.00    -0.057 A 
HETATM   24  C   UNL     1      40.397 -14.678   0.196  1.00  0.00     0.010 A 
HETATM   25  C   UNL     1      40.487 -14.701  -1.198  1.00  0.00     0.037 A 
HETATM   26  C   UNL     1      39.403 -14.319  -1.990  1.00  0.00     0.068 A 
HETATM   27  C   UNL     1      38.223 -13.903  -1.374  1.00  0.00     0.037 A 
HETATM   28  C   UNL     1      38.130 -13.877   0.023  1.00  0.00     0.010 A 
BRANCH  26  29
HETATM   29  O   UNL     1      39.626 -14.388  -3.337  1.00  0.00    -0.356 OA
HETATM   30  C   UNL     1      39.488 -15.665  -3.946  1.00  0.00     0.210 C 
ENDBRANCH  26  29
ENDBRANCH  22  23
ENDBRANCH  21  22
ENDBRANCH   1  21
BRANCH   4  31
HETATM   31  C   UNL     1      40.196 -10.972   7.332  1.00  0.00     0.047 A 
HETATM   32  C   UNL     1      39.424 -11.418   8.414  1.00  0.00     0.033 A 
HETATM   33  C   UNL     1      39.326 -10.675   9.599  1.00  0.00     0.039 A 
HETATM   34  C   UNL     1      39.987  -9.458   9.739  1.00  0.00     0.068 A 
HETATM   35  C   UNL     1      40.759  -8.997   8.680  1.00  0.00     0.039 A 
HETATM   36  C   UNL     1      40.863  -9.747   7.497  1.00  0.00     0.033 A 
BRANCH  34  37
HETATM   37  O   UNL     1      39.803  -8.831  10.937  1.00  0.00    -0.356 OA
HETATM   38  C   UNL     1      38.843  -9.400  11.820  1.00  0.00     0.210 C 
ENDBRANCH  34  37
ENDBRANCH   4  31
TORSDOF 10
ENDMDL
MODEL 6
REMARK VINA RESULT:      -8.0      3.150      5.201
REMARK  10 active torsions:
REMARK  status: ('A' for Active; 'I' for Inactive)
REMARK    1  A    between atoms: O_2  and  C_3 
REMARK    2  A    between atoms: C_6  and  C_7 
REMARK    3  A    between atoms: C_7  and  C_8 
REMARK    4  A    between atoms: C_8  and  N_9 
REMARK    5  A    between atoms: N_12  and  C_13 
REMARK    6  A    between atoms: C_16  and  O_17 
REMARK    7  A    between atoms: C_23  and  C_24 
REMARK    8  A    between atoms: C_24  and  C_25 
REMARK       I    between atoms: C_25  and  N_26 
REMARK    9  A    between atoms: N_26  and  C_27 
REMARK   10  A    between atoms: C_30  and  O_31 
ROOT
HETATM    1  N   UNL     1      41.452 -15.454   0.782  1.00  0.00    -0.319 N 
HETATM    2  C   UNL     1      41.331 -15.075  -0.552  1.00  0.00     0.332 A 
HETATM    3  O   UNL     1      41.214 -15.885  -1.462  1.00  0.00    -0.246 OA
HETATM    4  N   UNL     1      41.420 -13.699  -0.627  1.00  0.00    -0.232 N 
HETATM    5  C   UNL     1      41.639 -13.192   0.633  1.00  0.00     0.256 A 
HETATM    6  O   UNL     1      41.844 -12.029   0.974  1.00  0.00    -0.270 OA
HETATM    7  C   UNL     1      41.595 -14.320   1.666  1.00  0.00     0.190 A 
ENDROOT
BRANCH   7   8
HETATM    8  C   UNL     1      42.862 -14.294   2.511  1.00  0.00     0.138 C 
BRANCH   8   9
HETATM    9  C   UNL     1      42.529 -13.895   3.938  1.00  0.00     0.224 C 
HETATM   10  N   UNL     1      41.527 -12.950   4.024  1.00  0.00    -0.327 N 
HETATM   11  H   UNL     1      41.062 -12.685   3.154  1.00  0.00     0.169 HD
HETATM   12  O   UNL     1      43.118 -14.426   4.874  1.00  0.00    -0.273 OA
BRANCH  10  13
HETATM   13  C   UNL     1      40.979 -12.366   5.183  1.00  0.00     0.034 A 
HETATM   14  C   UNL     1      41.410 -11.163   5.735  1.00  0.00     0.032 A 
HETATM   15  C   UNL     1      40.799 -10.663   6.894  1.00  0.00     0.039 A 
HETATM   16  C   UNL     1      39.758 -11.356   7.514  1.00  0.00     0.068 A 
HETATM   17  C   UNL     1      39.323 -12.559   6.961  1.00  0.00     0.039 A 
HETATM   18  C   UNL     1      39.930 -13.058   5.803  1.00  0.00     0.032 A 
BRANCH  16  19
HETATM   19  O   UNL     1      39.255 -10.759   8.636  1.00  0.00    -0.356 OA
HETATM   20  C   UNL     1      39.951 -10.993   9.854  1.00  0.00     0.210 C 
ENDBRANCH  16  19
ENDBRANCH  10  13
ENDBRANCH   8   9
ENDBRANCH   7   8
BRANCH   1  21
HETATM   21  C   UNL     1      41.488 -16.846   1.226  1.00  0.00     0.133 C 
BRANCH  21  22
HETATM   22  C   UNL     1      42.866 -17.500   1.095  1.00  0.00     0.058 C 
BRANCH  22  23
HETATM   23  C   UNL     1      43.244 -18.233   2.358  1.00  0.00    -0.057 A 
HETATM   24  C   UNL     1      42.750 -17.811   3.598  1.00  0.00     0.010 A 
HETATM   25  C   UNL     1      43.134 -18.470   4.768  1.00  0.00     0.037 A 
HETATM   26  C   UNL     1      44.010 -19.556   4.722  1.00  0.00     0.068 A 
HETATM   27  C   UNL     1      44.509 -19.976   3.490  1.00  0.00     0.037 A 
HETATM   28  C   UNL     1      44.129 -19.316   2.315  1.00  0.00     0.010 A 
BRANCH  26  29
HETATM   29  O   UNL     1      44.302 -20.107   5.939  1.00  0.00    -0.356 OA
HETATM   30  C   UNL     1      43.848 -19.404   7.088  1.00  0.00     0.210 C 
ENDBRANCH  26  29
ENDBRANCH  22  23
ENDBRANCH  21  22
ENDBRANCH   1  21
BRANCH   4  31
HETATM   31  C   UNL     1      41.367 -12.931  -1.832  1.00  0.00     0.047 A 
HETATM   32  C   UNL     1      42.532 -12.531  -2.501  1.00  0.00     0.033 A 
HETATM   33  C   UNL     1      42.476 -11.780  -3.684  1.00  0.00     0.039 A 
HETATM   34  C   UNL     1      41.257 -11.396  -4.232  1.00  0.00     0.068 A 
HETATM   35  C   UNL     1      40.088 -11.783  -3.588  1.00  0.00     0.039 A 
HETATM   36  C   UNL     1      40.146 -12.542  -2.408  1.00  0.00     0.033 A 
BRANCH  34  37
HETATM   37  O   UNL     1      41.340 -10.662  -5.380  1.00  0.00    -0.356 OA
HETATM   38  C   UNL     1      42.353  -9.665  -5.433  1.00  0.00     0.210 C 
ENDBRANCH  34  37
ENDBRANCH   4  31
TORSDOF 10
ENDMDL
MODEL 7
REMARK VINA RESULT:      -7.9      4.124      8.031
REMARK  10 active torsions:
REMARK  status: ('A' for Active; 'I' for Inactive)
REMARK    1  A    between atoms: O_2  and  C_3 
REMARK    2  A    between atoms: C_6  and  C_7 
REMARK    3  A    between atoms: C_7  and  C_8 
REMARK    4  A    between atoms: C_8  and  N_9 
REMARK    5  A    between atoms: N_12  and  C_13 
REMARK    6  A    between atoms: C_16  and  O_17 
REMARK    7  A    between atoms: C_23  and  C_24 
REMARK    8  A    between atoms: C_24  and  C_25 
REMARK       I    between atoms: C_25  and  N_26 
REMARK    9  A    between atoms: N_26  and  C_27 
REMARK   10  A    between atoms: C_30  and  O_31 
ROOT
HETATM    1  N   UNL     1      42.072 -15.406   4.299  1.00  0.00    -0.319 N 
HETATM    2  C   UNL     1      41.059 -14.490   4.566  1.00  0.00     0.332 A 
HETATM    3  O   UNL     1      40.163 -14.710   5.369  1.00  0.00    -0.246 OA
HETATM    4  N   UNL     1      41.236 -13.389   3.750  1.00  0.00    -0.232 N 
HETATM    5  C   UNL     1      42.324 -13.603   2.936  1.00  0.00     0.256 A 
HETATM    6  O   UNL     1      42.762 -12.897   2.030  1.00  0.00    -0.270 OA
HETATM    7  C   UNL     1      43.001 -14.925   3.302  1.00  0.00     0.190 A 
ENDROOT
BRANCH   7   8
HETATM    8  C   UNL     1      43.144 -15.792   2.058  1.00  0.00     0.138 C 
BRANCH   8   9
HETATM    9  C   UNL     1      41.860 -15.755   1.247  1.00  0.00     0.224 C 
HETATM   10  N   UNL     1      41.946 -14.965   0.118  1.00  0.00    -0.327 N 
HETATM   11  H   UNL     1      42.860 -14.567  -0.102  1.00  0.00     0.169 HD
HETATM   12  O   UNL     1      40.889 -16.412   1.609  1.00  0.00    -0.273 OA
BRANCH  10  13
HETATM   13  C   UNL     1      40.950 -14.712  -0.845  1.00  0.00     0.034 A 
HETATM   14  C   UNL     1      40.857 -15.367  -2.070  1.00  0.00     0.032 A 
HETATM   15  C   UNL     1      39.826 -15.043  -2.963  1.00  0.00     0.039 A 
HETATM   16  C   UNL     1      38.881 -14.066  -2.646  1.00  0.00     0.068 A 
HETATM   17  C   UNL     1      38.970 -13.412  -1.419  1.00  0.00     0.039 A 
HETATM   18  C   UNL     1      39.997 -13.736  -0.526  1.00  0.00     0.032 A 
BRANCH  16  19
HETATM   19  O   UNL     1      37.933 -13.847  -3.607  1.00  0.00    -0.356 OA
HETATM   20  C   UNL     1      37.128 -14.959  -3.980  1.00  0.00     0.210 C 
ENDBRANCH  16  19
ENDBRANCH  10  13
ENDBRANCH   8   9
ENDBRANCH   7   8
BRANCH   1  21
HETATM   21  C   UNL     1      42.151 -16.727   4.919  1.00  0.00     0.133 C 
BRANCH  21  22
HETATM   22  C   UNL     1      43.578 -17.167   5.253  1.00  0.00     0.058 C 
BRANCH  22  23
HETATM   23  C   UNL     1      43.931 -18.452   4.547  1.00  0.00    -0.057 A 
HETATM   24  C   UNL     1      43.355 -18.764   3.310  1.00  0.00     0.010 A 
HETATM   25  C   UNL     1      43.656 -19.973   2.679  1.00  0.00     0.037 A 
HETATM   26  C   UNL     1      44.533 -20.887   3.266  1.00  0.00     0.068 A 
HETATM   27  C   UNL     1      45.106 -20.583   4.501  1.00  0.00     0.037 A 
HETATM   28  C   UNL     1      44.804 -19.373   5.138  1.00  0.00     0.010 A 
BRANCH  26  29
HETATM   29  O   UNL     1      44.739 -22.029   2.543  1.00  0.00    -0.356 OA
HETATM   30  C   UNL     1      44.107 -22.106   1.271  1.00  0.00     0.210 C 
ENDBRANCH  26  29
ENDBRANCH  22  23
ENDBRANCH  21  22
ENDBRANCH   1  21
BRANCH   4  31
HETATM   31  C   UNL     1      40.382 -12.243   3.711  1.00  0.00     0.047 A 
HETATM   32  C   UNL     1      40.690 -11.072   4.417  1.00  0.00     0.033 A 
HETATM   33  C   UNL     1      39.851  -9.949   4.374  1.00  0.00     0.039 A 
HETATM   34  C   UNL     1      38.674  -9.962   3.633  1.00  0.00     0.068 A 
HETATM   35  C   UNL     1      38.349 -11.112   2.922  1.00  0.00     0.039 A 
HETATM   36  C   UNL     1      39.195 -12.232   2.960  1.00  0.00     0.033 A 
BRANCH  34  37
HETATM   37  O   UNL     1      37.944  -8.810   3.681  1.00  0.00    -0.356 OA
HETATM   38  C   UNL     1      37.230  -8.451   2.503  1.00  0.00     0.210 C 
ENDBRANCH  34  37
ENDBRANCH   4  31
TORSDOF 10
ENDMDL
MODEL 8
REMARK VINA RESULT:      -7.9      2.561      3.463
REMARK  10 active torsions:
REMARK  status: ('A' for Active; 'I' for Inactive)
REMARK    1  A    between atoms: O_2  and  C_3 
REMARK    2  A    between atoms: C_6  and  C_7 
REMARK    3  A    between atoms: C_7  and  C_8 
REMARK    4  A    between atoms: C_8  and  N_9 
REMARK    5  A    between atoms: N_12  and  C_13 
REMARK    6  A    between atoms: C_16  and  O_17 
REMARK    7  A    between atoms: C_23  and  C_24 
REMARK    8  A    between atoms: C_24  and  C_25 
REMARK       I    between atoms: C_25  and  N_26 
REMARK    9  A    between atoms: N_26  and  C_27 
REMARK   10  A    between atoms: C_30  and  O_31 
ROOT
HETATM    1  N   UNL     1      41.012 -15.374   3.586  1.00  0.00    -0.319 N 
HETATM    2  C   UNL     1      40.548 -15.656   2.304  1.00  0.00     0.332 A 
HETATM    3  O   UNL     1      40.494 -16.792   1.856  1.00  0.00    -0.246 OA
HETATM    4  N   UNL     1      40.241 -14.464   1.677  1.00  0.00    -0.232 N 
HETATM    5  C   UNL     1      40.540 -13.420   2.521  1.00  0.00     0.256 A 
HETATM    6  O   UNL     1      40.477 -12.211   2.309  1.00  0.00    -0.270 OA
HETATM    7  C   UNL     1      40.997 -13.959   3.878  1.00  0.00     0.190 A 
ENDROOT
BRANCH   7   8
HETATM    8  C   UNL     1      42.342 -13.346   4.249  1.00  0.00     0.138 C 
BRANCH   8   9
HETATM    9  C   UNL     1      42.313 -12.860   5.689  1.00  0.00     0.224 C 
HETATM   10  N   UNL     1      41.291 -11.971   5.948  1.00  0.00    -0.327 N 
HETATM   11  H   UNL     1      40.622 -11.799   5.196  1.00  0.00     0.169 HD
HETATM   12  O   UNL     1      43.138 -13.284   6.492  1.00  0.00    -0.273 OA
BRANCH  10  13
HETATM   13  C   UNL     1      40.979 -11.334   7.165  1.00  0.00     0.034 A 
HETATM   14  C   UNL     1      41.876 -10.563   7.900  1.00  0.00     0.032 A 
HETATM   15  C   UNL     1      41.469  -9.969   9.103  1.00  0.00     0.039 A 
HETATM   16  C   UNL     1      40.170 -10.137   9.585  1.00  0.00     0.068 A 
HETATM   17  C   UNL     1      39.270 -10.905   8.849  1.00  0.00     0.039 A 
HETATM   18  C   UNL     1      39.674 -11.497   7.647  1.00  0.00     0.032 A 
BRANCH  16  19
HETATM   19  O   UNL     1      39.909  -9.506  10.769  1.00  0.00    -0.356 OA
HETATM   20  C   UNL     1      39.894 -10.316  11.939  1.00  0.00     0.210 C 
ENDBRANCH  16  19
ENDBRANCH  10  13
ENDBRANCH   8   9
ENDBRANCH   7   8
BRANCH   1  21
HETATM   21  C   UNL     1      41.509 -16.393   4.507  1.00  0.00     0.133 C 
BRANCH  21  22
HETATM   22  C   UNL     1      43.036 -16.488   4.556  1.00  0.00     0.058 C 
BRANCH  22  23
HETATM   23  C   UNL     1      43.512 -17.850   4.117  1.00  0.00    -0.057 A 
HETATM   24  C   UNL     1      43.089 -18.390   2.898  1.00  0.00     0.010 A 
HETATM   25  C   UNL     1      43.502 -19.668   2.514  1.00  0.00     0.037 A 
HETATM   26  C   UNL     1      44.342 -20.424   3.334  1.00  0.00     0.068 A 
HETATM   27  C   UNL     1      44.762 -19.892   4.553  1.00  0.00     0.037 A 
HETATM   28  C   UNL     1      44.348 -18.613   4.942  1.00  0.00     0.010 A 
BRANCH  26  29
HETATM   29  O   UNL     1      44.669 -21.656   2.838  1.00  0.00    -0.356 OA
HETATM   30  C   UNL     1      44.182 -21.976   1.541  1.00  0.00     0.210 C 
ENDBRANCH  26  29
ENDBRANCH  22  23
ENDBRANCH  21  22
ENDBRANCH   1  21
BRANCH   4  31
HETATM   31  C   UNL     1      39.759 -14.335   0.337  1.00  0.00     0.047 A 
HETATM   32  C   UNL     1      38.420 -14.025   0.065  1.00  0.00     0.033 A 
HETATM   33  C   UNL     1      37.950 -13.897  -1.251  1.00  0.00     0.039 A 
HETATM   34  C   UNL     1      38.800 -14.084  -2.336  1.00  0.00     0.068 A 
HETATM   35  C   UNL     1      40.133 -14.391  -2.091  1.00  0.00     0.039 A 
HETATM   36  C   UNL     1      40.603 -14.509  -0.772  1.00  0.00     0.033 A 
BRANCH  34  37
HETATM   37  O   UNL     1      38.218 -13.940  -3.562  1.00  0.00    -0.356 OA
HETATM   38  C   UNL     1      37.169 -14.844  -3.887  1.00  0.00     0.210 C 
ENDBRANCH  34  37
ENDBRANCH   4  31
TORSDOF 10
ENDMDL
MODEL 9
REMARK VINA RESULT:      -7.9      2.576      6.722
REMARK  10 active torsions:
REMARK  status: ('A' for Active; 'I' for Inactive)
REMARK    1  A    between atoms: O_2  and  C_3 
REMARK    2  A    between atoms: C_6  and  C_7 
REMARK    3  A    between atoms: C_7  and  C_8 
REMARK    4  A    between atoms: C_8  and  N_9 
REMARK    5  A    between atoms: N_12  and  C_13 
REMARK    6  A    between atoms: C_16  and  O_17 
REMARK    7  A    between atoms: C_23  and  C_24 
REMARK    8  A    between atoms: C_24  and  C_25 
REMARK       I    between atoms: C_25  and  N_26 
REMARK    9  A    between atoms: N_26  and  C_27 
REMARK   10  A    between atoms: C_30  and  O_31 
ROOT
HETATM    1  N   UNL     1      43.535 -13.426   6.895  1.00  0.00    -0.319 N 
HETATM    2  C   UNL     1      44.067 -14.553   6.275  1.00  0.00     0.332 A 
HETATM    3  O   UNL     1      45.248 -14.860   6.361  1.00  0.00    -0.246 OA
HETATM    4  N   UNL     1      43.065 -15.170   5.550  1.00  0.00    -0.232 N 
HETATM    5  C   UNL     1      41.909 -14.433   5.663  1.00  0.00     0.256 A 
HETATM    6  O   UNL     1      40.823 -14.608   5.114  1.00  0.00    -0.270 OA
HETATM    7  C   UNL     1      42.123 -13.267   6.630  1.00  0.00     0.190 A 
ENDROOT
BRANCH   7   8
HETATM    8  C   UNL     1      41.719 -11.960   5.960  1.00  0.00     0.138 C 
BRANCH   8   9
HETATM    9  C   UNL     1      40.929 -11.099   6.931  1.00  0.00     0.224 C 
HETATM   10  N   UNL     1      41.459 -11.080   8.204  1.00  0.00    -0.327 N 
HETATM   11  H   UNL     1      42.350 -11.559   8.345  1.00  0.00     0.169 HD
HETATM   12  O   UNL     1      39.939 -10.488   6.538  1.00  0.00    -0.273 OA
BRANCH  10  13
HETATM   13  C   UNL     1      40.980 -10.390   9.336  1.00  0.00     0.034 A 
HETATM   14  C   UNL     1      40.313 -10.992  10.399  1.00  0.00     0.032 A 
HETATM   15  C   UNL     1      39.874 -10.218  11.482  1.00  0.00     0.039 A 
HETATM   16  C   UNL     1      40.093  -8.839  11.515  1.00  0.00     0.068 A 
HETATM   17  C   UNL     1      40.763  -8.235  10.454  1.00  0.00     0.039 A 
HETATM   18  C   UNL     1      41.204  -9.008   9.373  1.00  0.00     0.032 A 
BRANCH  16  19
HETATM   19  O   UNL     1      39.611  -8.206  12.627  1.00  0.00    -0.356 OA
HETATM   20  C   UNL     1      38.204  -8.247  12.830  1.00  0.00     0.210 C 
ENDBRANCH  16  19
ENDBRANCH  10  13
ENDBRANCH   8   9
ENDBRANCH   7   8
BRANCH   1  21
HETATM   21  C   UNL     1      44.331 -12.484   7.678  1.00  0.00     0.133 C 
BRANCH  21  22
HETATM   22  C   UNL     1      44.785 -13.035   9.031  1.00  0.00     0.058 C 
BRANCH  22  23
HETATM   23  C   UNL     1      44.398 -12.107  10.155  1.00  0.00    -0.057 A 
HETATM   24  C   UNL     1      43.802 -12.610  11.317  1.00  0.00     0.010 A 
HETATM   25  C   UNL     1      43.411 -11.742  12.339  1.00  0.00     0.037 A 
HETATM   26  C   UNL     1      43.608 -10.365  12.222  1.00  0.00     0.068 A 
HETATM   27  C   UNL     1      44.197  -9.858  11.064  1.00  0.00     0.037 A 
HETATM   28  C   UNL     1      44.588 -10.725  10.036  1.00  0.00     0.010 A 
BRANCH  26  29
HETATM   29  O   UNL     1      43.179  -9.632  13.294  1.00  0.00    -0.356 OA
HETATM   30  C   UNL     1      42.367 -10.304  14.248  1.00  0.00     0.210 C 
ENDBRANCH  26  29
ENDBRANCH  22  23
ENDBRANCH  21  22
ENDBRANCH   1  21
BRANCH   4  31
HETATM   31  C   UNL     1      43.225 -16.345   4.753  1.00  0.00     0.047 A 
HETATM   32  C   UNL     1      43.408 -16.272   3.365  1.00  0.00     0.033 A 
HETATM   33  C   UNL     1      43.567 -17.428   2.585  1.00  0.00     0.039 A 
HETATM   34  C   UNL     1      43.538 -18.692   3.165  1.00  0.00     0.068 A 
HETATM   35  C   UNL     1      43.360 -18.789   4.539  1.00  0.00     0.039 A 
HETATM   36  C   UNL     1      43.210 -17.631   5.319  1.00  0.00     0.033 A 
BRANCH  34  37
HETATM   37  O   UNL     1      43.696 -19.733   2.296  1.00  0.00    -0.356 OA
HETATM   38  C   UNL     1      44.606 -20.758   2.679  1.00  0.00     0.210 C 
ENDBRANCH  34  37
ENDBRANCH   4  31
TORSDOF 10
ENDMDL
MODEL 10
REMARK VINA RESULT:      -7.9      2.786      8.834
REMARK  10 active torsions:
REMARK  status: ('A' for Active; 'I' for Inactive)
REMARK    1  A    between atoms: O_2  and  C_3 
REMARK    2  A    between atoms: C_6  and  C_7 
REMARK    3  A    between atoms: C_7  and  C_8 
REMARK    4  A    between atoms: C_8  and  N_9 
REMARK    5  A    between atoms: N_12  and  C_13 
REMARK    6  A    between atoms: C_16  and  O_17 
REMARK    7  A    between atoms: C_23  and  C_24 
REMARK    8  A    between atoms: C_24  and  C_25 
REMARK       I    between atoms: C_25  and  N_26 
REMARK    9  A    between atoms: N_26  and  C_27 
REMARK   10  A    between atoms: C_30  and  O_31 
ROOT
HETATM    1  N   UNL     1      42.312 -14.045   4.752  1.00  0.00    -0.319 N 
HETATM    2  C   UNL     1      42.392 -13.131   5.798  1.00  0.00     0.332 A 
HETATM    3  O   UNL     1      43.328 -13.106   6.585  1.00  0.00    -0.246 OA
HETATM    4  N   UNL     1      41.249 -12.355   5.791  1.00  0.00    -0.232 N 
HETATM    5  C   UNL     1      40.418 -12.785   4.782  1.00  0.00     0.256 A 
HETATM    6  O   UNL     1      39.286 -12.402   4.496  1.00  0.00    -0.270 OA
HETATM    7  C   UNL     1      41.105 -13.886   3.972  1.00  0.00     0.190 A 
ENDROOT
BRANCH   7   8
HETATM    8  C   UNL     1      40.201 -15.110   3.896  1.00  0.00     0.138 C 
BRANCH   8   9
HETATM    9  C   UNL     1      40.104 -15.596   2.460  1.00  0.00     0.224 C 
HETATM   10  N   UNL     1      40.088 -14.574   1.533  1.00  0.00    -0.327 N 
HETATM   11  H   UNL     1      40.227 -13.625   1.885  1.00  0.00     0.169 HD
HETATM   12  O   UNL     1      40.074 -16.800   2.224  1.00  0.00    -0.273 OA
BRANCH  10  13
HETATM   13  C   UNL     1      40.005 -14.673   0.130  1.00  0.00     0.034 A 
HETATM   14  C   UNL     1      39.011 -14.080  -0.642  1.00  0.00     0.032 A 
HETATM   15  C   UNL     1      39.015 -14.237  -2.035  1.00  0.00     0.039 A 
HETATM   16  C   UNL     1      40.008 -14.985  -2.671  1.00  0.00     0.068 A 
HETATM   17  C   UNL     1      41.007 -15.576  -1.900  1.00  0.00     0.039 A 
HETATM   18  C   UNL     1      41.004 -15.418  -0.509  1.00  0.00     0.032 A 
BRANCH  16  19
HETATM   19  O   UNL     1      39.892 -15.060  -4.030  1.00  0.00    -0.356 OA
HETATM   20  C   UNL     1      38.998 -16.039  -4.547  1.00  0.00     0.210 C 
ENDBRANCH  16  19
ENDBRANCH  10  13
ENDBRANCH   8   9
ENDBRANCH   7   8
BRANCH   1  21
HETATM   21  C   UNL     1      43.310 -15.083   4.508  1.00  0.00     0.133 C 
BRANCH  21  22
HETATM   22  C   UNL     1      43.150 -16.315   5.403  1.00  0.00     0.058 C 
BRANCH  22  23
HETATM   23  C   UNL     1      43.535 -17.575   4.669  1.00  0.00    -0.057 A 
HETATM   24  C   UNL     1      44.194 -18.613   5.338  1.00  0.00     0.010 A 
HETATM   25  C   UNL     1      44.582 -19.762   4.645  1.00  0.00     0.037 A 
HETATM   26  C   UNL     1      44.318 -19.896   3.280  1.00  0.00     0.068 A 
HETATM   27  C   UNL     1      43.666 -18.863   2.608  1.00  0.00     0.037 A 
HETATM   28  C   UNL     1      43.279 -17.709   3.299  1.00  0.00     0.010 A 
BRANCH  26  29
HETATM   29  O   UNL     1      44.752 -21.070   2.727  1.00  0.00    -0.356 OA
HETATM   30  C   UNL     1      43.902 -21.676   1.762  1.00  0.00     0.210 C 
ENDBRANCH  26  29
ENDBRANCH  22  23
ENDBRANCH  21  22
ENDBRANCH   1  21
BRANCH   4  31
HETATM   31  C   UNL     1      40.947 -11.319   6.729  1.00  0.00     0.047 A 
HETATM   32  C   UNL     1      39.969 -11.486   7.719  1.00  0.00     0.033 A 
HETATM   33  C   UNL     1      39.677 -10.468   8.639  1.00  0.00     0.039 A 
HETATM   34  C   UNL     1      40.344  -9.249   8.594  1.00  0.00     0.068 A 
HETATM   35  C   UNL     1      41.319  -9.060   7.621  1.00  0.00     0.039 A 
HETATM   36  C   UNL     1      41.616 -10.084   6.707  1.00  0.00     0.033 A 
BRANCH  34  37
HETATM   37  O   UNL     1      39.961  -8.341   9.539  1.00  0.00    -0.356 OA
HETATM   38  C   UNL     1      38.570  -8.055   9.629  1.00  0.00     0.210 C 
ENDBRANCH  34  37
ENDBRANCH   4  31
TORSDOF 10
ENDMDL
