MODEL 1
REMARK VINA RESULT:      -9.4      0.000      0.000
REMARK  3 active torsions:
REMARK  status: ('A' for Active; 'I' for Inactive)
REMARK    1  A    between atoms: C_6  and  N_7 
REMARK       I    between atoms: N_7  and  C_8 
REMARK    2  A    between atoms: C_8  and  C_9 
REMARK    3  A    between atoms: C_9  and  N_10 
ROOT
HETATM    1  N   UNL     1      43.076 -14.430   5.471  1.00  0.00    -0.224 N 
HETATM    2  N   UNL     1      44.334 -14.826   5.976  1.00  0.00    -0.180 NA
HETATM    3  C   UNL     1      44.843 -14.199   6.999  1.00  0.00     0.153 A 
HETATM    4  C   UNL     1      44.150 -13.103   7.611  1.00  0.00     0.028 A 
HETATM    5  C   UNL     1      42.950 -12.702   7.082  1.00  0.00     0.116 A 
HETATM    6  N   UNL     1      42.488 -11.645   7.813  1.00  0.00    -0.350 N 
HETATM    7  H   UNL     1      41.622 -11.153   7.635  1.00  0.00     0.166 HD
HETATM    8  C   UNL     1      43.382 -11.360   8.826  1.00  0.00     0.044 A 
HETATM    9  C   UNL     1      44.445 -12.267   8.717  1.00  0.00     0.005 A 
HETATM   10  C   UNL     1      43.334 -10.374   9.817  1.00  0.00     0.030 A 
HETATM   11  C   UNL     1      44.398 -10.310  10.722  1.00  0.00     0.002 A 
HETATM   12  C   UNL     1      45.468 -11.198  10.637  1.00  0.00     0.001 A 
HETATM   13  C   UNL     1      45.505 -12.181   9.641  1.00  0.00     0.014 A 
HETATM   14  C   UNL     1      42.344 -13.323   5.942  1.00  0.00     0.291 A 
HETATM   15  O   UNL     1      41.297 -12.921   5.446  1.00  0.00    -0.264 OA
ENDROOT
BRANCH   1  16
HETATM   16  C   UNL     1      42.636 -15.079   4.242  1.00  0.00     0.258 C 
BRANCH  16  17
HETATM   17  C   UNL     1      42.648 -16.622   4.230  1.00  0.00     0.244 C 
HETATM   18  N   UNL     1      43.487 -17.289   3.317  1.00  0.00    -0.321 N 
HETATM   19  C   UNL     1      44.000 -16.583   2.142  1.00  0.00     0.159 C 
HETATM   20  O   UNL     1      41.829 -17.186   4.965  1.00  0.00    -0.271 OA
BRANCH  18  21
HETATM   21  C   UNL     1      43.826 -18.695   3.432  1.00  0.00     0.037 A 
HETATM   22  C   UNL     1      43.684 -19.611   2.381  1.00  0.00     0.037 A 
HETATM   23  C   UNL     1      44.033 -20.975   2.506  1.00  0.00    -0.054 A 
HETATM   24  C   UNL     1      44.556 -21.449   3.719  1.00  0.00    -0.056 A 
HETATM   25  C   UNL     1      43.889 -21.871   1.305  1.00  0.00     0.049 C 
HETATM   26  C   UNL     1      44.955 -22.885   3.907  1.00  0.00     0.049 C 
HETATM   27  C   UNL     1      44.668 -20.558   4.789  1.00  0.00     0.009 A 
HETATM   28  C   UNL     1      44.311 -19.211   4.646  1.00  0.00     0.030 A 
ENDBRANCH  18  21
ENDBRANCH  16  17
ENDBRANCH   1  16
TORSDOF 3
ENDMDL
MODEL 2
REMARK VINA RESULT:      -9.1      4.972      8.853
REMARK  3 active torsions:
REMARK  status: ('A' for Active; 'I' for Inactive)
REMARK    1  A    between atoms: C_6  and  N_7 
REMARK       I    between atoms: N_7  and  C_8 
REMARK    2  A    between atoms: C_8  and  C_9 
REMARK    3  A    between atoms: C_9  and  N_10 
ROOT
HETATM    1  N   UNL     1      42.572 -16.418   2.013  1.00  0.00    -0.224 N 
HETATM    2  N   UNL     1      42.727 -17.338   0.953  1.00  0.00    -0.180 NA
HETATM    3  C   UNL     1      43.175 -18.536   1.201  1.00  0.00     0.153 A 
HETATM    4  C   UNL     1      43.526 -18.931   2.534  1.00  0.00     0.028 A 
HETATM    5  C   UNL     1      43.411 -18.013   3.546  1.00  0.00     0.116 A 
HETATM    6  N   UNL     1      43.809 -18.605   4.711  1.00  0.00    -0.350 N 
HETATM    7  H   UNL     1      43.828 -18.148   5.614  1.00  0.00     0.166 HD
HETATM    8  C   UNL     1      44.177 -19.912   4.462  1.00  0.00     0.044 A 
HETATM    9  C   UNL     1      44.010 -20.142   3.090  1.00  0.00     0.005 A 
HETATM   10  C   UNL     1      44.645 -20.898   5.338  1.00  0.00     0.030 A 
HETATM   11  C   UNL     1      44.952 -22.151   4.800  1.00  0.00     0.002 A 
HETATM   12  C   UNL     1      44.797 -22.408   3.440  1.00  0.00     0.001 A 
HETATM   13  C   UNL     1      44.327 -21.414   2.573  1.00  0.00     0.014 A 
HETATM   14  C   UNL     1      42.956 -16.670   3.345  1.00  0.00     0.291 A 
HETATM   15  O   UNL     1      42.908 -15.844   4.249  1.00  0.00    -0.264 OA
ENDROOT
BRANCH   1  16
HETATM   16  C   UNL     1      42.205 -15.057   1.644  1.00  0.00     0.258 C 
BRANCH  16  17
HETATM   17  C   UNL     1      40.914 -14.888   0.817  1.00  0.00     0.244 C 
HETATM   18  N   UNL     1      40.960 -14.130  -0.369  1.00  0.00    -0.321 N 
HETATM   19  C   UNL     1      42.055 -13.186  -0.593  1.00  0.00     0.159 C 
HETATM   20  O   UNL     1      39.878 -15.349   1.309  1.00  0.00    -0.271 OA
BRANCH  18  21
HETATM   21  C   UNL     1      39.919 -14.173  -1.379  1.00  0.00     0.037 A 
HETATM   22  C   UNL     1      39.907 -15.093  -2.436  1.00  0.00     0.037 A 
HETATM   23  C   UNL     1      38.877 -15.130  -3.404  1.00  0.00    -0.054 A 
HETATM   24  C   UNL     1      37.808 -14.225  -3.313  1.00  0.00    -0.056 A 
HETATM   25  C   UNL     1      38.928 -16.187  -4.473  1.00  0.00     0.049 C 
HETATM   26  C   UNL     1      36.680 -14.224  -4.305  1.00  0.00     0.049 C 
HETATM   27  C   UNL     1      37.824 -13.276  -2.288  1.00  0.00     0.009 A 
HETATM   28  C   UNL     1      38.857 -13.252  -1.343  1.00  0.00     0.030 A 
ENDBRANCH  18  21
ENDBRANCH  16  17
ENDBRANCH   1  16
TORSDOF 3
ENDMDL
MODEL 3
REMARK VINA RESULT:      -9.0      5.306      7.728
REMARK  3 active torsions:
REMARK  status: ('A' for Active; 'I' for Inactive)
REMARK    1  A    between atoms: C_6  and  N_7 
REMARK       I    between atoms: N_7  and  C_8 
REMARK    2  A    between atoms: C_8  and  C_9 
REMARK    3  A    between atoms: C_9  and  N_10 
ROOT
HETATM    1  N   UNL     1      41.380 -15.091  -0.164  1.00  0.00    -0.224 N 
HETATM    2  N   UNL     1      41.088 -15.385  -1.515  1.00  0.00    -0.180 NA
HETATM    3  C   UNL     1      41.271 -14.471  -2.426  1.00  0.00     0.153 A 
HETATM    4  C   UNL     1      41.753 -13.167  -2.076  1.00  0.00     0.028 A 
HETATM    5  C   UNL     1      41.991 -12.883  -0.756  1.00  0.00     0.116 A 
HETATM    6  N   UNL     1      42.426 -11.592  -0.665  1.00  0.00    -0.350 N 
HETATM    7  H   UNL     1      42.670 -11.124   0.199  1.00  0.00     0.166 HD
HETATM    8  C   UNL     1      42.481 -11.033  -1.926  1.00  0.00     0.044 A 
HETATM    9  C   UNL     1      42.056 -12.010  -2.837  1.00  0.00     0.005 A 
HETATM   10  C   UNL     1      42.865  -9.749  -2.326  1.00  0.00     0.030 A 
HETATM   11  C   UNL     1      42.815  -9.452  -3.691  1.00  0.00     0.002 A 
HETATM   12  C   UNL     1      42.395 -10.402  -4.619  1.00  0.00     0.001 A 
HETATM   13  C   UNL     1      42.014 -11.684  -4.207  1.00  0.00     0.014 A 
HETATM   14  C   UNL     1      41.783 -13.825   0.304  1.00  0.00     0.291 A 
HETATM   15  O   UNL     1      41.949 -13.542   1.485  1.00  0.00    -0.264 OA
ENDROOT
BRANCH   1  16
HETATM   16  C   UNL     1      41.016 -16.108   0.815  1.00  0.00     0.258 C 
BRANCH  16  17
HETATM   17  C   UNL     1      42.153 -17.017   1.325  1.00  0.00     0.244 C 
HETATM   18  N   UNL     1      42.084 -17.521   2.637  1.00  0.00    -0.321 N 
HETATM   19  C   UNL     1      41.214 -16.881   3.624  1.00  0.00     0.159 C 
HETATM   20  O   UNL     1      43.122 -17.164   0.572  1.00  0.00    -0.271 OA
BRANCH  18  21
HETATM   21  C   UNL     1      42.901 -18.624   3.108  1.00  0.00     0.037 A 
HETATM   22  C   UNL     1      43.231 -19.733   2.317  1.00  0.00     0.037 A 
HETATM   23  C   UNL     1      44.041 -20.792   2.787  1.00  0.00    -0.054 A 
HETATM   24  C   UNL     1      44.555 -20.744   4.092  1.00  0.00    -0.056 A 
HETATM   25  C   UNL     1      44.379 -21.916   1.845  1.00  0.00     0.049 C 
HETATM   26  C   UNL     1      45.430 -21.835   4.642  1.00  0.00     0.049 C 
HETATM   27  C   UNL     1      44.205 -19.665   4.907  1.00  0.00     0.009 A 
HETATM   28  C   UNL     1      43.397 -18.628   4.423  1.00  0.00     0.030 A 
ENDBRANCH  18  21
ENDBRANCH  16  17
ENDBRANCH   1  16
TORSDOF 3
ENDMDL
MODEL 4
REMARK VINA RESULT:      -9.0      4.506      9.009
REMARK  3 active torsions:
REMARK  status: ('A' for Active; 'I' for Inactive)
REMARK    1  A    between atoms: C_6  and  N_7 
REMARK       I    between atoms: N_7  and  C_8 
REMARK    2  A    between atoms: C_8  and  C_9 
REMARK    3  A    between atoms: C_9  and  N_10 
ROOT
HETATM    1  N   UNL     1      43.193 -16.221   2.766  1.00  0.00    -0.224 N 
HETATM    2  N   UNL     1      43.297 -16.963   1.569  1.00  0.00    -0.180 NA
HETATM    3  C   UNL     1      43.611 -18.226   1.620  1.00  0.00     0.153 A 
HETATM    4  C   UNL     1      43.864 -18.873   2.875  1.00  0.00     0.028 A 
HETATM    5  C   UNL     1      43.802 -18.129   4.025  1.00  0.00     0.116 A 
HETATM    6  N   UNL     1      44.090 -18.946   5.081  1.00  0.00    -0.350 N 
HETATM    7  H   UNL     1      44.118 -18.650   6.049  1.00  0.00     0.166 HD
HETATM    8  C   UNL     1      44.333 -20.225   4.623  1.00  0.00     0.044 A 
HETATM    9  C   UNL     1      44.200 -20.204   3.228  1.00  0.00     0.005 A 
HETATM   10  C   UNL     1      44.663 -21.387   5.330  1.00  0.00     0.030 A 
HETATM   11  C   UNL     1      44.862 -22.559   4.594  1.00  0.00     0.002 A 
HETATM   12  C   UNL     1      44.737 -22.568   3.206  1.00  0.00     0.001 A 
HETATM   13  C   UNL     1      44.407 -21.399   2.511  1.00  0.00     0.014 A 
HETATM   14  C   UNL     1      43.495 -16.730   4.045  1.00  0.00     0.291 A 
HETATM   15  O   UNL     1      43.494 -16.066   5.075  1.00  0.00    -0.264 OA
ENDROOT
BRANCH   1  16
HETATM   16  C   UNL     1      42.981 -14.786   2.625  1.00  0.00     0.258 C 
BRANCH  16  17
HETATM   17  C   UNL     1      41.719 -14.344   1.855  1.00  0.00     0.244 C 
HETATM   18  N   UNL     1      40.499 -14.243   2.550  1.00  0.00    -0.321 N 
HETATM   19  C   UNL     1      40.325 -14.933   3.829  1.00  0.00     0.159 C 
HETATM   20  O   UNL     1      41.839 -14.204   0.633  1.00  0.00    -0.271 OA
BRANCH  18  21
HETATM   21  C   UNL     1      39.344 -13.539   2.027  1.00  0.00     0.037 A 
HETATM   22  C   UNL     1      39.068 -12.193   2.307  1.00  0.00     0.037 A 
HETATM   23  C   UNL     1      37.945 -11.518   1.778  1.00  0.00    -0.054 A 
HETATM   24  C   UNL     1      37.065 -12.201   0.923  1.00  0.00    -0.056 A 
HETATM   25  C   UNL     1      37.761 -10.059   2.099  1.00  0.00     0.049 C 
HETATM   26  C   UNL     1      35.862 -11.532   0.321  1.00  0.00     0.049 C 
HETATM   27  C   UNL     1      37.304 -13.553   0.663  1.00  0.00     0.009 A 
HETATM   28  C   UNL     1      38.420 -14.205   1.204  1.00  0.00     0.030 A 
ENDBRANCH  18  21
ENDBRANCH  16  17
ENDBRANCH   1  16
TORSDOF 3
ENDMDL
MODEL 5
REMARK VINA RESULT:      -8.8      4.648      7.541
REMARK  3 active torsions:
REMARK  status: ('A' for Active; 'I' for Inactive)
REMARK    1  A    between atoms: C_6  and  N_7 
REMARK       I    between atoms: N_7  and  C_8 
REMARK    2  A    between atoms: C_8  and  C_9 
REMARK    3  A    between atoms: C_9  and  N_10 
ROOT
HETATM    1  N   UNL     1      41.425 -13.998   2.234  1.00  0.00    -0.224 N 
HETATM    2  N   UNL     1      42.230 -13.038   1.583  1.00  0.00    -0.180 NA
HETATM    3  C   UNL     1      41.855 -12.558   0.431  1.00  0.00     0.153 A 
HETATM    4  C   UNL     1      40.642 -13.001  -0.192  1.00  0.00     0.028 A 
HETATM    5  C   UNL     1      39.893 -13.966   0.431  1.00  0.00     0.116 A 
HETATM    6  N   UNL     1      38.803 -14.234  -0.346  1.00  0.00    -0.350 N 
HETATM    7  H   UNL     1      38.086 -14.912  -0.122  1.00  0.00     0.166 HD
HETATM    8  C   UNL     1      38.834 -13.439  -1.475  1.00  0.00     0.044 A 
HETATM    9  C   UNL     1      39.991 -12.652  -1.402  1.00  0.00     0.005 A 
HETATM   10  C   UNL     1      37.937 -13.362  -2.546  1.00  0.00     0.030 A 
HETATM   11  C   UNL     1      38.229 -12.458  -3.572  1.00  0.00     0.002 A 
HETATM   12  C   UNL     1      39.372 -11.663  -3.527  1.00  0.00     0.001 A 
HETATM   13  C   UNL     1      40.261 -11.749  -2.449  1.00  0.00     0.014 A 
HETATM   14  C   UNL     1      40.258 -14.562   1.682  1.00  0.00     0.291 A 
HETATM   15  O   UNL     1      39.607 -15.461   2.203  1.00  0.00    -0.264 OA
ENDROOT
BRANCH   1  16
HETATM   16  C   UNL     1      41.976 -14.595   3.444  1.00  0.00     0.258 C 
BRANCH  16  17
HETATM   17  C   UNL     1      42.876 -15.834   3.259  1.00  0.00     0.244 C 
HETATM   18  N   UNL     1      42.447 -17.070   3.780  1.00  0.00    -0.321 N 
HETATM   19  C   UNL     1      41.419 -17.110   4.821  1.00  0.00     0.159 C 
HETATM   20  O   UNL     1      43.983 -15.641   2.746  1.00  0.00    -0.271 OA
BRANCH  18  21
HETATM   21  C   UNL     1      43.031 -18.340   3.393  1.00  0.00     0.037 A 
HETATM   22  C   UNL     1      43.842 -19.108   4.240  1.00  0.00     0.037 A 
HETATM   23  C   UNL     1      44.391 -20.351   3.851  1.00  0.00    -0.054 A 
HETATM   24  C   UNL     1      44.115 -20.860   2.573  1.00  0.00    -0.056 A 
HETATM   25  C   UNL     1      45.210 -21.124   4.849  1.00  0.00     0.049 C 
HETATM   26  C   UNL     1      44.661 -22.181   2.107  1.00  0.00     0.049 C 
HETATM   27  C   UNL     1      43.340 -20.091   1.701  1.00  0.00     0.009 A 
HETATM   28  C   UNL     1      42.811 -18.858   2.105  1.00  0.00     0.030 A 
ENDBRANCH  18  21
ENDBRANCH  16  17
ENDBRANCH   1  16
TORSDOF 3
ENDMDL
MODEL 6
REMARK VINA RESULT:      -8.8      3.461      8.804
REMARK  3 active torsions:
REMARK  status: ('A' for Active; 'I' for Inactive)
REMARK    1  A    between atoms: C_6  and  N_7 
REMARK       I    between atoms: N_7  and  C_8 
REMARK    2  A    between atoms: C_8  and  C_9 
REMARK    3  A    between atoms: C_9  and  N_10 
ROOT
HETATM    1  N   UNL     1      42.466 -16.232   4.819  1.00  0.00    -0.224 N 
HETATM    2  N   UNL     1      42.068 -16.384   3.472  1.00  0.00    -0.180 NA
HETATM    3  C   UNL     1      42.384 -17.471   2.827  1.00  0.00     0.153 A 
HETATM    4  C   UNL     1      43.141 -18.510   3.460  1.00  0.00     0.028 A 
HETATM    5  C   UNL     1      43.558 -18.330   4.754  1.00  0.00     0.116 A 
HETATM    6  N   UNL     1      44.265 -19.433   5.136  1.00  0.00    -0.350 N 
HETATM    7  H   UNL     1      44.691 -19.560   6.046  1.00  0.00     0.166 HD
HETATM    8  C   UNL     1      44.305 -20.340   4.096  1.00  0.00     0.044 A 
HETATM    9  C   UNL     1      43.603 -19.777   3.022  1.00  0.00     0.005 A 
HETATM   10  C   UNL     1      44.907 -21.601   4.023  1.00  0.00     0.030 A 
HETATM   11  C   UNL     1      44.791 -22.307   2.822  1.00  0.00     0.002 A 
HETATM   12  C   UNL     1      44.100 -21.772   1.737  1.00  0.00     0.001 A 
HETATM   13  C   UNL     1      43.501 -20.509   1.822  1.00  0.00     0.014 A 
HETATM   14  C   UNL     1      43.276 -17.150   5.515  1.00  0.00     0.291 A 
HETATM   15  O   UNL     1      43.699 -16.978   6.653  1.00  0.00    -0.264 OA
ENDROOT
BRANCH   1  16
HETATM   16  C   UNL     1      42.204 -14.935   5.431  1.00  0.00     0.258 C 
BRANCH  16  17
HETATM   17  C   UNL     1      40.955 -14.175   4.938  1.00  0.00     0.244 C 
HETATM   18  N   UNL     1      41.076 -13.315   3.830  1.00  0.00    -0.321 N 
HETATM   19  C   UNL     1      42.392 -12.819   3.426  1.00  0.00     0.159 C 
HETATM   20  O   UNL     1      39.932 -14.292   5.621  1.00  0.00    -0.271 OA
BRANCH  18  21
HETATM   21  C   UNL     1      39.935 -12.814   3.087  1.00  0.00     0.037 A 
HETATM   22  C   UNL     1      39.259 -13.562   2.113  1.00  0.00     0.037 A 
HETATM   23  C   UNL     1      38.140 -13.063   1.408  1.00  0.00    -0.054 A 
HETATM   24  C   UNL     1      37.663 -11.773   1.689  1.00  0.00    -0.056 A 
HETATM   25  C   UNL     1      37.453 -13.961   0.415  1.00  0.00     0.049 C 
HETATM   26  C   UNL     1      36.471 -11.194   0.980  1.00  0.00     0.049 C 
HETATM   27  C   UNL     1      38.347 -10.999   2.629  1.00  0.00     0.009 A 
HETATM   28  C   UNL     1      39.458 -11.511   3.312  1.00  0.00     0.030 A 
ENDBRANCH  18  21
ENDBRANCH  16  17
ENDBRANCH   1  16
TORSDOF 3
ENDMDL
MODEL 7
REMARK VINA RESULT:      -8.7      4.732      8.845
REMARK  3 active torsions:
REMARK  status: ('A' for Active; 'I' for Inactive)
REMARK    1  A    between atoms: C_6  and  N_7 
REMARK       I    between atoms: N_7  and  C_8 
REMARK    2  A    between atoms: C_8  and  C_9 
REMARK    3  A    between atoms: C_9  and  N_10 
ROOT
HETATM    1  N   UNL     1      40.705 -15.843   2.640  1.00  0.00    -0.224 N 
HETATM    2  N   UNL     1      40.729 -16.588   1.440  1.00  0.00    -0.180 NA
HETATM    3  C   UNL     1      41.460 -17.664   1.366  1.00  0.00     0.153 A 
HETATM    4  C   UNL     1      42.250 -18.097   2.482  1.00  0.00     0.028 A 
HETATM    5  C   UNL     1      42.250 -17.340   3.625  1.00  0.00     0.116 A 
HETATM    6  N   UNL     1      43.076 -17.934   4.535  1.00  0.00    -0.350 N 
HETATM    7  H   UNL     1      43.262 -17.579   5.464  1.00  0.00     0.166 HD
HETATM    8  C   UNL     1      43.611 -19.084   3.991  1.00  0.00     0.044 A 
HETATM    9  C   UNL     1      43.105 -19.208   2.690  1.00  0.00     0.005 A 
HETATM   10  C   UNL     1      44.498 -20.014   4.545  1.00  0.00     0.030 A 
HETATM   11  C   UNL     1      44.881 -21.098   3.750  1.00  0.00     0.002 A 
HETATM   12  C   UNL     1      44.396 -21.246   2.452  1.00  0.00     0.001 A 
HETATM   13  C   UNL     1      43.508 -20.310   1.909  1.00  0.00     0.014 A 
HETATM   14  C   UNL     1      41.498 -16.129   3.768  1.00  0.00     0.291 A 
HETATM   15  O   UNL     1      41.547 -15.433   4.776  1.00  0.00    -0.264 OA
ENDROOT
BRANCH   1  16
HETATM   16  C   UNL     1      39.982 -14.578   2.603  1.00  0.00     0.258 C 
BRANCH  16  17
HETATM   17  C   UNL     1      40.090 -13.755   1.303  1.00  0.00     0.244 C 
HETATM   18  N   UNL     1      41.322 -13.157   0.977  1.00  0.00    -0.321 N 
HETATM   19  C   UNL     1      42.334 -12.950   2.013  1.00  0.00     0.159 C 
HETATM   20  O   UNL     1      39.043 -13.582   0.670  1.00  0.00    -0.271 OA
BRANCH  18  21
HETATM   21  C   UNL     1      41.633 -12.650  -0.347  1.00  0.00     0.037 A 
HETATM   22  C   UNL     1      42.330 -11.455  -0.573  1.00  0.00     0.037 A 
HETATM   23  C   UNL     1      42.636 -10.984  -1.869  1.00  0.00    -0.054 A 
HETATM   24  C   UNL     1      42.247 -11.734  -2.989  1.00  0.00    -0.056 A 
HETATM   25  C   UNL     1      43.431  -9.713  -2.007  1.00  0.00     0.049 C 
HETATM   26  C   UNL     1      42.555 -11.289  -4.391  1.00  0.00     0.049 C 
HETATM   27  C   UNL     1      41.518 -12.909  -2.785  1.00  0.00     0.009 A 
HETATM   28  C   UNL     1      41.220 -13.355  -1.491  1.00  0.00     0.030 A 
ENDBRANCH  18  21
ENDBRANCH  16  17
ENDBRANCH   1  16
TORSDOF 3
ENDMDL
MODEL 8
REMARK VINA RESULT:      -8.7      4.445      8.315
REMARK  3 active torsions:
REMARK  status: ('A' for Active; 'I' for Inactive)
REMARK    1  A    between atoms: C_6  and  N_7 
REMARK       I    between atoms: N_7  and  C_8 
REMARK    2  A    between atoms: C_8  and  C_9 
REMARK    3  A    between atoms: C_9  and  N_10 
ROOT
HETATM    1  N   UNL     1      43.150 -15.966   3.048  1.00  0.00    -0.224 N 
HETATM    2  N   UNL     1      42.834 -16.025   4.424  1.00  0.00    -0.180 NA
HETATM    3  C   UNL     1      43.050 -17.126   5.086  1.00  0.00     0.153 A 
HETATM    4  C   UNL     1      43.593 -18.283   4.436  1.00  0.00     0.028 A 
HETATM    5  C   UNL     1      43.853 -18.224   3.091  1.00  0.00     0.116 A 
HETATM    6  N   UNL     1      44.346 -19.434   2.694  1.00  0.00    -0.350 N 
HETATM    7  H   UNL     1      44.617 -19.665   1.747  1.00  0.00     0.166 HD
HETATM    8  C   UNL     1      44.415 -20.283   3.781  1.00  0.00     0.044 A 
HETATM    9  C   UNL     1      43.941 -19.579   4.895  1.00  0.00     0.005 A 
HETATM   10  C   UNL     1      44.854 -21.609   3.860  1.00  0.00     0.030 A 
HETATM   11  C   UNL     1      44.806 -22.235   5.110  1.00  0.00     0.002 A 
HETATM   12  C   UNL     1      44.338 -21.560   6.235  1.00  0.00     0.001 A 
HETATM   13  C   UNL     1      43.902 -20.232   6.143  1.00  0.00     0.014 A 
HETATM   14  C   UNL     1      43.612 -17.060   2.292  1.00  0.00     0.291 A 
HETATM   15  O   UNL     1      43.800 -17.037   1.080  1.00  0.00    -0.264 OA
ENDROOT
BRANCH   1  16
HETATM   16  C   UNL     1      42.749 -14.755   2.342  1.00  0.00     0.258 C 
BRANCH  16  17
HETATM   17  C   UNL     1      41.467 -14.844   1.488  1.00  0.00     0.244 C 
HETATM   18  N   UNL     1      41.271 -13.907   0.456  1.00  0.00    -0.321 N 
HETATM   19  C   UNL     1      42.018 -12.648   0.457  1.00  0.00     0.159 C 
HETATM   20  O   UNL     1      40.628 -15.681   1.837  1.00  0.00    -0.271 OA
BRANCH  18  21
HETATM   21  C   UNL     1      40.293 -14.083  -0.601  1.00  0.00     0.037 A 
HETATM   22  C   UNL     1      40.508 -14.893  -1.725  1.00  0.00     0.037 A 
HETATM   23  C   UNL     1      39.538 -15.065  -2.738  1.00  0.00    -0.054 A 
HETATM   24  C   UNL     1      38.298 -14.417  -2.628  1.00  0.00    -0.056 A 
HETATM   25  C   UNL     1      39.845 -15.994  -3.882  1.00  0.00     0.049 C 
HETATM   26  C   UNL     1      37.224 -14.571  -3.667  1.00  0.00     0.049 C 
HETATM   27  C   UNL     1      38.080 -13.576  -1.533  1.00  0.00     0.009 A 
HETATM   28  C   UNL     1      39.058 -13.414  -0.543  1.00  0.00     0.030 A 
ENDBRANCH  18  21
ENDBRANCH  16  17
ENDBRANCH   1  16
TORSDOF 3
ENDMDL
MODEL 9
REMARK VINA RESULT:      -8.6      2.959      9.259
REMARK  3 active torsions:
REMARK  status: ('A' for Active; 'I' for Inactive)
REMARK    1  A    between atoms: C_6  and  N_7 
REMARK       I    between atoms: N_7  and  C_8 
REMARK    2  A    between atoms: C_8  and  C_9 
REMARK    3  A    between atoms: C_9  and  N_10 
ROOT
HETATM    1  N   UNL     1      43.347 -15.950   5.026  1.00  0.00    -0.224 N 
HETATM    2  N   UNL     1      42.869 -16.004   3.698  1.00  0.00    -0.180 NA
HETATM    3  C   UNL     1      42.968 -17.114   3.024  1.00  0.00     0.153 A 
HETATM    4  C   UNL     1      43.567 -18.279   3.606  1.00  0.00     0.028 A 
HETATM    5  C   UNL     1      44.066 -18.199   4.881  1.00  0.00     0.116 A 
HETATM    6  N   UNL     1      44.595 -19.413   5.213  1.00  0.00    -0.350 N 
HETATM    7  H   UNL     1      45.034 -19.629   6.100  1.00  0.00     0.166 HD
HETATM    8  C   UNL     1      44.435 -20.291   4.160  1.00  0.00     0.044 A 
HETATM    9  C   UNL     1      43.789 -19.596   3.128  1.00  0.00     0.005 A 
HETATM   10  C   UNL     1      44.813 -21.633   4.041  1.00  0.00     0.030 A 
HETATM   11  C   UNL     1      44.525 -22.283   2.838  1.00  0.00     0.002 A 
HETATM   12  C   UNL     1      43.886 -21.617   1.794  1.00  0.00     0.001 A 
HETATM   13  C   UNL     1      43.512 -20.275   1.925  1.00  0.00     0.014 A 
HETATM   14  C   UNL     1      44.022 -17.005   5.671  1.00  0.00     0.291 A 
HETATM   15  O   UNL     1      44.519 -16.931   6.789  1.00  0.00    -0.264 OA
ENDROOT
BRANCH   1  16
HETATM   16  C   UNL     1      43.334 -14.641   5.668  1.00  0.00     0.258 C 
BRANCH  16  17
HETATM   17  C   UNL     1      42.445 -13.560   5.020  1.00  0.00     0.244 C 
HETATM   18  N   UNL     1      41.071 -13.537   5.325  1.00  0.00    -0.321 N 
HETATM   19  C   UNL     1      40.423 -14.726   5.880  1.00  0.00     0.159 C 
HETATM   20  O   UNL     1      42.984 -12.833   4.178  1.00  0.00    -0.271 OA
BRANCH  18  21
HETATM   21  C   UNL     1      40.215 -12.399   5.047  1.00  0.00     0.037 A 
HETATM   22  C   UNL     1      40.134 -11.273   5.878  1.00  0.00     0.037 A 
HETATM   23  C   UNL     1      39.305 -10.166   5.585  1.00  0.00    -0.054 A 
HETATM   24  C   UNL     1      38.534 -10.169   4.412  1.00  0.00    -0.056 A 
HETATM   25  C   UNL     1      39.323  -8.983   6.515  1.00  0.00     0.049 C 
HETATM   26  C   UNL     1      37.644  -9.017   4.042  1.00  0.00     0.049 C 
HETATM   27  C   UNL     1      38.574 -11.299   3.591  1.00  0.00     0.009 A 
HETATM   28  C   UNL     1      39.398 -12.389   3.904  1.00  0.00     0.030 A 
ENDBRANCH  18  21
ENDBRANCH  16  17
ENDBRANCH   1  16
TORSDOF 3
ENDMDL
MODEL 10
REMARK VINA RESULT:      -8.4      4.979      9.297
REMARK  3 active torsions:
REMARK  status: ('A' for Active; 'I' for Inactive)
REMARK    1  A    between atoms: C_6  and  N_7 
REMARK       I    between atoms: N_7  and  C_8 
REMARK    2  A    between atoms: C_8  and  C_9 
REMARK    3  A    between atoms: C_9  and  N_10 
ROOT
HETATM    1  N   UNL     1      41.238 -15.603   2.148  1.00  0.00    -0.224 N 
HETATM    2  N   UNL     1      41.176 -16.487   1.047  1.00  0.00    -0.180 NA
HETATM    3  C   UNL     1      41.795 -17.632   1.108  1.00  0.00     0.153 A 
HETATM    4  C   UNL     1      42.549 -18.003   2.269  1.00  0.00     0.028 A 
HETATM    5  C   UNL     1      42.635 -17.116   3.312  1.00  0.00     0.116 A 
HETATM    6  N   UNL     1      43.406 -17.675   4.290  1.00  0.00    -0.350 N 
HETATM    7  H   UNL     1      43.635 -17.231   5.170  1.00  0.00     0.166 HD
HETATM    8  C   UNL     1      43.818 -18.931   3.892  1.00  0.00     0.044 A 
HETATM    9  C   UNL     1      43.291 -19.161   2.614  1.00  0.00     0.005 A 
HETATM   10  C   UNL     1      44.613 -19.871   4.557  1.00  0.00     0.030 A 
HETATM   11  C   UNL     1      44.879 -21.076   3.901  1.00  0.00     0.002 A 
HETATM   12  C   UNL     1      44.370 -21.331   2.630  1.00  0.00     0.001 A 
HETATM   13  C   UNL     1      43.574 -20.384   1.975  1.00  0.00     0.014 A 
HETATM   14  C   UNL     1      42.008 -15.828   3.305  1.00  0.00     0.291 A 
HETATM   15  O   UNL     1      42.137 -15.023   4.221  1.00  0.00    -0.264 OA
ENDROOT
BRANCH   1  16
HETATM   16  C   UNL     1      40.645 -14.285   1.955  1.00  0.00     0.258 C 
BRANCH  16  17
HETATM   17  C   UNL     1      41.387 -13.323   1.005  1.00  0.00     0.244 C 
HETATM   18  N   UNL     1      40.799 -13.000  -0.232  1.00  0.00    -0.321 N 
HETATM   19  C   UNL     1      39.752 -13.855  -0.792  1.00  0.00     0.159 C 
HETATM   20  O   UNL     1      42.521 -12.972   1.351  1.00  0.00    -0.271 OA
BRANCH  18  21
HETATM   21  C   UNL     1      41.229 -11.879  -1.046  1.00  0.00     0.037 A 
HETATM   22  C   UNL     1      41.654 -12.008  -2.375  1.00  0.00     0.037 A 
HETATM   23  C   UNL     1      42.057 -10.903  -3.159  1.00  0.00    -0.054 A 
HETATM   24  C   UNL     1      42.023  -9.613  -2.607  1.00  0.00    -0.056 A 
HETATM   25  C   UNL     1      42.452 -11.139  -4.592  1.00  0.00     0.049 C 
HETATM   26  C   UNL     1      42.428  -8.399  -3.395  1.00  0.00     0.049 C 
HETATM   27  C   UNL     1      41.638  -9.469  -1.272  1.00  0.00     0.009 A 
HETATM   28  C   UNL     1      41.249 -10.579  -0.510  1.00  0.00     0.030 A 
ENDBRANCH  18  21
ENDBRANCH  16  17
ENDBRANCH   1  16
TORSDOF 3
ENDMDL
