MODEL 1
REMARK VINA RESULT:      -8.9      0.000      0.000
REMARK  2 active torsions:
REMARK  status: ('A' for Active; 'I' for Inactive)
REMARK    1  A    between atoms: C_8  and  C_9 
REMARK       I    between atoms: N_10  and  C_11 
REMARK    2  A    between atoms: C_11  and  C_12 
ROOT
HETATM    1  C   UNL     1      41.186 -14.456   2.063  1.00  0.00     0.124 C 
HETATM    2  N   UNL     1      41.702 -15.779   2.409  1.00  0.00    -0.339 N 
HETATM    3  C   UNL     1      43.038 -15.938   2.711  1.00  0.00     0.260 C 
HETATM    4  O   UNL     1      43.839 -15.002   2.666  1.00  0.00    -0.267 OA
HETATM    5  C   UNL     1      40.613 -16.691   2.734  1.00  0.00     0.127 C 
HETATM    6  C   UNL     1      39.368 -16.027   2.168  1.00  0.00     0.022 C 
HETATM    7  C   UNL     1      39.677 -14.546   2.327  1.00  0.00     0.032 C 
ENDROOT
BRANCH   1   8
HETATM    8  C   UNL     1      41.505 -14.055   0.648  1.00  0.00     0.014 A 
HETATM    9  C   UNL     1      41.560 -14.785  -0.530  1.00  0.00     0.034 A 
HETATM   10  C   UNL     1      41.358 -16.218  -0.849  1.00  0.00     0.070 C 
HETATM   11  N   UNL     1      41.922 -13.901  -1.507  1.00  0.00    -0.282 N 
HETATM   12  H   UNL     1      42.084 -14.091  -2.490  1.00  0.00     0.189 HD
HETATM   13  N   UNL     1      42.070 -12.644  -1.077  1.00  0.00    -0.179 NA
HETATM   14  C   UNL     1      41.847 -12.726   0.238  1.00  0.00     0.061 A 
HETATM   15  C   UNL     1      41.963 -11.511   1.083  1.00  0.00     0.073 C 
ENDBRANCH   1   8
BRANCH   3  16
HETATM   16  C   UNL     1      43.513 -17.256   3.210  1.00  0.00     0.108 A 
HETATM   17  C   UNL     1      43.821 -17.521   4.630  1.00  0.00     0.304 A 
HETATM   18  O   UNL     1      43.713 -16.673   5.509  1.00  0.00    -0.259 OA
HETATM   19  O   UNL     1      44.268 -18.804   4.944  1.00  0.00    -0.274 OA
HETATM   20  C   UNL     1      44.275 -19.838   3.991  1.00  0.00     0.089 A 
HETATM   21  C   UNL     1      43.903 -19.590   2.674  1.00  0.00    -0.001 A 
HETATM   22  C   UNL     1      44.640 -21.110   4.423  1.00  0.00     0.038 A 
HETATM   23  C   UNL     1      43.886 -20.651   1.767  1.00  0.00     0.014 A 
HETATM   24  C   UNL     1      43.536 -18.237   2.295  1.00  0.00     0.037 A 
HETATM   25  C   UNL     1      44.241 -21.937   2.188  1.00  0.00     0.001 A 
HETATM   26  C   UNL     1      44.621 -22.165   3.513  1.00  0.00     0.003 A 
ENDBRANCH   3  16
TORSDOF 2
ENDMDL
MODEL 2
REMARK VINA RESULT:      -8.7      1.835      2.212
REMARK  2 active torsions:
REMARK  status: ('A' for Active; 'I' for Inactive)
REMARK    1  A    between atoms: C_8  and  C_9 
REMARK       I    between atoms: N_10  and  C_11 
REMARK    2  A    between atoms: C_11  and  C_12 
ROOT
HETATM    1  C   UNL     1      41.495 -14.428   4.535  1.00  0.00     0.124 C 
HETATM    2  N   UNL     1      41.961 -15.813   4.497  1.00  0.00    -0.339 N 
HETATM    3  C   UNL     1      43.098 -16.136   3.788  1.00  0.00     0.260 C 
HETATM    4  O   UNL     1      43.731 -15.299   3.143  1.00  0.00    -0.267 OA
HETATM    5  C   UNL     1      41.322 -16.604   5.542  1.00  0.00     0.127 C 
HETATM    6  C   UNL     1      40.118 -15.780   5.971  1.00  0.00     0.022 C 
HETATM    7  C   UNL     1      40.605 -14.351   5.783  1.00  0.00     0.032 C 
ENDROOT
BRANCH   1   8
HETATM    8  C   UNL     1      40.772 -14.018   3.281  1.00  0.00     0.014 A 
HETATM    9  C   UNL     1      40.143 -14.761   2.292  1.00  0.00     0.034 A 
HETATM   10  C   UNL     1      39.963 -16.214   2.071  1.00  0.00     0.070 C 
HETATM   11  N   UNL     1      39.676 -13.857   1.380  1.00  0.00    -0.282 N 
HETATM   12  H   UNL     1      39.186 -14.044   0.512  1.00  0.00     0.189 HD
HETATM   13  N   UNL     1      39.909 -12.582   1.708  1.00  0.00    -0.179 NA
HETATM   14  C   UNL     1      40.600 -12.664   2.847  1.00  0.00     0.061 A 
HETATM   15  C   UNL     1      41.083 -11.426   3.509  1.00  0.00     0.073 C 
ENDBRANCH   1   8
BRANCH   3  16
HETATM   16  C   UNL     1      43.642 -17.516   3.887  1.00  0.00     0.108 A 
HETATM   17  C   UNL     1      44.335 -18.030   5.087  1.00  0.00     0.304 A 
HETATM   18  O   UNL     1      44.519 -17.356   6.094  1.00  0.00    -0.259 OA
HETATM   19  O   UNL     1      44.800 -19.343   5.026  1.00  0.00    -0.274 OA
HETATM   20  C   UNL     1      44.490 -20.188   3.945  1.00  0.00     0.089 A 
HETATM   21  C   UNL     1      43.766 -19.711   2.858  1.00  0.00    -0.001 A 
HETATM   22  C   UNL     1      44.912 -21.512   4.021  1.00  0.00     0.038 A 
HETATM   23  C   UNL     1      43.445 -20.590   1.822  1.00  0.00     0.014 A 
HETATM   24  C   UNL     1      43.361 -18.316   2.846  1.00  0.00     0.037 A 
HETATM   25  C   UNL     1      43.853 -21.926   1.889  1.00  0.00     0.001 A 
HETATM   26  C   UNL     1      44.589 -22.385   2.984  1.00  0.00     0.003 A 
ENDBRANCH   3  16
TORSDOF 2
ENDMDL
MODEL 3
REMARK VINA RESULT:      -8.2      2.008      2.954
REMARK  2 active torsions:
REMARK  status: ('A' for Active; 'I' for Inactive)
REMARK    1  A    between atoms: C_8  and  C_9 
REMARK       I    between atoms: N_10  and  C_11 
REMARK    2  A    between atoms: C_11  and  C_12 
ROOT
HETATM    1  C   UNL     1      40.922 -13.498   1.632  1.00  0.00     0.124 C 
HETATM    2  N   UNL     1      41.369 -14.688   2.355  1.00  0.00    -0.339 N 
HETATM    3  C   UNL     1      42.638 -14.729   2.892  1.00  0.00     0.260 C 
HETATM    4  O   UNL     1      43.440 -13.804   2.756  1.00  0.00    -0.267 OA
HETATM    5  C   UNL     1      40.237 -15.536   2.709  1.00  0.00     0.127 C 
HETATM    6  C   UNL     1      39.103 -15.062   1.815  1.00  0.00     0.022 C 
HETATM    7  C   UNL     1      39.389 -13.574   1.670  1.00  0.00     0.032 C 
ENDROOT
BRANCH   1   8
HETATM    8  C   UNL     1      41.466 -13.425   0.232  1.00  0.00     0.014 A 
HETATM    9  C   UNL     1      41.582 -14.382  -0.766  1.00  0.00     0.034 A 
HETATM   10  C   UNL     1      41.251 -15.824  -0.836  1.00  0.00     0.070 C 
HETATM   11  N   UNL     1      42.171 -13.753  -1.827  1.00  0.00    -0.282 N 
HETATM   12  H   UNL     1      42.433 -14.154  -2.721  1.00  0.00     0.189 HD
HETATM   13  N   UNL     1      42.413 -12.454  -1.624  1.00  0.00    -0.179 NA
HETATM   14  C   UNL     1      42.016 -12.246  -0.366  1.00  0.00     0.061 A 
HETATM   15  C   UNL     1      42.169 -10.900   0.243  1.00  0.00     0.073 C 
ENDBRANCH   1   8
BRANCH   3  16
HETATM   16  C   UNL     1      43.020 -15.879   3.754  1.00  0.00     0.108 A 
HETATM   17  C   UNL     1      43.649 -17.109   3.231  1.00  0.00     0.304 A 
HETATM   18  O   UNL     1      43.903 -17.279   2.044  1.00  0.00    -0.259 OA
HETATM   19  O   UNL     1      43.941 -18.106   4.162  1.00  0.00    -0.274 OA
HETATM   20  C   UNL     1      43.791 -17.894   5.544  1.00  0.00     0.089 A 
HETATM   21  C   UNL     1      43.272 -16.697   6.025  1.00  0.00    -0.001 A 
HETATM   22  C   UNL     1      44.204 -18.911   6.400  1.00  0.00     0.038 A 
HETATM   23  C   UNL     1      43.175 -16.510   7.405  1.00  0.00     0.014 A 
HETATM   24  C   UNL     1      42.859 -15.682   5.072  1.00  0.00     0.037 A 
HETATM   25  C   UNL     1      43.595 -17.518   8.278  1.00  0.00     0.001 A 
HETATM   26  C   UNL     1      44.105 -18.718   7.776  1.00  0.00     0.003 A 
ENDBRANCH   3  16
TORSDOF 2
ENDMDL
MODEL 4
REMARK VINA RESULT:      -8.1      2.167      3.145
REMARK  2 active torsions:
REMARK  status: ('A' for Active; 'I' for Inactive)
REMARK    1  A    between atoms: C_8  and  C_9 
REMARK       I    between atoms: N_10  and  C_11 
REMARK    2  A    between atoms: C_11  and  C_12 
ROOT
HETATM    1  C   UNL     1      41.431 -14.159  -0.363  1.00  0.00     0.124 C 
HETATM    2  N   UNL     1      41.724 -14.864   0.884  1.00  0.00    -0.339 N 
HETATM    3  C   UNL     1      41.708 -16.242   0.914  1.00  0.00     0.260 C 
HETATM    4  O   UNL     1      41.416 -16.918  -0.074  1.00  0.00    -0.267 OA
HETATM    5  C   UNL     1      42.354 -13.971   1.849  1.00  0.00     0.127 C 
HETATM    6  C   UNL     1      42.062 -12.572   1.332  1.00  0.00     0.022 C 
HETATM    7  C   UNL     1      42.053 -12.768  -0.177  1.00  0.00     0.032 C 
ENDROOT
BRANCH   1   8
HETATM    8  C   UNL     1      39.960 -14.101  -0.671  1.00  0.00     0.014 A 
HETATM    9  C   UNL     1      38.847 -13.995   0.150  1.00  0.00     0.034 A 
HETATM   10  C   UNL     1      38.669 -13.927   1.619  1.00  0.00     0.070 C 
HETATM   11  N   UNL     1      37.761 -14.009  -0.681  1.00  0.00    -0.282 N 
HETATM   12  H   UNL     1      36.781 -13.975  -0.424  1.00  0.00     0.189 HD
HETATM   13  N   UNL     1      38.071 -14.073  -1.980  1.00  0.00    -0.179 NA
HETATM   14  C   UNL     1      39.403 -14.158  -1.989  1.00  0.00     0.061 A 
HETATM   15  C   UNL     1      40.125 -14.290  -3.280  1.00  0.00     0.073 C 
ENDBRANCH   1   8
BRANCH   3  16
HETATM   16  C   UNL     1      42.158 -16.942   2.146  1.00  0.00     0.108 A 
HETATM   17  C   UNL     1      41.506 -16.770   3.460  1.00  0.00     0.304 A 
HETATM   18  O   UNL     1      40.544 -16.032   3.639  1.00  0.00    -0.259 OA
HETATM   19  O   UNL     1      42.050 -17.486   4.527  1.00  0.00    -0.274 OA
HETATM   20  C   UNL     1      43.062 -18.443   4.335  1.00  0.00     0.089 A 
HETATM   21  C   UNL     1      43.610 -18.651   3.074  1.00  0.00    -0.001 A 
HETATM   22  C   UNL     1      43.469 -19.181   5.442  1.00  0.00     0.038 A 
HETATM   23  C   UNL     1      44.587 -19.637   2.917  1.00  0.00     0.014 A 
HETATM   24  C   UNL     1      43.138 -17.842   1.964  1.00  0.00     0.037 A 
HETATM   25  C   UNL     1      44.999 -20.394   4.018  1.00  0.00     0.001 A 
HETATM   26  C   UNL     1      44.444 -20.164   5.280  1.00  0.00     0.003 A 
ENDBRANCH   3  16
TORSDOF 2
ENDMDL
MODEL 5
REMARK VINA RESULT:      -8.0      0.196      1.625
REMARK  2 active torsions:
REMARK  status: ('A' for Active; 'I' for Inactive)
REMARK    1  A    between atoms: C_8  and  C_9 
REMARK       I    between atoms: N_10  and  C_11 
REMARK    2  A    between atoms: C_11  and  C_12 
ROOT
HETATM    1  C   UNL     1      41.196 -14.390   2.184  1.00  0.00     0.124 C 
HETATM    2  N   UNL     1      41.720 -15.717   2.505  1.00  0.00    -0.339 N 
HETATM    3  C   UNL     1      43.060 -15.879   2.780  1.00  0.00     0.260 C 
HETATM    4  O   UNL     1      43.860 -14.941   2.732  1.00  0.00    -0.267 OA
HETATM    5  C   UNL     1      40.638 -16.635   2.838  1.00  0.00     0.127 C 
HETATM    6  C   UNL     1      39.382 -15.965   2.303  1.00  0.00     0.022 C 
HETATM    7  C   UNL     1      39.692 -14.485   2.475  1.00  0.00     0.032 C 
ENDROOT
BRANCH   1   8
HETATM    8  C   UNL     1      41.489 -13.971   0.769  1.00  0.00     0.014 A 
HETATM    9  C   UNL     1      41.744 -12.729   0.207  1.00  0.00     0.034 A 
HETATM   10  C   UNL     1      41.800 -11.355   0.758  1.00  0.00     0.070 C 
HETATM   11  N   UNL     1      41.920 -12.948  -1.131  1.00  0.00    -0.282 N 
HETATM   12  H   UNL     1      42.098 -12.262  -1.856  1.00  0.00     0.189 HD
HETATM   13  N   UNL     1      41.843 -14.234  -1.487  1.00  0.00    -0.179 NA
HETATM   14  C   UNL     1      41.553 -14.866  -0.346  1.00  0.00     0.061 A 
HETATM   15  C   UNL     1      41.346 -16.337  -0.350  1.00  0.00     0.073 C 
ENDBRANCH   1   8
BRANCH   3  16
HETATM   16  C   UNL     1      43.546 -17.202   3.254  1.00  0.00     0.108 A 
HETATM   17  C   UNL     1      43.831 -17.499   4.673  1.00  0.00     0.304 A 
HETATM   18  O   UNL     1      43.694 -16.676   5.571  1.00  0.00    -0.259 OA
HETATM   19  O   UNL     1      44.291 -18.784   4.962  1.00  0.00    -0.274 OA
HETATM   20  C   UNL     1      44.331 -19.792   3.983  1.00  0.00     0.089 A 
HETATM   21  C   UNL     1      43.981 -19.516   2.666  1.00  0.00    -0.001 A 
HETATM   22  C   UNL     1      44.707 -21.069   4.389  1.00  0.00     0.038 A 
HETATM   23  C   UNL     1      43.996 -20.553   1.731  1.00  0.00     0.014 A 
HETATM   24  C   UNL     1      43.601 -18.159   2.314  1.00  0.00     0.037 A 
HETATM   25  C   UNL     1      44.362 -21.843   2.126  1.00  0.00     0.001 A 
HETATM   26  C   UNL     1      44.721 -22.101   3.451  1.00  0.00     0.003 A 
ENDBRANCH   3  16
TORSDOF 2
ENDMDL
MODEL 6
REMARK VINA RESULT:      -8.0      2.212      2.988
REMARK  2 active torsions:
REMARK  status: ('A' for Active; 'I' for Inactive)
REMARK    1  A    between atoms: C_8  and  C_9 
REMARK       I    between atoms: N_10  and  C_11 
REMARK    2  A    between atoms: C_11  and  C_12 
ROOT
HETATM    1  C   UNL     1      41.721 -14.841   4.749  1.00  0.00     0.124 C 
HETATM    2  N   UNL     1      41.955 -16.223   4.334  1.00  0.00    -0.339 N 
HETATM    3  C   UNL     1      42.962 -16.510   3.438  1.00  0.00     0.260 C 
HETATM    4  O   UNL     1      43.664 -15.631   2.933  1.00  0.00    -0.267 OA
HETATM    5  C   UNL     1      41.290 -17.155   5.236  1.00  0.00     0.127 C 
HETATM    6  C   UNL     1      40.273 -16.311   5.986  1.00  0.00     0.022 C 
HETATM    7  C   UNL     1      40.963 -14.958   6.079  1.00  0.00     0.032 C 
ENDROOT
BRANCH   1   8
HETATM    8  C   UNL     1      40.969 -14.040   3.721  1.00  0.00     0.014 A 
HETATM    9  C   UNL     1      40.170 -14.424   2.654  1.00  0.00     0.034 A 
HETATM   10  C   UNL     1      39.773 -15.740   2.102  1.00  0.00     0.070 C 
HETATM   11  N   UNL     1      39.764 -13.267   2.049  1.00  0.00    -0.282 N 
HETATM   12  H   UNL     1      39.189 -13.166   1.221  1.00  0.00     0.189 HD
HETATM   13  N   UNL     1      40.196 -12.156   2.655  1.00  0.00    -0.179 NA
HETATM   14  C   UNL     1      40.953 -12.610   3.657  1.00  0.00     0.061 A 
HETATM   15  C   UNL     1      41.652 -11.649   4.547  1.00  0.00     0.073 C 
ENDBRANCH   1   8
BRANCH   3  16
HETATM   16  C   UNL     1      43.287 -17.931   3.147  1.00  0.00     0.108 A 
HETATM   17  C   UNL     1      43.281 -18.501   1.784  1.00  0.00     0.304 A 
HETATM   18  O   UNL     1      43.003 -17.847   0.786  1.00  0.00    -0.259 OA
HETATM   19  O   UNL     1      43.596 -19.855   1.671  1.00  0.00    -0.274 OA
HETATM   20  C   UNL     1      44.051 -20.602   2.772  1.00  0.00     0.089 A 
HETATM   21  C   UNL     1      44.128 -20.027   4.036  1.00  0.00    -0.001 A 
HETATM   22  C   UNL     1      44.439 -21.919   2.541  1.00  0.00     0.038 A 
HETATM   23  C   UNL     1      44.621 -20.790   5.096  1.00  0.00     0.014 A 
HETATM   24  C   UNL     1      43.703 -18.648   4.203  1.00  0.00     0.037 A 
HETATM   25  C   UNL     1      45.025 -22.111   4.877  1.00  0.00     0.001 A 
HETATM   26  C   UNL     1      44.931 -22.676   3.603  1.00  0.00     0.003 A 
ENDBRANCH   3  16
TORSDOF 2
ENDMDL
MODEL 7
REMARK VINA RESULT:      -7.9      1.261      2.008
REMARK  2 active torsions:
REMARK  status: ('A' for Active; 'I' for Inactive)
REMARK    1  A    between atoms: C_8  and  C_9 
REMARK       I    between atoms: N_10  and  C_11 
REMARK    2  A    between atoms: C_11  and  C_12 
ROOT
HETATM    1  C   UNL     1      40.885 -14.033   2.220  1.00  0.00     0.124 C 
HETATM    2  N   UNL     1      41.406 -15.393   2.346  1.00  0.00    -0.339 N 
HETATM    3  C   UNL     1      42.731 -15.594   2.671  1.00  0.00     0.260 C 
HETATM    4  O   UNL     1      43.519 -14.659   2.827  1.00  0.00    -0.267 OA
HETATM    5  C   UNL     1      40.319 -16.357   2.458  1.00  0.00     0.127 C 
HETATM    6  C   UNL     1      39.088 -15.612   1.967  1.00  0.00     0.022 C 
HETATM    7  C   UNL     1      39.368 -14.180   2.400  1.00  0.00     0.032 C 
ENDROOT
BRANCH   1   8
HETATM    8  C   UNL     1      41.254 -13.384   0.914  1.00  0.00     0.014 A 
HETATM    9  C   UNL     1      41.481 -13.911  -0.349  1.00  0.00     0.034 A 
HETATM   10  C   UNL     1      41.477 -15.289  -0.892  1.00  0.00     0.070 C 
HETATM   11  N   UNL     1      41.804 -12.851  -1.149  1.00  0.00    -0.282 N 
HETATM   12  H   UNL     1      42.058 -12.866  -2.131  1.00  0.00     0.189 HD
HETATM   13  N   UNL     1      41.768 -11.668  -0.527  1.00  0.00    -0.179 NA
HETATM   14  C   UNL     1      41.462 -11.978   0.736  1.00  0.00     0.061 A 
HETATM   15  C   UNL     1      41.370 -10.905   1.757  1.00  0.00     0.073 C 
ENDBRANCH   1   8
BRANCH   3  16
HETATM   16  C   UNL     1      43.205 -16.975   2.948  1.00  0.00     0.108 A 
HETATM   17  C   UNL     1      43.844 -17.832   1.928  1.00  0.00     0.304 A 
HETATM   18  O   UNL     1      44.029 -17.471   0.771  1.00  0.00    -0.259 OA
HETATM   19  O   UNL     1      44.226 -19.110   2.335  1.00  0.00    -0.274 OA
HETATM   20  C   UNL     1      44.154 -19.509   3.681  1.00  0.00     0.089 A 
HETATM   21  C   UNL     1      43.624 -18.659   4.645  1.00  0.00    -0.001 A 
HETATM   22  C   UNL     1      44.655 -20.766   4.008  1.00  0.00     0.038 A 
HETATM   23  C   UNL     1      43.606 -19.077   5.977  1.00  0.00     0.014 A 
HETATM   24  C   UNL     1      43.119 -17.362   4.231  1.00  0.00     0.037 A 
HETATM   25  C   UNL     1      44.114 -20.333   6.322  1.00  0.00     0.001 A 
HETATM   26  C   UNL     1      44.634 -21.178   5.339  1.00  0.00     0.003 A 
ENDBRANCH   3  16
TORSDOF 2
ENDMDL
MODEL 8
REMARK VINA RESULT:      -7.8      2.321      3.912
REMARK  2 active torsions:
REMARK  status: ('A' for Active; 'I' for Inactive)
REMARK    1  A    between atoms: C_8  and  C_9 
REMARK       I    between atoms: N_10  and  C_11 
REMARK    2  A    between atoms: C_11  and  C_12 
ROOT
HETATM    1  C   UNL     1      41.422 -13.940  -0.427  1.00  0.00     0.124 C 
HETATM    2  N   UNL     1      41.783 -14.579   0.837  1.00  0.00    -0.339 N 
HETATM    3  C   UNL     1      41.911 -15.949   0.903  1.00  0.00     0.260 C 
HETATM    4  O   UNL     1      41.694 -16.677  -0.068  1.00  0.00    -0.267 OA
HETATM    5  C   UNL     1      42.315 -13.601   1.779  1.00  0.00     0.127 C 
HETATM    6  C   UNL     1      41.880 -12.253   1.226  1.00  0.00     0.022 C 
HETATM    7  C   UNL     1      41.895 -12.487  -0.277  1.00  0.00     0.032 C 
ENDROOT
BRANCH   1   8
HETATM    8  C   UNL     1      39.954 -14.043  -0.737  1.00  0.00     0.014 A 
HETATM    9  C   UNL     1      38.841 -14.147   0.085  1.00  0.00     0.034 A 
HETATM   10  C   UNL     1      38.664 -14.222   1.553  1.00  0.00     0.070 C 
HETATM   11  N   UNL     1      37.761 -14.230  -0.749  1.00  0.00    -0.282 N 
HETATM   12  H   UNL     1      36.786 -14.341  -0.496  1.00  0.00     0.189 HD
HETATM   13  N   UNL     1      38.069 -14.148  -2.048  1.00  0.00    -0.179 NA
HETATM   14  C   UNL     1      39.401 -14.063  -2.058  1.00  0.00     0.061 A 
HETATM   15  C   UNL     1      40.127 -13.995  -3.352  1.00  0.00     0.073 C 
ENDBRANCH   1   8
BRANCH   3  16
HETATM   16  C   UNL     1      42.429 -16.568   2.152  1.00  0.00     0.108 A 
HETATM   17  C   UNL     1      43.754 -17.212   2.248  1.00  0.00     0.304 A 
HETATM   18  O   UNL     1      44.530 -17.292   1.303  1.00  0.00    -0.259 OA
HETATM   19  O   UNL     1      44.096 -17.759   3.485  1.00  0.00    -0.274 OA
HETATM   20  C   UNL     1      43.293 -17.568   4.624  1.00  0.00     0.089 A 
HETATM   21  C   UNL     1      42.084 -16.887   4.533  1.00  0.00    -0.001 A 
HETATM   22  C   UNL     1      43.767 -18.062   5.836  1.00  0.00     0.038 A 
HETATM   23  C   UNL     1      41.334 -16.685   5.693  1.00  0.00     0.014 A 
HETATM   24  C   UNL     1      41.652 -16.401   3.234  1.00  0.00     0.037 A 
HETATM   25  C   UNL     1      41.802 -17.167   6.920  1.00  0.00     0.001 A 
HETATM   26  C   UNL     1      43.014 -17.858   6.990  1.00  0.00     0.003 A 
ENDBRANCH   3  16
TORSDOF 2
ENDMDL
MODEL 9
REMARK VINA RESULT:      -7.8      2.802      6.993
REMARK  2 active torsions:
REMARK  status: ('A' for Active; 'I' for Inactive)
REMARK    1  A    between atoms: C_8  and  C_9 
REMARK       I    between atoms: N_10  and  C_11 
REMARK    2  A    between atoms: C_11  and  C_12 
ROOT
HETATM    1  C   UNL     1      42.501 -16.171   4.036  1.00  0.00     0.124 C 
HETATM    2  N   UNL     1      42.034 -15.500   2.825  1.00  0.00    -0.339 N 
HETATM    3  C   UNL     1      40.914 -15.965   2.169  1.00  0.00     0.260 C 
HETATM    4  O   UNL     1      40.299 -16.964   2.547  1.00  0.00    -0.267 OA
HETATM    5  C   UNL     1      42.644 -14.182   2.694  1.00  0.00     0.127 C 
HETATM    6  C   UNL     1      43.839 -14.213   3.633  1.00  0.00     0.022 C 
HETATM    7  C   UNL     1      43.359 -15.122   4.756  1.00  0.00     0.032 C 
ENDROOT
BRANCH   1   8
HETATM    8  C   UNL     1      43.255 -17.440   3.749  1.00  0.00     0.014 A 
HETATM    9  C   UNL     1      43.888 -17.900   2.603  1.00  0.00     0.034 A 
HETATM   10  C   UNL     1      44.044 -17.350   1.236  1.00  0.00     0.070 C 
HETATM   11  N   UNL     1      44.391 -19.132   2.916  1.00  0.00    -0.282 N 
HETATM   12  H   UNL     1      44.893 -19.772   2.311  1.00  0.00     0.189 HD
HETATM   13  N   UNL     1      44.177 -19.501   4.183  1.00  0.00    -0.179 NA
HETATM   14  C   UNL     1      43.463 -18.495   4.695  1.00  0.00     0.061 A 
HETATM   15  C   UNL     1      42.992 -18.565   6.101  1.00  0.00     0.073 C 
ENDBRANCH   1   8
BRANCH   3  16
HETATM   16  C   UNL     1      40.365 -15.181   1.032  1.00  0.00     0.108 A 
HETATM   17  C   UNL     1      39.336 -14.134   1.192  1.00  0.00     0.304 A 
HETATM   18  O   UNL     1      38.850 -13.832   2.276  1.00  0.00    -0.259 OA
HETATM   19  O   UNL     1      38.910 -13.491   0.029  1.00  0.00    -0.274 OA
HETATM   20  C   UNL     1      39.539 -13.713  -1.209  1.00  0.00     0.089 A 
HETATM   21  C   UNL     1      40.563 -14.645  -1.327  1.00  0.00    -0.001 A 
HETATM   22  C   UNL     1      39.113 -12.950  -2.293  1.00  0.00     0.038 A 
HETATM   23  C   UNL     1      41.188 -14.809  -2.565  1.00  0.00     0.014 A 
HETATM   24  C   UNL     1      40.953 -15.407  -0.153  1.00  0.00     0.037 A 
HETATM   25  C   UNL     1      40.778 -14.043  -3.661  1.00  0.00     0.001 A 
HETATM   26  C   UNL     1      39.740 -13.117  -3.526  1.00  0.00     0.003 A 
ENDBRANCH   3  16
TORSDOF 2
ENDMDL
MODEL 10
REMARK VINA RESULT:      -7.8      4.058      5.259
REMARK  2 active torsions:
REMARK  status: ('A' for Active; 'I' for Inactive)
REMARK    1  A    between atoms: C_8  and  C_9 
REMARK       I    between atoms: N_10  and  C_11 
REMARK    2  A    between atoms: C_11  and  C_12 
ROOT
HETATM    1  C   UNL     1      40.824 -12.326   6.624  1.00  0.00     0.124 C 
HETATM    2  N   UNL     1      41.189 -13.246   5.548  1.00  0.00    -0.339 N 
HETATM    3  C   UNL     1      42.494 -13.670   5.420  1.00  0.00     0.260 C 
HETATM    4  O   UNL     1      43.391 -13.272   6.166  1.00  0.00    -0.267 OA
HETATM    5  C   UNL     1      40.003 -13.866   4.971  1.00  0.00     0.127 C 
HETATM    6  C   UNL     1      38.846 -12.990   5.426  1.00  0.00     0.022 C 
HETATM    7  C   UNL     1      39.309 -12.507   6.793  1.00  0.00     0.032 C 
ENDROOT
BRANCH   1   8
HETATM    8  C   UNL     1      41.209 -10.901   6.332  1.00  0.00     0.014 A 
HETATM    9  C   UNL     1      41.214 -10.167   5.155  1.00  0.00     0.034 A 
HETATM   10  C   UNL     1      40.877 -10.496   3.751  1.00  0.00     0.070 C 
HETATM   11  N   UNL     1      41.682  -8.926   5.485  1.00  0.00    -0.282 N 
HETATM   12  H   UNL     1      41.843  -8.137   4.868  1.00  0.00     0.189 HD
HETATM   13  N   UNL     1      41.945  -8.771   6.786  1.00  0.00    -0.179 NA
HETATM   14  C   UNL     1      41.689  -9.973   7.311  1.00  0.00     0.061 A 
HETATM   15  C   UNL     1      41.909 -10.206   8.761  1.00  0.00     0.073 C 
ENDBRANCH   1   8
BRANCH   3  16
HETATM   16  C   UNL     1      42.816 -14.722   4.420  1.00  0.00     0.108 A 
HETATM   17  C   UNL     1      43.086 -14.432   2.997  1.00  0.00     0.304 A 
HETATM   18  O   UNL     1      43.061 -13.300   2.528  1.00  0.00    -0.259 OA
HETATM   19  O   UNL     1      43.363 -15.526   2.177  1.00  0.00    -0.274 OA
HETATM   20  C   UNL     1      43.534 -16.819   2.703  1.00  0.00     0.089 A 
HETATM   21  C   UNL     1      43.355 -17.061   4.061  1.00  0.00    -0.001 A 
HETATM   22  C   UNL     1      43.910 -17.828   1.821  1.00  0.00     0.038 A 
HETATM   23  C   UNL     1      43.572 -18.351   4.550  1.00  0.00     0.014 A 
HETATM   24  C   UNL     1      42.961 -15.960   4.921  1.00  0.00     0.037 A 
HETATM   25  C   UNL     1      43.960 -19.373   3.678  1.00  0.00     0.001 A 
HETATM   26  C   UNL     1      44.125 -19.113   2.316  1.00  0.00     0.003 A 
ENDBRANCH   3  16
TORSDOF 2
ENDMDL
