MODEL 1
REMARK VINA RESULT:     -10.1      0.000      0.000
REMARK  7 active torsions:
REMARK  status: ('A' for Active; 'I' for Inactive)
REMARK    1  A    between atoms: C_2  and  C_3 
REMARK    2  A    between atoms: C_3  and  C_4 
REMARK    3  A    between atoms: C_4  and  N_5 
REMARK       I    between atoms: N_5  and  C_6 
REMARK    4  A    between atoms: C_6  and  C_7 
REMARK    5  A    between atoms: C_8  and  N_9 
REMARK    6  A    between atoms: N_10  and  N_11 
REMARK    7  A    between atoms: C_12  and  C_13 
ROOT
HETATM    1  C   UNL     1      43.332 -18.414   6.645  1.00  0.00     0.104 C 
HETATM    2  C   UNL     1      43.496 -17.660   7.802  1.00  0.00     0.123 C 
HETATM    3  N   UNL     1      43.315 -16.322   7.445  1.00  0.00    -0.202 N 
HETATM    4  C   UNL     1      42.519 -16.307   6.318  1.00  0.00     0.183 A 
HETATM    5  C   UNL     1      42.584 -17.585   5.761  1.00  0.00     0.124 A 
HETATM    6  N   UNL     1      42.022 -17.844   4.553  1.00  0.00    -0.242 NA
HETATM    7  C   UNL     1      41.365 -16.811   3.999  1.00  0.00     0.086 A 
HETATM    8  C   UNL     1      41.291 -15.529   4.607  1.00  0.00     0.088 A 
HETATM    9  N   UNL     1      41.896 -15.240   5.769  1.00  0.00    -0.225 NA
HETATM   10  C   UNL     1      40.723 -17.010   2.783  1.00  0.00     0.034 A 
HETATM   11  C   UNL     1      40.001 -15.991   2.159  1.00  0.00     0.002 A 
HETATM   12  C   UNL     1      39.919 -14.744   2.761  1.00  0.00     0.002 A 
HETATM   13  C   UNL     1      40.567 -14.525   3.977  1.00  0.00     0.034 A 
ENDROOT
BRANCH   3  14
HETATM   14  N   UNL     1      43.879 -15.216   8.043  1.00  0.00    -0.176 NA
HETATM   15  C   UNL     1      44.717 -14.610   7.266  1.00  0.00     0.153 C 
BRANCH  15  16
HETATM   16  C   UNL     1      45.396 -13.399   7.663  1.00  0.00     0.011 A 
HETATM   17  C   UNL     1      45.056 -12.579   8.786  1.00  0.00     0.004 A 
HETATM   18  C   UNL     1      46.033 -11.589   8.887  1.00  0.00     0.043 A 
HETATM   19  C   UNL     1      44.010 -12.598   9.736  1.00  0.00     0.014 A 
HETATM   20  C   UNL     1      46.030 -10.629   9.907  1.00  0.00     0.030 A 
HETATM   21  N   UNL     1      46.910 -11.780   7.844  1.00  0.00    -0.364 N 
HETATM   22  C   UNL     1      44.985 -10.671  10.837  1.00  0.00     0.002 A 
HETATM   23  C   UNL     1      43.984 -11.635  10.751  1.00  0.00     0.001 A 
HETATM   24  H   UNL     1      47.729 -11.213   7.673  1.00  0.00     0.165 HD
HETATM   25  C   UNL     1      46.524 -12.855   7.087  1.00  0.00     0.102 A 
ENDBRANCH  15  16
ENDBRANCH   3  14
BRANCH   2  26
HETATM   26  N   UNL     1      43.893 -18.027   9.061  1.00  0.00    -0.286 NA
HETATM   27  H   UNL     1      44.807 -18.484   9.135  1.00  0.00     0.125 HD
HETATM   28  H   UNL     1      43.211 -18.556   9.615  1.00  0.00     0.125 HD
ENDBRANCH   2  26
BRANCH   1  29
HETATM   29  C   UNL     1      43.858 -19.758   6.431  1.00  0.00     0.257 C 
HETATM   30  N   UNL     1      44.655 -19.830   5.302  1.00  0.00    -0.357 N 
HETATM   31  H   UNL     1      44.713 -18.980   4.751  1.00  0.00     0.162 HD
HETATM   32  O   UNL     1      43.566 -20.734   7.108  1.00  0.00    -0.267 OA
BRANCH  30  33
HETATM   33  C   UNL     1      45.034 -21.065   4.651  1.00  0.00     0.123 C 
BRANCH  33  34
HETATM   34  C   UNL     1      45.137 -20.821   3.144  1.00  0.00     0.023 C 
BRANCH  34  35
HETATM   35  C   UNL     1      43.794 -20.788   2.402  1.00  0.00    -0.021 C 
HETATM   36  C   UNL     1      43.709 -21.860   1.319  1.00  0.00     0.009 C 
HETATM   37  C   UNL     1      43.588 -19.402   1.781  1.00  0.00     0.009 C 
ENDBRANCH  34  35
ENDBRANCH  33  34
ENDBRANCH  30  33
ENDBRANCH   1  29
TORSDOF 7
ENDMDL
MODEL 2
REMARK VINA RESULT:      -9.8      3.703      8.545
REMARK  7 active torsions:
REMARK  status: ('A' for Active; 'I' for Inactive)
REMARK    1  A    between atoms: C_2  and  C_3 
REMARK    2  A    between atoms: C_3  and  C_4 
REMARK    3  A    between atoms: C_4  and  N_5 
REMARK       I    between atoms: N_5  and  C_6 
REMARK    4  A    between atoms: C_6  and  C_7 
REMARK    5  A    between atoms: C_8  and  N_9 
REMARK    6  A    between atoms: N_10  and  N_11 
REMARK    7  A    between atoms: C_12  and  C_13 
ROOT
HETATM    1  C   UNL     1      41.933 -15.865   4.285  1.00  0.00     0.104 C 
HETATM    2  C   UNL     1      40.899 -15.594   3.395  1.00  0.00     0.123 C 
HETATM    3  N   UNL     1      41.160 -16.322   2.233  1.00  0.00    -0.202 N 
HETATM    4  C   UNL     1      41.940 -17.402   2.597  1.00  0.00     0.183 A 
HETATM    5  C   UNL     1      42.495 -17.096   3.841  1.00  0.00     0.124 A 
HETATM    6  N   UNL     1      43.434 -17.903   4.398  1.00  0.00    -0.242 NA
HETATM    7  C   UNL     1      43.716 -19.013   3.696  1.00  0.00     0.086 A 
HETATM    8  C   UNL     1      43.110 -19.310   2.445  1.00  0.00     0.088 A 
HETATM    9  N   UNL     1      42.229 -18.492   1.852  1.00  0.00    -0.225 NA
HETATM   10  C   UNL     1      44.635 -19.913   4.222  1.00  0.00     0.034 A 
HETATM   11  C   UNL     1      44.961 -21.100   3.562  1.00  0.00     0.002 A 
HETATM   12  C   UNL     1      44.358 -21.394   2.349  1.00  0.00     0.002 A 
HETATM   13  C   UNL     1      43.442 -20.496   1.801  1.00  0.00     0.034 A 
ENDROOT
BRANCH   3  14
HETATM   14  N   UNL     1      40.787 -16.002   0.946  1.00  0.00    -0.176 NA
HETATM   15  C   UNL     1      41.585 -15.142   0.401  1.00  0.00     0.153 C 
BRANCH  15  16
HETATM   16  C   UNL     1      41.418 -14.692  -0.960  1.00  0.00     0.011 A 
HETATM   17  C   UNL     1      41.843 -13.427  -1.481  1.00  0.00     0.004 A 
HETATM   18  C   UNL     1      41.610 -13.446  -2.855  1.00  0.00     0.043 A 
HETATM   19  C   UNL     1      42.418 -12.271  -0.907  1.00  0.00     0.014 A 
HETATM   20  C   UNL     1      41.946 -12.373  -3.691  1.00  0.00     0.030 A 
HETATM   21  N   UNL     1      41.032 -14.660  -3.150  1.00  0.00    -0.364 N 
HETATM   22  C   UNL     1      42.517 -11.242  -3.099  1.00  0.00     0.002 A 
HETATM   23  C   UNL     1      42.744 -11.184  -1.726  1.00  0.00     0.001 A 
HETATM   24  H   UNL     1      40.764 -14.956  -4.079  1.00  0.00     0.165 HD
HETATM   25  C   UNL     1      40.892 -15.410  -2.013  1.00  0.00     0.102 A 
ENDBRANCH  15  16
ENDBRANCH   3  14
BRANCH   2  26
HETATM   26  N   UNL     1      39.860 -14.704   3.475  1.00  0.00    -0.286 NA
HETATM   27  H   UNL     1      39.545 -14.454   4.417  1.00  0.00     0.125 HD
HETATM   28  H   UNL     1      39.040 -14.911   2.894  1.00  0.00     0.125 HD
ENDBRANCH   2  26
BRANCH   1  29
HETATM   29  C   UNL     1      42.327 -15.018   5.406  1.00  0.00     0.257 C 
HETATM   30  N   UNL     1      43.593 -15.327   5.869  1.00  0.00    -0.357 N 
HETATM   31  H   UNL     1      44.041 -16.122   5.426  1.00  0.00     0.162 HD
HETATM   32  O   UNL     1      41.602 -14.191   5.940  1.00  0.00    -0.267 OA
BRANCH  30  33
HETATM   33  C   UNL     1      44.116 -14.907   7.151  1.00  0.00     0.123 C 
BRANCH  33  34
HETATM   34  C   UNL     1      45.106 -13.761   6.933  1.00  0.00     0.023 C 
BRANCH  34  35
HETATM   35  C   UNL     1      45.490 -12.989   8.203  1.00  0.00    -0.021 C 
HETATM   36  C   UNL     1      44.362 -12.084   8.690  1.00  0.00     0.009 C 
HETATM   37  C   UNL     1      46.748 -12.155   7.932  1.00  0.00     0.009 C 
ENDBRANCH  34  35
ENDBRANCH  33  34
ENDBRANCH  30  33
ENDBRANCH   1  29
TORSDOF 7
ENDMDL
MODEL 3
REMARK VINA RESULT:      -9.5      2.612      8.534
REMARK  7 active torsions:
REMARK  status: ('A' for Active; 'I' for Inactive)
REMARK    1  A    between atoms: C_2  and  C_3 
REMARK    2  A    between atoms: C_3  and  C_4 
REMARK    3  A    between atoms: C_4  and  N_5 
REMARK       I    between atoms: N_5  and  C_6 
REMARK    4  A    between atoms: C_6  and  C_7 
REMARK    5  A    between atoms: C_8  and  N_9 
REMARK    6  A    between atoms: N_10  and  N_11 
REMARK    7  A    between atoms: C_12  and  C_13 
ROOT
HETATM    1  C   UNL     1      42.954 -15.776   5.858  1.00  0.00     0.104 C 
HETATM    2  C   UNL     1      41.881 -15.096   5.291  1.00  0.00     0.123 C 
HETATM    3  N   UNL     1      41.815 -15.483   3.951  1.00  0.00    -0.202 N 
HETATM    4  C   UNL     1      42.398 -16.732   3.861  1.00  0.00     0.183 A 
HETATM    5  C   UNL     1      43.177 -16.896   5.007  1.00  0.00     0.124 A 
HETATM    6  N   UNL     1      43.999 -17.969   5.138  1.00  0.00    -0.242 NA
HETATM    7  C   UNL     1      43.940 -18.855   4.131  1.00  0.00     0.086 A 
HETATM    8  C   UNL     1      43.111 -18.673   2.990  1.00  0.00     0.088 A 
HETATM    9  N   UNL     1      42.343 -17.587   2.816  1.00  0.00    -0.225 NA
HETATM   10  C   UNL     1      44.717 -20.004   4.212  1.00  0.00     0.034 A 
HETATM   11  C   UNL     1      44.690 -20.981   3.216  1.00  0.00     0.002 A 
HETATM   12  C   UNL     1      43.871 -20.807   2.110  1.00  0.00     0.002 A 
HETATM   13  C   UNL     1      43.093 -19.654   2.007  1.00  0.00     0.034 A 
ENDROOT
BRANCH   3  14
HETATM   14  N   UNL     1      41.335 -14.745   2.892  1.00  0.00    -0.176 NA
HETATM   15  C   UNL     1      40.179 -15.160   2.485  1.00  0.00     0.153 C 
BRANCH  15  16
HETATM   16  C   UNL     1      39.461 -14.509   1.415  1.00  0.00     0.011 A 
HETATM   17  C   UNL     1      39.830 -14.522   0.031  1.00  0.00     0.004 A 
HETATM   18  C   UNL     1      38.808 -13.890  -0.676  1.00  0.00     0.043 A 
HETATM   19  C   UNL     1      40.938 -15.026  -0.686  1.00  0.00     0.014 A 
HETATM   20  C   UNL     1      38.826 -13.759  -2.070  1.00  0.00     0.030 A 
HETATM   21  N   UNL     1      37.874 -13.478   0.247  1.00  0.00    -0.364 N 
HETATM   22  C   UNL     1      39.933 -14.269  -2.757  1.00  0.00     0.002 A 
HETATM   23  C   UNL     1      40.979 -14.887  -2.078  1.00  0.00     0.001 A 
HETATM   24  H   UNL     1      37.014 -12.999   0.018  1.00  0.00     0.165 HD
HETATM   25  C   UNL     1      38.267 -13.827   1.512  1.00  0.00     0.102 A 
ENDBRANCH  15  16
ENDBRANCH   3  14
BRANCH   2  26
HETATM   26  N   UNL     1      41.073 -14.115   5.803  1.00  0.00    -0.286 NA
HETATM   27  H   UNL     1      40.145 -14.021   5.379  1.00  0.00     0.125 HD
HETATM   28  H   UNL     1      41.492 -13.183   5.894  1.00  0.00     0.125 HD
ENDBRANCH   2  26
BRANCH   1  29
HETATM   29  C   UNL     1      43.673 -15.369   7.060  1.00  0.00     0.257 C 
HETATM   30  N   UNL     1      44.039 -14.035   7.019  1.00  0.00    -0.357 N 
HETATM   31  H   UNL     1      43.825 -13.548   6.155  1.00  0.00     0.162 HD
HETATM   32  O   UNL     1      43.999 -16.125   7.965  1.00  0.00    -0.267 OA
BRANCH  30  33
HETATM   33  C   UNL     1      45.031 -13.436   7.885  1.00  0.00     0.123 C 
BRANCH  33  34
HETATM   34  C   UNL     1      44.358 -12.364   8.744  1.00  0.00     0.023 C 
BRANCH  34  35
HETATM   35  C   UNL     1      45.064 -12.065  10.074  1.00  0.00    -0.021 C 
HETATM   36  C   UNL     1      44.236 -12.510  11.277  1.00  0.00     0.009 C 
HETATM   37  C   UNL     1      45.359 -10.564  10.170  1.00  0.00     0.009 C 
ENDBRANCH  34  35
ENDBRANCH  33  34
ENDBRANCH  30  33
ENDBRANCH   1  29
TORSDOF 7
ENDMDL
MODEL 4
REMARK VINA RESULT:      -9.2      4.381      8.317
REMARK  7 active torsions:
REMARK  status: ('A' for Active; 'I' for Inactive)
REMARK    1  A    between atoms: C_2  and  C_3 
REMARK    2  A    between atoms: C_3  and  C_4 
REMARK    3  A    between atoms: C_4  and  N_5 
REMARK       I    between atoms: N_5  and  C_6 
REMARK    4  A    between atoms: C_6  and  C_7 
REMARK    5  A    between atoms: C_8  and  N_9 
REMARK    6  A    between atoms: N_10  and  N_11 
REMARK    7  A    between atoms: C_12  and  C_13 
ROOT
HETATM    1  C   UNL     1      41.164 -14.024   1.022  1.00  0.00     0.104 C 
HETATM    2  C   UNL     1      41.015 -15.405   1.092  1.00  0.00     0.123 C 
HETATM    3  N   UNL     1      41.068 -15.753   2.443  1.00  0.00    -0.202 N 
HETATM    4  C   UNL     1      40.672 -14.644   3.163  1.00  0.00     0.183 A 
HETATM    5  C   UNL     1      40.805 -13.544   2.315  1.00  0.00     0.124 A 
HETATM    6  N   UNL     1      40.634 -12.281   2.783  1.00  0.00    -0.242 NA
HETATM    7  C   UNL     1      40.273 -12.200   4.075  1.00  0.00     0.086 A 
HETATM    8  C   UNL     1      40.118 -13.343   4.906  1.00  0.00     0.088 A 
HETATM    9  N   UNL     1      40.345 -14.592   4.474  1.00  0.00    -0.225 NA
HETATM   10  C   UNL     1      40.035 -10.944   4.618  1.00  0.00     0.034 A 
HETATM   11  C   UNL     1      39.634 -10.782   5.946  1.00  0.00     0.002 A 
HETATM   12  C   UNL     1      39.469 -11.900   6.750  1.00  0.00     0.002 A 
HETATM   13  C   UNL     1      39.715 -13.167   6.224  1.00  0.00     0.034 A 
ENDROOT
BRANCH   3  14
HETATM   14  N   UNL     1      41.502 -16.945   2.981  1.00  0.00    -0.176 NA
HETATM   15  C   UNL     1      42.773 -16.940   3.225  1.00  0.00     0.153 C 
BRANCH  15  16
HETATM   16  C   UNL     1      43.443 -18.065   3.833  1.00  0.00     0.011 A 
HETATM   17  C   UNL     1      43.637 -19.349   3.229  1.00  0.00     0.004 A 
HETATM   18  C   UNL     1      44.436 -20.097   4.094  1.00  0.00     0.043 A 
HETATM   19  C   UNL     1      43.215 -19.939   2.017  1.00  0.00     0.014 A 
HETATM   20  C   UNL     1      44.856 -21.399   3.795  1.00  0.00     0.030 A 
HETATM   21  N   UNL     1      44.685 -19.310   5.195  1.00  0.00    -0.364 N 
HETATM   22  C   UNL     1      44.426 -21.960   2.587  1.00  0.00     0.002 A 
HETATM   23  C   UNL     1      43.611 -21.246   1.712  1.00  0.00     0.001 A 
HETATM   24  H   UNL     1      45.252 -19.591   5.984  1.00  0.00     0.165 HD
HETATM   25  C   UNL     1      44.075 -18.091   5.058  1.00  0.00     0.102 A 
ENDBRANCH  15  16
ENDBRANCH   3  14
BRANCH   2  26
HETATM   26  N   UNL     1      40.963 -16.351   0.101  1.00  0.00    -0.286 NA
HETATM   27  H   UNL     1      40.954 -16.002  -0.862  1.00  0.00     0.125 HD
HETATM   28  H   UNL     1      40.239 -17.071   0.200  1.00  0.00     0.125 HD
ENDBRANCH   2  26
BRANCH   1  29
HETATM   29  C   UNL     1      41.618 -13.281  -0.148  1.00  0.00     0.257 C 
HETATM   30  N   UNL     1      40.965 -13.680  -1.301  1.00  0.00    -0.357 N 
HETATM   31  H   UNL     1      40.324 -14.459  -1.195  1.00  0.00     0.162 HD
HETATM   32  O   UNL     1      42.529 -12.464  -0.143  1.00  0.00    -0.267 OA
BRANCH  30  33
HETATM   33  C   UNL     1      41.422 -13.379  -2.640  1.00  0.00     0.123 C 
BRANCH  33  34
HETATM   34  C   UNL     1      40.367 -13.851  -3.643  1.00  0.00     0.023 C 
BRANCH  34  35
HETATM   35  C   UNL     1      39.345 -14.851  -3.082  1.00  0.00    -0.021 C 
HETATM   36  C   UNL     1      39.323 -16.155  -3.875  1.00  0.00     0.009 C 
HETATM   37  C   UNL     1      37.951 -14.213  -3.088  1.00  0.00     0.009 C 
ENDBRANCH  34  35
ENDBRANCH  33  34
ENDBRANCH  30  33
ENDBRANCH   1  29
TORSDOF 7
ENDMDL
MODEL 5
REMARK VINA RESULT:      -9.1      4.497      8.778
REMARK  7 active torsions:
REMARK  status: ('A' for Active; 'I' for Inactive)
REMARK    1  A    between atoms: C_2  and  C_3 
REMARK    2  A    between atoms: C_3  and  C_4 
REMARK    3  A    between atoms: C_4  and  N_5 
REMARK       I    between atoms: N_5  and  C_6 
REMARK    4  A    between atoms: C_6  and  C_7 
REMARK    5  A    between atoms: C_8  and  N_9 
REMARK    6  A    between atoms: N_10  and  N_11 
REMARK    7  A    between atoms: C_12  and  C_13 
ROOT
HETATM    1  C   UNL     1      41.158 -14.290   0.719  1.00  0.00     0.104 C 
HETATM    2  C   UNL     1      41.038 -15.672   0.819  1.00  0.00     0.123 C 
HETATM    3  N   UNL     1      41.101 -15.989   2.177  1.00  0.00    -0.202 N 
HETATM    4  C   UNL     1      40.685 -14.872   2.874  1.00  0.00     0.183 A 
HETATM    5  C   UNL     1      40.793 -13.789   2.001  1.00  0.00     0.124 A 
HETATM    6  N   UNL     1      40.597 -12.520   2.443  1.00  0.00    -0.242 NA
HETATM    7  C   UNL     1      40.239 -12.418   3.734  1.00  0.00     0.086 A 
HETATM    8  C   UNL     1      40.109 -13.545   4.590  1.00  0.00     0.088 A 
HETATM    9  N   UNL     1      40.361 -14.799   4.185  1.00  0.00    -0.225 NA
HETATM   10  C   UNL     1      39.976 -11.155   4.250  1.00  0.00     0.034 A 
HETATM   11  C   UNL     1      39.576 -10.973   5.575  1.00  0.00     0.002 A 
HETATM   12  C   UNL     1      39.436 -12.076   6.405  1.00  0.00     0.002 A 
HETATM   13  C   UNL     1      39.707 -13.349   5.905  1.00  0.00     0.034 A 
ENDROOT
BRANCH   3  14
HETATM   14  N   UNL     1      41.562 -17.159   2.740  1.00  0.00    -0.176 NA
HETATM   15  C   UNL     1      42.816 -17.095   3.052  1.00  0.00     0.153 C 
BRANCH  15  16
HETATM   16  C   UNL     1      43.505 -18.188   3.697  1.00  0.00     0.011 A 
HETATM   17  C   UNL     1      43.689 -19.499   3.151  1.00  0.00     0.004 A 
HETATM   18  C   UNL     1      44.510 -20.202   4.030  1.00  0.00     0.043 A 
HETATM   19  C   UNL     1      43.240 -20.148   1.979  1.00  0.00     0.014 A 
HETATM   20  C   UNL     1      44.928 -21.517   3.784  1.00  0.00     0.030 A 
HETATM   21  N   UNL     1      44.783 -19.363   5.086  1.00  0.00    -0.364 N 
HETATM   22  C   UNL     1      44.471 -22.136   2.615  1.00  0.00     0.002 A 
HETATM   23  C   UNL     1      43.633 -21.467   1.727  1.00  0.00     0.001 A 
HETATM   24  H   UNL     1      45.370 -19.604   5.874  1.00  0.00     0.165 HD
HETATM   25  C   UNL     1      44.165 -18.154   4.906  1.00  0.00     0.102 A 
ENDBRANCH  15  16
ENDBRANCH   3  14
BRANCH   2  26
HETATM   26  N   UNL     1      41.002 -16.640  -0.151  1.00  0.00    -0.286 NA
HETATM   27  H   UNL     1      41.394 -17.552   0.100  1.00  0.00     0.125 HD
HETATM   28  H   UNL     1      41.355 -16.368  -1.074  1.00  0.00     0.125 HD
ENDBRANCH   2  26
BRANCH   1  29
HETATM   29  C   UNL     1      41.593 -13.564  -0.469  1.00  0.00     0.257 C 
HETATM   30  N   UNL     1      41.752 -12.212  -0.222  1.00  0.00    -0.357 N 
HETATM   31  H   UNL     1      41.488 -11.902   0.707  1.00  0.00     0.162 HD
HETATM   32  O   UNL     1      41.720 -14.061  -1.580  1.00  0.00    -0.267 OA
BRANCH  30  33
HETATM   33  C   UNL     1      41.842 -11.201  -1.253  1.00  0.00     0.123 C 
BRANCH  33  34
HETATM   34  C   UNL     1      43.243 -10.586  -1.224  1.00  0.00     0.023 C 
BRANCH  34  35
HETATM   35  C   UNL     1      43.358  -9.278  -0.428  1.00  0.00    -0.021 C 
HETATM   36  C   UNL     1      42.001  -8.608  -0.224  1.00  0.00     0.009 C 
HETATM   37  C   UNL     1      44.308  -8.320  -1.155  1.00  0.00     0.009 C 
ENDBRANCH  34  35
ENDBRANCH  33  34
ENDBRANCH  30  33
ENDBRANCH   1  29
TORSDOF 7
ENDMDL
MODEL 6
REMARK VINA RESULT:      -9.0      2.879      8.366
REMARK  7 active torsions:
REMARK  status: ('A' for Active; 'I' for Inactive)
REMARK    1  A    between atoms: C_2  and  C_3 
REMARK    2  A    between atoms: C_3  and  C_4 
REMARK    3  A    between atoms: C_4  and  N_5 
REMARK       I    between atoms: N_5  and  C_6 
REMARK    4  A    between atoms: C_6  and  C_7 
REMARK    5  A    between atoms: C_8  and  N_9 
REMARK    6  A    between atoms: N_10  and  N_11 
REMARK    7  A    between atoms: C_12  and  C_13 
ROOT
HETATM    1  C   UNL     1      41.702 -12.478   5.767  1.00  0.00     0.104 C 
HETATM    2  C   UNL     1      42.630 -13.508   5.888  1.00  0.00     0.123 C 
HETATM    3  N   UNL     1      42.082 -14.626   5.258  1.00  0.00    -0.202 N 
HETATM    4  C   UNL     1      41.185 -14.163   4.316  1.00  0.00     0.183 A 
HETATM    5  C   UNL     1      40.876 -12.848   4.667  1.00  0.00     0.124 A 
HETATM    6  N   UNL     1      39.899 -12.168   4.015  1.00  0.00    -0.242 NA
HETATM    7  C   UNL     1      39.329 -12.832   2.996  1.00  0.00     0.086 A 
HETATM    8  C   UNL     1      39.688 -14.162   2.644  1.00  0.00     0.088 A 
HETATM    9  N   UNL     1      40.606 -14.869   3.320  1.00  0.00    -0.225 NA
HETATM   10  C   UNL     1      38.351 -12.186   2.248  1.00  0.00     0.034 A 
HETATM   11  C   UNL     1      37.731 -12.804   1.160  1.00  0.00     0.002 A 
HETATM   12  C   UNL     1      38.094 -14.096   0.811  1.00  0.00     0.002 A 
HETATM   13  C   UNL     1      39.065 -14.763   1.558  1.00  0.00     0.034 A 
ENDROOT
BRANCH   3  14
HETATM   14  N   UNL     1      42.318 -15.951   5.556  1.00  0.00    -0.176 NA
HETATM   15  C   UNL     1      43.271 -16.454   4.841  1.00  0.00     0.153 C 
BRANCH  15  16
HETATM   16  C   UNL     1      43.724 -17.815   5.011  1.00  0.00     0.011 A 
HETATM   17  C   UNL     1      43.777 -18.812   3.986  1.00  0.00     0.004 A 
HETATM   18  C   UNL     1      44.390 -19.938   4.534  1.00  0.00     0.043 A 
HETATM   19  C   UNL     1      43.368 -18.855   2.634  1.00  0.00     0.014 A 
HETATM   20  C   UNL     1      44.640 -21.098   3.790  1.00  0.00     0.030 A 
HETATM   21  N   UNL     1      44.666 -19.646   5.851  1.00  0.00    -0.364 N 
HETATM   22  C   UNL     1      44.227 -21.114   2.453  1.00  0.00     0.002 A 
HETATM   23  C   UNL     1      43.593 -20.014   1.882  1.00  0.00     0.001 A 
HETATM   24  H   UNL     1      45.124 -20.277   6.494  1.00  0.00     0.165 HD
HETATM   25  C   UNL     1      44.250 -18.377   6.155  1.00  0.00     0.102 A 
ENDBRANCH  15  16
ENDBRANCH   3  14
BRANCH   2  26
HETATM   26  N   UNL     1      43.810 -13.571   6.582  1.00  0.00    -0.286 NA
HETATM   27  H   UNL     1      43.775 -14.024   7.500  1.00  0.00     0.125 HD
HETATM   28  H   UNL     1      44.335 -12.694   6.664  1.00  0.00     0.125 HD
ENDBRANCH   2  26
BRANCH   1  29
HETATM   29  C   UNL     1      41.627 -11.303   6.627  1.00  0.00     0.257 C 
HETATM   30  N   UNL     1      42.251 -11.510   7.844  1.00  0.00    -0.357 N 
HETATM   31  H   UNL     1      42.609 -12.447   8.000  1.00  0.00     0.162 HD
HETATM   32  O   UNL     1      41.013 -10.280   6.355  1.00  0.00    -0.267 OA
BRANCH  30  33
HETATM   33  C   UNL     1      42.057 -10.677   9.011  1.00  0.00     0.123 C 
BRANCH  33  34
HETATM   34  C   UNL     1      43.287 -10.791   9.914  1.00  0.00     0.023 C 
BRANCH  34  35
HETATM   35  C   UNL     1      42.980 -11.070  11.391  1.00  0.00    -0.021 C 
HETATM   36  C   UNL     1      41.480 -11.103  11.670  1.00  0.00     0.009 C 
HETATM   37  C   UNL     1      43.649 -10.000  12.262  1.00  0.00     0.009 C 
ENDBRANCH  34  35
ENDBRANCH  33  34
ENDBRANCH  30  33
ENDBRANCH   1  29
TORSDOF 7
ENDMDL
MODEL 7
REMARK VINA RESULT:      -9.0      4.058      8.771
REMARK  7 active torsions:
REMARK  status: ('A' for Active; 'I' for Inactive)
REMARK    1  A    between atoms: C_2  and  C_3 
REMARK    2  A    between atoms: C_3  and  C_4 
REMARK    3  A    between atoms: C_4  and  N_5 
REMARK       I    between atoms: N_5  and  C_6 
REMARK    4  A    between atoms: C_6  and  C_7 
REMARK    5  A    between atoms: C_8  and  N_9 
REMARK    6  A    between atoms: N_10  and  N_11 
REMARK    7  A    between atoms: C_12  and  C_13 
ROOT
HETATM    1  C   UNL     1      41.208 -15.809   3.987  1.00  0.00     0.104 C 
HETATM    2  C   UNL     1      40.378 -15.624   2.887  1.00  0.00     0.123 C 
HETATM    3  N   UNL     1      40.964 -16.299   1.815  1.00  0.00    -0.202 N 
HETATM    4  C   UNL     1      41.748 -17.303   2.348  1.00  0.00     0.183 A 
HETATM    5  C   UNL     1      41.977 -16.969   3.683  1.00  0.00     0.124 A 
HETATM    6  N   UNL     1      42.844 -17.690   4.439  1.00  0.00    -0.242 NA
HETATM    7  C   UNL     1      43.387 -18.753   3.822  1.00  0.00     0.086 A 
HETATM    8  C   UNL     1      43.109 -19.083   2.467  1.00  0.00     0.088 A 
HETATM    9  N   UNL     1      42.305 -18.344   1.690  1.00  0.00    -0.225 NA
HETATM   10  C   UNL     1      44.250 -19.568   4.543  1.00  0.00     0.034 A 
HETATM   11  C   UNL     1      44.834 -20.703   3.976  1.00  0.00     0.002 A 
HETATM   12  C   UNL     1      44.550 -21.030   2.659  1.00  0.00     0.002 A 
HETATM   13  C   UNL     1      43.694 -20.216   1.917  1.00  0.00     0.034 A 
ENDROOT
BRANCH   3  14
HETATM   14  N   UNL     1      40.858 -15.991   0.476  1.00  0.00    -0.176 NA
HETATM   15  C   UNL     1      41.455 -14.883   0.177  1.00  0.00     0.153 C 
BRANCH  15  16
HETATM   16  C   UNL     1      41.514 -14.382  -1.176  1.00  0.00     0.011 A 
HETATM   17  C   UNL     1      41.962 -13.079  -1.566  1.00  0.00     0.004 A 
HETATM   18  C   UNL     1      41.982 -13.049  -2.960  1.00  0.00     0.043 A 
HETATM   19  C   UNL     1      42.364 -11.925  -0.858  1.00  0.00     0.014 A 
HETATM   20  C   UNL     1      42.410 -11.928  -3.683  1.00  0.00     0.030 A 
HETATM   21  N   UNL     1      41.530 -14.273  -3.397  1.00  0.00    -0.364 N 
HETATM   22  C   UNL     1      42.806 -10.798  -2.958  1.00  0.00     0.002 A 
HETATM   23  C   UNL     1      42.777 -10.790  -1.566  1.00  0.00     0.001 A 
HETATM   24  H   UNL     1      41.450 -14.541  -4.369  1.00  0.00     0.165 HD
HETATM   25  C   UNL     1      41.225 -15.077  -2.331  1.00  0.00     0.102 A 
ENDBRANCH  15  16
ENDBRANCH   3  14
BRANCH   2  26
HETATM   26  N   UNL     1      39.263 -14.843   2.729  1.00  0.00    -0.286 NA
HETATM   27  H   UNL     1      38.527 -14.950   3.434  1.00  0.00     0.125 HD
HETATM   28  H   UNL     1      38.834 -14.848   1.798  1.00  0.00     0.125 HD
ENDBRANCH   2  26
BRANCH   1  29
HETATM   29  C   UNL     1      41.254 -14.950   5.165  1.00  0.00     0.257 C 
HETATM   30  N   UNL     1      39.998 -14.497   5.527  1.00  0.00    -0.357 N 
HETATM   31  H   UNL     1      39.241 -14.759   4.904  1.00  0.00     0.162 HD
HETATM   32  O   UNL     1      42.282 -14.592   5.725  1.00  0.00    -0.267 OA
BRANCH  30  33
HETATM   33  C   UNL     1      39.760 -13.387   6.422  1.00  0.00     0.123 C 
BRANCH  33  34
HETATM   34  C   UNL     1      38.974 -12.306   5.676  1.00  0.00     0.023 C 
BRANCH  34  35
HETATM   35  C   UNL     1      39.689 -11.715   4.453  1.00  0.00    -0.021 C 
HETATM   36  C   UNL     1      41.037 -11.099   4.818  1.00  0.00     0.009 C 
HETATM   37  C   UNL     1      38.792 -10.659   3.799  1.00  0.00     0.009 C 
ENDBRANCH  34  35
ENDBRANCH  33  34
ENDBRANCH  30  33
ENDBRANCH   1  29
TORSDOF 7
ENDMDL
MODEL 8
REMARK VINA RESULT:      -9.0      3.953      8.595
REMARK  7 active torsions:
REMARK  status: ('A' for Active; 'I' for Inactive)
REMARK    1  A    between atoms: C_2  and  C_3 
REMARK    2  A    between atoms: C_3  and  C_4 
REMARK    3  A    between atoms: C_4  and  N_5 
REMARK       I    between atoms: N_5  and  C_6 
REMARK    4  A    between atoms: C_6  and  C_7 
REMARK    5  A    between atoms: C_8  and  N_9 
REMARK    6  A    between atoms: N_10  and  N_11 
REMARK    7  A    between atoms: C_12  and  C_13 
ROOT
HETATM    1  C   UNL     1      41.241 -12.999   2.242  1.00  0.00     0.104 C 
HETATM    2  C   UNL     1      42.479 -13.509   2.620  1.00  0.00     0.123 C 
HETATM    3  N   UNL     1      42.649 -14.715   1.938  1.00  0.00    -0.202 N 
HETATM    4  C   UNL     1      41.876 -14.647   0.797  1.00  0.00     0.183 A 
HETATM    5  C   UNL     1      40.939 -13.634   1.004  1.00  0.00     0.124 A 
HETATM    6  N   UNL     1      39.934 -13.426   0.114  1.00  0.00    -0.242 NA
HETATM    7  C   UNL     1      39.968 -14.213  -0.974  1.00  0.00     0.086 A 
HETATM    8  C   UNL     1      40.955 -15.218  -1.169  1.00  0.00     0.088 A 
HETATM    9  N   UNL     1      41.916 -15.477  -0.270  1.00  0.00    -0.225 NA
HETATM   10  C   UNL     1      39.000 -14.031  -1.954  1.00  0.00     0.034 A 
HETATM   11  C   UNL     1      38.985 -14.795  -3.122  1.00  0.00     0.002 A 
HETATM   12  C   UNL     1      39.958 -15.765  -3.317  1.00  0.00     0.002 A 
HETATM   13  C   UNL     1      40.930 -15.968  -2.338  1.00  0.00     0.034 A 
ENDROOT
BRANCH   3  14
HETATM   14  N   UNL     1      43.382 -15.808   2.347  1.00  0.00    -0.176 NA
HETATM   15  C   UNL     1      42.878 -16.375   3.394  1.00  0.00     0.153 C 
BRANCH  15  16
HETATM   16  C   UNL     1      43.451 -17.566   3.975  1.00  0.00     0.011 A 
HETATM   17  C   UNL     1      43.614 -18.824   3.311  1.00  0.00     0.004 A 
HETATM   18  C   UNL     1      44.319 -19.661   4.176  1.00  0.00     0.043 A 
HETATM   19  C   UNL     1      43.237 -19.324   2.045  1.00  0.00     0.014 A 
HETATM   20  C   UNL     1      44.688 -20.966   3.829  1.00  0.00     0.030 A 
HETATM   21  N   UNL     1      44.541 -18.949   5.333  1.00  0.00    -0.364 N 
HETATM   22  C   UNL     1      44.304 -21.436   2.568  1.00  0.00     0.002 A 
HETATM   23  C   UNL     1      43.582 -20.633   1.689  1.00  0.00     0.001 A 
HETATM   24  H   UNL     1      45.043 -19.303   6.136  1.00  0.00     0.165 HD
HETATM   25  C   UNL     1      44.004 -17.693   5.231  1.00  0.00     0.102 A 
ENDBRANCH  15  16
ENDBRANCH   3  14
BRANCH   2  26
HETATM   26  N   UNL     1      43.373 -13.078   3.567  1.00  0.00    -0.286 NA
HETATM   27  H   UNL     1      44.339 -12.948   3.255  1.00  0.00     0.125 HD
HETATM   28  H   UNL     1      43.376 -13.592   4.454  1.00  0.00     0.125 HD
ENDBRANCH   2  26
BRANCH   1  29
HETATM   29  C   UNL     1      40.455 -12.036   3.005  1.00  0.00     0.257 C 
HETATM   30  N   UNL     1      41.250 -11.071   3.597  1.00  0.00    -0.357 N 
HETATM   31  H   UNL     1      42.250 -11.194   3.482  1.00  0.00     0.162 HD
HETATM   32  O   UNL     1      39.247 -12.110   3.183  1.00  0.00    -0.267 OA
BRANCH  30  33
HETATM   33  C   UNL     1      40.812 -10.200   4.667  1.00  0.00     0.123 C 
BRANCH  33  34
HETATM   34  C   UNL     1      41.065 -10.894   6.007  1.00  0.00     0.023 C 
BRANCH  34  35
HETATM   35  C   UNL     1      39.803 -11.182   6.832  1.00  0.00    -0.021 C 
HETATM   36  C   UNL     1      40.011 -10.899   8.318  1.00  0.00     0.009 C 
HETATM   37  C   UNL     1      39.385 -12.643   6.633  1.00  0.00     0.009 C 
ENDBRANCH  34  35
ENDBRANCH  33  34
ENDBRANCH  30  33
ENDBRANCH   1  29
TORSDOF 7
ENDMDL
MODEL 9
REMARK VINA RESULT:      -8.9      4.610      8.859
REMARK  7 active torsions:
REMARK  status: ('A' for Active; 'I' for Inactive)
REMARK    1  A    between atoms: C_2  and  C_3 
REMARK    2  A    between atoms: C_3  and  C_4 
REMARK    3  A    between atoms: C_4  and  N_5 
REMARK       I    between atoms: N_5  and  C_6 
REMARK    4  A    between atoms: C_6  and  C_7 
REMARK    5  A    between atoms: C_8  and  N_9 
REMARK    6  A    between atoms: N_10  and  N_11 
REMARK    7  A    between atoms: C_12  and  C_13 
ROOT
HETATM    1  C   UNL     1      41.130 -12.929   2.027  1.00  0.00     0.104 C 
HETATM    2  C   UNL     1      42.364 -13.427   2.431  1.00  0.00     0.123 C 
HETATM    3  N   UNL     1      42.543 -14.650   1.783  1.00  0.00    -0.202 N 
HETATM    4  C   UNL     1      41.781 -14.615   0.632  1.00  0.00     0.183 A 
HETATM    5  C   UNL     1      40.841 -13.598   0.802  1.00  0.00     0.124 A 
HETATM    6  N   UNL     1      39.846 -13.415  -0.103  1.00  0.00    -0.242 NA
HETATM    7  C   UNL     1      39.892 -14.231  -1.169  1.00  0.00     0.086 A 
HETATM    8  C   UNL     1      40.882 -15.239  -1.327  1.00  0.00     0.088 A 
HETATM    9  N   UNL     1      41.833 -15.473  -0.411  1.00  0.00    -0.225 NA
HETATM   10  C   UNL     1      38.934 -14.077  -2.163  1.00  0.00     0.034 A 
HETATM   11  C   UNL     1      38.932 -14.872  -3.311  1.00  0.00     0.002 A 
HETATM   12  C   UNL     1      39.908 -15.844  -3.469  1.00  0.00     0.002 A 
HETATM   13  C   UNL     1      40.870 -16.020  -2.476  1.00  0.00     0.034 A 
ENDROOT
BRANCH   3  14
HETATM   14  N   UNL     1      43.273 -15.731   2.228  1.00  0.00    -0.176 NA
HETATM   15  C   UNL     1      42.781 -16.247   3.307  1.00  0.00     0.153 C 
BRANCH  15  16
HETATM   16  C   UNL     1      43.353 -17.417   3.931  1.00  0.00     0.011 A 
HETATM   17  C   UNL     1      43.559 -18.685   3.298  1.00  0.00     0.004 A 
HETATM   18  C   UNL     1      44.247 -19.492   4.204  1.00  0.00     0.043 A 
HETATM   19  C   UNL     1      43.233 -19.216   2.031  1.00  0.00     0.014 A 
HETATM   20  C   UNL     1      44.649 -20.798   3.895  1.00  0.00     0.030 A 
HETATM   21  N   UNL     1      44.418 -18.754   5.353  1.00  0.00    -0.364 N 
HETATM   22  C   UNL     1      44.316 -21.299   2.632  1.00  0.00     0.002 A 
HETATM   23  C   UNL     1      43.611 -20.525   1.713  1.00  0.00     0.001 A 
HETATM   24  H   UNL     1      44.898 -19.084   6.179  1.00  0.00     0.165 HD
HETATM   25  C   UNL     1      43.865 -17.510   5.207  1.00  0.00     0.102 A 
ENDBRANCH  15  16
ENDBRANCH   3  14
BRANCH   2  26
HETATM   26  N   UNL     1      43.247 -12.970   3.375  1.00  0.00    -0.286 NA
HETATM   27  H   UNL     1      43.080 -13.271   4.339  1.00  0.00     0.125 HD
HETATM   28  H   UNL     1      43.435 -11.962   3.368  1.00  0.00     0.125 HD
ENDBRANCH   2  26
BRANCH   1  29
HETATM   29  C   UNL     1      40.335 -11.947   2.755  1.00  0.00     0.257 C 
HETATM   30  N   UNL     1      38.981 -12.087   2.505  1.00  0.00    -0.357 N 
HETATM   31  H   UNL     1      38.732 -12.790   1.817  1.00  0.00     0.162 HD
HETATM   32  O   UNL     1      40.800 -11.045   3.439  1.00  0.00    -0.267 OA
BRANCH  30  33
HETATM   33  C   UNL     1      37.990 -11.077   2.804  1.00  0.00     0.123 C 
BRANCH  33  34
HETATM   34  C   UNL     1      37.457 -10.500   1.490  1.00  0.00     0.023 C 
BRANCH  34  35
HETATM   35  C   UNL     1      36.418 -11.375   0.775  1.00  0.00    -0.021 C 
HETATM   36  C   UNL     1      36.739 -11.552  -0.707  1.00  0.00     0.009 C 
HETATM   37  C   UNL     1      35.028 -10.751   0.937  1.00  0.00     0.009 C 
ENDBRANCH  34  35
ENDBRANCH  33  34
ENDBRANCH  30  33
ENDBRANCH   1  29
TORSDOF 7
ENDMDL
MODEL 10
REMARK VINA RESULT:      -8.4      4.031      8.656
REMARK  7 active torsions:
REMARK  status: ('A' for Active; 'I' for Inactive)
REMARK    1  A    between atoms: C_2  and  C_3 
REMARK    2  A    between atoms: C_3  and  C_4 
REMARK    3  A    between atoms: C_4  and  N_5 
REMARK       I    between atoms: N_5  and  C_6 
REMARK    4  A    between atoms: C_6  and  C_7 
REMARK    5  A    between atoms: C_8  and  N_9 
REMARK    6  A    between atoms: N_10  and  N_11 
REMARK    7  A    between atoms: C_12  and  C_13 
ROOT
HETATM    1  C   UNL     1      39.997 -13.704   2.062  1.00  0.00     0.104 C 
HETATM    2  C   UNL     1      39.839 -14.985   2.579  1.00  0.00     0.123 C 
HETATM    3  N   UNL     1      40.573 -15.041   3.765  1.00  0.00    -0.202 N 
HETATM    4  C   UNL     1      40.668 -13.750   4.243  1.00  0.00     0.183 A 
HETATM    5  C   UNL     1      40.391 -12.901   3.171  1.00  0.00     0.124 A 
HETATM    6  N   UNL     1      40.553 -11.558   3.290  1.00  0.00    -0.242 NA
HETATM    7  C   UNL     1      40.926 -11.138   4.510  1.00  0.00     0.086 A 
HETATM    8  C   UNL     1      41.172 -12.027   5.591  1.00  0.00     0.088 A 
HETATM    9  N   UNL     1      41.078 -13.360   5.472  1.00  0.00    -0.225 NA
HETATM   10  C   UNL     1      41.069  -9.773   4.725  1.00  0.00     0.034 A 
HETATM   11  C   UNL     1      41.430  -9.259   5.972  1.00  0.00     0.002 A 
HETATM   12  C   UNL     1      41.656 -10.129   7.029  1.00  0.00     0.002 A 
HETATM   13  C   UNL     1      41.527 -11.503   6.827  1.00  0.00     0.034 A 
ENDROOT
BRANCH   3  14
HETATM   14  N   UNL     1      41.166 -16.150   4.327  1.00  0.00    -0.176 NA
HETATM   15  C   UNL     1      42.337 -16.387   3.833  1.00  0.00     0.153 C 
BRANCH  15  16
HETATM   16  C   UNL     1      43.166 -17.472   4.303  1.00  0.00     0.011 A 
HETATM   17  C   UNL     1      43.465 -18.670   3.578  1.00  0.00     0.004 A 
HETATM   18  C   UNL     1      44.394 -19.388   4.329  1.00  0.00     0.043 A 
HETATM   19  C   UNL     1      43.037 -19.203   2.341  1.00  0.00     0.014 A 
HETATM   20  C   UNL     1      44.937 -20.604   3.894  1.00  0.00     0.030 A 
HETATM   21  N   UNL     1      44.621 -18.671   5.482  1.00  0.00    -0.364 N 
HETATM   22  C   UNL     1      44.499 -21.108   2.665  1.00  0.00     0.002 A 
HETATM   23  C   UNL     1      43.557 -20.425   1.900  1.00  0.00     0.001 A 
HETATM   24  H   UNL     1      45.263 -18.948   6.212  1.00  0.00     0.165 HD
HETATM   25  C   UNL     1      43.871 -17.525   5.486  1.00  0.00     0.102 A 
ENDBRANCH  15  16
ENDBRANCH   3  14
BRANCH   2  26
HETATM   26  N   UNL     1      39.229 -16.094   2.050  1.00  0.00    -0.286 NA
HETATM   27  H   UNL     1      39.597 -16.434   1.157  1.00  0.00     0.125 HD
HETATM   28  H   UNL     1      38.205 -16.066   1.999  1.00  0.00     0.125 HD
ENDBRANCH   2  26
BRANCH   1  29
HETATM   29  C   UNL     1      39.808 -13.326   0.666  1.00  0.00     0.257 C 
HETATM   30  N   UNL     1      39.781 -11.953   0.500  1.00  0.00    -0.357 N 
HETATM   31  H   UNL     1      39.827 -11.406   1.353  1.00  0.00     0.162 HD
HETATM   32  O   UNL     1      39.605 -14.115  -0.246  1.00  0.00    -0.267 OA
BRANCH  30  33
HETATM   33  C   UNL     1      39.282 -11.286  -0.683  1.00  0.00     0.123 C 
BRANCH  33  34
HETATM   34  C   UNL     1      37.766 -11.119  -0.558  1.00  0.00     0.023 C 
BRANCH  34  35
HETATM   35  C   UNL     1      36.949 -11.792  -1.670  1.00  0.00    -0.021 C 
HETATM   36  C   UNL     1      37.832 -12.296  -2.808  1.00  0.00     0.009 C 
HETATM   37  C   UNL     1      35.914 -10.800  -2.213  1.00  0.00     0.009 C 
ENDBRANCH  34  35
ENDBRANCH  33  34
ENDBRANCH  30  33
ENDBRANCH   1  29
TORSDOF 7
ENDMDL
