MODEL 1
REMARK VINA RESULT:      -8.3      0.000      0.000
REMARK  7 active torsions:
REMARK  status: ('A' for Active; 'I' for Inactive)
REMARK    1  A    between atoms: C_12  and  S_13 
REMARK    2  A    between atoms: S_13  and  C_14 
REMARK    3  A    between atoms: C_14  and  C_15 
REMARK       I    between atoms: C_15  and  N_16 
REMARK    4  A    between atoms: N_16  and  C_17 
REMARK    5  A    between atoms: C_17  and  C_18 
REMARK    6  A    between atoms: C_18  and  C_19 
REMARK    7  A    between atoms: C_22  and  O_23 
ROOT
HETATM    1  S   UNL     1      39.793 -15.368   2.103  1.00  0.00    -0.080 SA
ENDROOT
BRANCH   1   2
HETATM    2  C   UNL     1      41.201 -14.489   2.597  1.00  0.00     0.197 A 
HETATM    3  N   UNL     1      41.966 -14.687   3.736  1.00  0.00    -0.271 N 
HETATM    4  C   UNL     1      41.916 -15.605   4.827  1.00  0.00     0.054 A 
HETATM    5  C   UNL     1      42.944 -13.702   3.640  1.00  0.00     0.159 A 
HETATM    6  C   UNL     1      42.915 -15.465   5.824  1.00  0.00    -0.003 A 
HETATM    7  C   UNL     1      40.950 -16.610   4.948  1.00  0.00     0.031 A 
HETATM    8  C   UNL     1      43.950 -14.405   5.704  1.00  0.00    -0.046 A 
HETATM    9  C   UNL     1      42.905 -16.347   6.917  1.00  0.00     0.014 A 
HETATM   10  C   UNL     1      45.011 -14.259   6.759  1.00  0.00     0.049 C 
HETATM   11  C   UNL     1      43.928 -13.582   4.642  1.00  0.00     0.060 A 
HETATM   12  C   UNL     1      41.936 -17.344   7.028  1.00  0.00     0.001 A 
HETATM   13  C   UNL     1      40.963 -17.474   6.045  1.00  0.00     0.002 A 
HETATM   14  N   UNL     1      42.776 -12.993   2.545  1.00  0.00    -0.129 NA
HETATM   15  N   UNL     1      41.685 -13.487   1.893  1.00  0.00    -0.122 NA
ENDBRANCH   1   2
BRANCH   1  16
HETATM   16  C   UNL     1      40.558 -16.847   1.373  1.00  0.00     0.185 C 
BRANCH  16  17
HETATM   17  C   UNL     1      41.538 -16.450   0.278  1.00  0.00     0.227 C 
HETATM   18  N   UNL     1      42.875 -16.659   0.481  1.00  0.00    -0.360 N 
HETATM   19  H   UNL     1      43.446 -16.349  -0.297  1.00  0.00     0.162 HD
HETATM   20  O   UNL     1      41.187 -15.979  -0.805  1.00  0.00    -0.273 OA
BRANCH  18  21
HETATM   21  C   UNL     1      43.518 -17.211   1.662  1.00  0.00     0.127 C 
BRANCH  21  22
HETATM   22  C   UNL     1      44.074 -18.611   1.406  1.00  0.00     0.058 C 
BRANCH  22  23
HETATM   23  C   UNL     1      44.184 -19.409   2.679  1.00  0.00    -0.057 A 
HETATM   24  C   UNL     1      43.974 -18.798   3.920  1.00  0.00     0.010 A 
HETATM   25  C   UNL     1      44.097 -19.537   5.099  1.00  0.00     0.037 A 
HETATM   26  C   UNL     1      44.435 -20.891   5.061  1.00  0.00     0.068 A 
HETATM   27  C   UNL     1      44.652 -21.503   3.827  1.00  0.00     0.037 A 
HETATM   28  C   UNL     1      44.528 -20.766   2.644  1.00  0.00     0.010 A 
BRANCH  26  29
HETATM   29  O   UNL     1      44.521 -21.494   6.286  1.00  0.00    -0.356 OA
HETATM   30  C   UNL     1      43.587 -21.076   7.274  1.00  0.00     0.210 C 
ENDBRANCH  26  29
ENDBRANCH  22  23
ENDBRANCH  21  22
ENDBRANCH  18  21
ENDBRANCH  16  17
ENDBRANCH   1  16
TORSDOF 7
ENDMDL
MODEL 2
REMARK VINA RESULT:      -8.1      3.199      7.079
REMARK  7 active torsions:
REMARK  status: ('A' for Active; 'I' for Inactive)
REMARK    1  A    between atoms: C_12  and  S_13 
REMARK    2  A    between atoms: S_13  and  C_14 
REMARK    3  A    between atoms: C_14  and  C_15 
REMARK       I    between atoms: C_15  and  N_16 
REMARK    4  A    between atoms: N_16  and  C_17 
REMARK    5  A    between atoms: C_17  and  C_18 
REMARK    6  A    between atoms: C_18  and  C_19 
REMARK    7  A    between atoms: C_22  and  O_23 
ROOT
HETATM    1  S   UNL     1      40.855 -15.002   4.158  1.00  0.00    -0.080 SA
ENDROOT
BRANCH   1   2
HETATM    2  C   UNL     1      41.241 -16.337   3.125  1.00  0.00     0.197 A 
HETATM    3  N   UNL     1      42.213 -17.305   3.322  1.00  0.00    -0.271 N 
HETATM    4  C   UNL     1      43.166 -17.572   4.350  1.00  0.00     0.054 A 
HETATM    5  C   UNL     1      42.101 -18.106   2.190  1.00  0.00     0.159 A 
HETATM    6  C   UNL     1      44.008 -18.698   4.162  1.00  0.00    -0.003 A 
HETATM    7  C   UNL     1      43.297 -16.790   5.503  1.00  0.00     0.031 A 
HETATM    8  C   UNL     1      43.874 -19.539   2.945  1.00  0.00    -0.046 A 
HETATM    9  C   UNL     1      44.962 -18.997   5.150  1.00  0.00     0.014 A 
HETATM   10  C   UNL     1      44.764 -20.734   2.748  1.00  0.00     0.049 C 
HETATM   11  C   UNL     1      42.948 -19.221   2.025  1.00  0.00     0.060 A 
HETATM   12  C   UNL     1      45.085 -18.210   6.294  1.00  0.00     0.001 A 
HETATM   13  C   UNL     1      44.254 -17.111   6.469  1.00  0.00     0.002 A 
HETATM   14  N   UNL     1      41.149 -17.656   1.401  1.00  0.00    -0.129 NA
HETATM   15  N   UNL     1      40.611 -16.549   1.989  1.00  0.00    -0.122 NA
ENDBRANCH   1   2
BRANCH   1  16
HETATM   16  C   UNL     1      40.765 -13.651   2.944  1.00  0.00     0.185 C 
BRANCH  16  17
HETATM   17  C   UNL     1      42.125 -13.430   2.297  1.00  0.00     0.227 C 
HETATM   18  N   UNL     1      42.207 -13.376   0.933  1.00  0.00    -0.360 N 
HETATM   19  H   UNL     1      43.155 -13.240   0.598  1.00  0.00     0.162 HD
HETATM   20  O   UNL     1      43.161 -13.259   2.943  1.00  0.00    -0.273 OA
BRANCH  18  21
HETATM   21  C   UNL     1      41.128 -13.532  -0.028  1.00  0.00     0.127 C 
BRANCH  21  22
HETATM   22  C   UNL     1      41.404 -14.666  -1.015  1.00  0.00     0.058 C 
BRANCH  22  23
HETATM   23  C   UNL     1      40.284 -14.824  -2.010  1.00  0.00    -0.057 A 
HETATM   24  C   UNL     1      39.103 -14.086  -1.874  1.00  0.00     0.010 A 
HETATM   25  C   UNL     1      38.060 -14.250  -2.787  1.00  0.00     0.037 A 
HETATM   26  C   UNL     1      38.174 -15.154  -3.846  1.00  0.00     0.068 A 
HETATM   27  C   UNL     1      39.346 -15.896  -3.982  1.00  0.00     0.037 A 
HETATM   28  C   UNL     1      40.393 -15.733  -3.069  1.00  0.00     0.010 A 
BRANCH  26  29
HETATM   29  O   UNL     1      37.080 -15.215  -4.665  1.00  0.00    -0.356 OA
HETATM   30  C   UNL     1      36.173 -14.121  -4.609  1.00  0.00     0.210 C 
ENDBRANCH  26  29
ENDBRANCH  22  23
ENDBRANCH  21  22
ENDBRANCH  18  21
ENDBRANCH  16  17
ENDBRANCH   1  16
TORSDOF 7
ENDMDL
MODEL 3
REMARK VINA RESULT:      -8.1      3.973      7.282
REMARK  7 active torsions:
REMARK  status: ('A' for Active; 'I' for Inactive)
REMARK    1  A    between atoms: C_12  and  S_13 
REMARK    2  A    between atoms: S_13  and  C_14 
REMARK    3  A    between atoms: C_14  and  C_15 
REMARK       I    between atoms: C_15  and  N_16 
REMARK    4  A    between atoms: N_16  and  C_17 
REMARK    5  A    between atoms: C_17  and  C_18 
REMARK    6  A    between atoms: C_18  and  C_19 
REMARK    7  A    between atoms: C_22  and  O_23 
ROOT
HETATM    1  S   UNL     1      41.178 -14.814   5.573  1.00  0.00    -0.080 SA
ENDROOT
BRANCH   1   2
HETATM    2  C   UNL     1      41.184 -15.749   4.116  1.00  0.00     0.197 A 
HETATM    3  N   UNL     1      41.951 -16.868   3.832  1.00  0.00    -0.271 N 
HETATM    4  C   UNL     1      42.921 -17.626   4.554  1.00  0.00     0.054 A 
HETATM    5  C   UNL     1      41.572 -17.195   2.534  1.00  0.00     0.159 A 
HETATM    6  C   UNL     1      43.493 -18.735   3.881  1.00  0.00    -0.003 A 
HETATM    7  C   UNL     1      43.317 -17.327   5.863  1.00  0.00     0.031 A 
HETATM    8  C   UNL     1      43.077 -19.066   2.494  1.00  0.00    -0.046 A 
HETATM    9  C   UNL     1      44.453 -19.509   4.554  1.00  0.00     0.014 A 
HETATM   10  C   UNL     1      43.681 -20.244   1.782  1.00  0.00     0.049 C 
HETATM   11  C   UNL     1      42.154 -18.303   1.885  1.00  0.00     0.060 A 
HETATM   12  C   UNL     1      44.841 -19.201   5.857  1.00  0.00     0.001 A 
HETATM   13  C   UNL     1      44.273 -18.114   6.509  1.00  0.00     0.002 A 
HETATM   14  N   UNL     1      40.664 -16.351   2.094  1.00  0.00    -0.129 NA
HETATM   15  N   UNL     1      40.421 -15.447   3.086  1.00  0.00    -0.122 NA
ENDBRANCH   1   2
BRANCH   1  16
HETATM   16  C   UNL     1      42.097 -13.341   5.033  1.00  0.00     0.185 C 
BRANCH  16  17
HETATM   17  C   UNL     1      43.527 -13.715   4.669  1.00  0.00     0.227 C 
HETATM   18  N   UNL     1      44.421 -13.966   5.673  1.00  0.00    -0.360 N 
HETATM   19  H   UNL     1      45.349 -14.191   5.331  1.00  0.00     0.162 HD
HETATM   20  O   UNL     1      43.918 -13.839   3.506  1.00  0.00    -0.273 OA
BRANCH  18  21
HETATM   21  C   UNL     1      44.187 -13.898   7.106  1.00  0.00     0.127 C 
BRANCH  21  22
HETATM   22  C   UNL     1      45.316 -13.170   7.834  1.00  0.00     0.058 C 
BRANCH  22  23
HETATM   23  C   UNL     1      44.786 -12.158   8.816  1.00  0.00    -0.057 A 
HETATM   24  C   UNL     1      45.531 -11.811   9.949  1.00  0.00     0.010 A 
HETATM   25  C   UNL     1      45.028 -10.887  10.867  1.00  0.00     0.037 A 
HETATM   26  C   UNL     1      43.776 -10.299  10.675  1.00  0.00     0.068 A 
HETATM   27  C   UNL     1      43.027 -10.646   9.551  1.00  0.00     0.037 A 
HETATM   28  C   UNL     1      43.529 -11.571   8.629  1.00  0.00     0.010 A 
BRANCH  26  29
HETATM   29  O   UNL     1      43.405  -9.412  11.649  1.00  0.00    -0.356 OA
HETATM   30  C   UNL     1      43.373  -9.901  12.984  1.00  0.00     0.210 C 
ENDBRANCH  26  29
ENDBRANCH  22  23
ENDBRANCH  21  22
ENDBRANCH  18  21
ENDBRANCH  16  17
ENDBRANCH   1  16
TORSDOF 7
ENDMDL
MODEL 4
REMARK VINA RESULT:      -8.1      4.193      7.647
REMARK  7 active torsions:
REMARK  status: ('A' for Active; 'I' for Inactive)
REMARK    1  A    between atoms: C_12  and  S_13 
REMARK    2  A    between atoms: S_13  and  C_14 
REMARK    3  A    between atoms: C_14  and  C_15 
REMARK       I    between atoms: C_15  and  N_16 
REMARK    4  A    between atoms: N_16  and  C_17 
REMARK    5  A    between atoms: C_17  and  C_18 
REMARK    6  A    between atoms: C_18  and  C_19 
REMARK    7  A    between atoms: C_22  and  O_23 
ROOT
HETATM    1  S   UNL     1      41.184 -14.882   5.209  1.00  0.00    -0.080 SA
ENDROOT
BRANCH   1   2
HETATM    2  C   UNL     1      42.024 -16.283   5.781  1.00  0.00     0.197 A 
HETATM    3  N   UNL     1      42.723 -17.216   5.031  1.00  0.00    -0.271 N 
HETATM    4  C   UNL     1      43.014 -17.368   3.642  1.00  0.00     0.054 A 
HETATM    5  C   UNL     1      43.170 -18.125   5.985  1.00  0.00     0.159 A 
HETATM    6  C   UNL     1      43.782 -18.501   3.272  1.00  0.00    -0.003 A 
HETATM    7  C   UNL     1      42.585 -16.467   2.660  1.00  0.00     0.031 A 
HETATM    8  C   UNL     1      44.248 -19.461   4.306  1.00  0.00    -0.046 A 
HETATM    9  C   UNL     1      44.093 -18.690   1.915  1.00  0.00     0.014 A 
HETATM   10  C   UNL     1      45.065 -20.660   3.913  1.00  0.00     0.049 C 
HETATM   11  C   UNL     1      43.933 -19.244   5.594  1.00  0.00     0.060 A 
HETATM   12  C   UNL     1      43.658 -17.787   0.945  1.00  0.00     0.001 A 
HETATM   13  C   UNL     1      42.908 -16.679   1.318  1.00  0.00     0.002 A 
HETATM   14  N   UNL     1      42.776 -17.761   7.186  1.00  0.00    -0.129 NA
HETATM   15  N   UNL     1      42.059 -16.607   7.057  1.00  0.00    -0.122 NA
ENDBRANCH   1   2
BRANCH   1  16
HETATM   16  C   UNL     1      42.244 -13.560   5.869  1.00  0.00     0.185 C 
BRANCH  16  17
HETATM   17  C   UNL     1      43.652 -13.680   5.305  1.00  0.00     0.227 C 
HETATM   18  N   UNL     1      44.694 -13.886   6.167  1.00  0.00    -0.360 N 
HETATM   19  H   UNL     1      45.592 -13.937   5.698  1.00  0.00     0.162 HD
HETATM   20  O   UNL     1      43.903 -13.638   4.099  1.00  0.00    -0.273 OA
BRANCH  18  21
HETATM   21  C   UNL     1      44.641 -13.985   7.616  1.00  0.00     0.127 C 
BRANCH  21  22
HETATM   22  C   UNL     1      45.320 -12.797   8.294  1.00  0.00     0.058 C 
BRANCH  22  23
HETATM   23  C   UNL     1      44.431 -12.162   9.332  1.00  0.00    -0.057 A 
HETATM   24  C   UNL     1      43.440 -11.249   8.955  1.00  0.00     0.010 A 
HETATM   25  C   UNL     1      42.631 -10.648   9.922  1.00  0.00     0.037 A 
HETATM   26  C   UNL     1      42.799 -10.943  11.276  1.00  0.00     0.068 A 
HETATM   27  C   UNL     1      43.789 -11.847  11.657  1.00  0.00     0.037 A 
HETATM   28  C   UNL     1      44.600 -12.452  10.691  1.00  0.00     0.010 A 
BRANCH  26  29
HETATM   29  O   UNL     1      41.940 -10.286  12.114  1.00  0.00    -0.356 OA
HETATM   30  C   UNL     1      42.224 -10.352  13.506  1.00  0.00     0.210 C 
ENDBRANCH  26  29
ENDBRANCH  22  23
ENDBRANCH  21  22
ENDBRANCH  18  21
ENDBRANCH  16  17
ENDBRANCH   1  16
TORSDOF 7
ENDMDL
MODEL 5
REMARK VINA RESULT:      -7.9      2.970      7.184
REMARK  7 active torsions:
REMARK  status: ('A' for Active; 'I' for Inactive)
REMARK    1  A    between atoms: C_12  and  S_13 
REMARK    2  A    between atoms: S_13  and  C_14 
REMARK    3  A    between atoms: C_14  and  C_15 
REMARK       I    between atoms: C_15  and  N_16 
REMARK    4  A    between atoms: N_16  and  C_17 
REMARK    5  A    between atoms: C_17  and  C_18 
REMARK    6  A    between atoms: C_18  and  C_19 
REMARK    7  A    between atoms: C_22  and  O_23 
ROOT
HETATM    1  S   UNL     1      42.972 -16.661   6.885  1.00  0.00    -0.080 SA
ENDROOT
BRANCH   1   2
HETATM    2  C   UNL     1      43.483 -18.275   6.523  1.00  0.00     0.197 A 
HETATM    3  N   UNL     1      43.721 -18.827   5.274  1.00  0.00    -0.271 N 
HETATM    4  C   UNL     1      43.666 -18.335   3.935  1.00  0.00     0.054 A 
HETATM    5  C   UNL     1      44.081 -20.138   5.567  1.00  0.00     0.159 A 
HETATM    6  C   UNL     1      43.992 -19.253   2.905  1.00  0.00    -0.003 A 
HETATM    7  C   UNL     1      43.315 -17.020   3.610  1.00  0.00     0.031 A 
HETATM    8  C   UNL     1      44.371 -20.650   3.239  1.00  0.00    -0.046 A 
HETATM    9  C   UNL     1      43.950 -18.812   1.572  1.00  0.00     0.014 A 
HETATM   10  C   UNL     1      44.719 -21.622   2.146  1.00  0.00     0.049 C 
HETATM   11  C   UNL     1      44.402 -21.033   4.526  1.00  0.00     0.060 A 
HETATM   12  C   UNL     1      43.597 -17.500   1.259  1.00  0.00     0.001 A 
HETATM   13  C   UNL     1      43.282 -16.608   2.276  1.00  0.00     0.002 A 
HETATM   14  N   UNL     1      44.062 -20.340   6.866  1.00  0.00    -0.129 NA
HETATM   15  N   UNL     1      43.688 -19.173   7.464  1.00  0.00    -0.122 NA
ENDBRANCH   1   2
BRANCH   1  16
HETATM   16  C   UNL     1      44.555 -15.773   6.779  1.00  0.00     0.185 C 
BRANCH  16  17
HETATM   17  C   UNL     1      44.376 -14.321   7.200  1.00  0.00     0.227 C 
HETATM   18  N   UNL     1      43.828 -13.438   6.311  1.00  0.00    -0.360 N 
HETATM   19  H   UNL     1      43.764 -12.495   6.678  1.00  0.00     0.162 HD
HETATM   20  O   UNL     1      44.669 -13.902   8.322  1.00  0.00    -0.273 OA
BRANCH  18  21
HETATM   21  C   UNL     1      43.395 -13.703   4.949  1.00  0.00     0.127 C 
BRANCH  21  22
HETATM   22  C   UNL     1      41.980 -13.188   4.690  1.00  0.00     0.058 C 
BRANCH  22  23
HETATM   23  C   UNL     1      41.500 -13.544   3.307  1.00  0.00    -0.057 A 
HETATM   24  C   UNL     1      40.377 -14.360   3.134  1.00  0.00     0.010 A 
HETATM   25  C   UNL     1      39.948 -14.705   1.851  1.00  0.00     0.037 A 
HETATM   26  C   UNL     1      40.630 -14.246   0.722  1.00  0.00     0.068 A 
HETATM   27  C   UNL     1      41.754 -13.437   0.890  1.00  0.00     0.037 A 
HETATM   28  C   UNL     1      42.186 -13.090   2.174  1.00  0.00     0.010 A 
BRANCH  26  29
HETATM   29  O   UNL     1      40.103 -14.657  -0.471  1.00  0.00    -0.356 OA
HETATM   30  C   UNL     1      41.018 -14.873  -1.538  1.00  0.00     0.210 C 
ENDBRANCH  26  29
ENDBRANCH  22  23
ENDBRANCH  21  22
ENDBRANCH  18  21
ENDBRANCH  16  17
ENDBRANCH   1  16
TORSDOF 7
ENDMDL
MODEL 6
REMARK VINA RESULT:      -7.9      2.957      7.042
REMARK  7 active torsions:
REMARK  status: ('A' for Active; 'I' for Inactive)
REMARK    1  A    between atoms: C_12  and  S_13 
REMARK    2  A    between atoms: S_13  and  C_14 
REMARK    3  A    between atoms: C_14  and  C_15 
REMARK       I    between atoms: C_15  and  N_16 
REMARK    4  A    between atoms: N_16  and  C_17 
REMARK    5  A    between atoms: C_17  and  C_18 
REMARK    6  A    between atoms: C_18  and  C_19 
REMARK    7  A    between atoms: C_22  and  O_23 
ROOT
HETATM    1  S   UNL     1      42.461 -15.224   5.553  1.00  0.00    -0.080 SA
ENDROOT
BRANCH   1   2
HETATM    2  C   UNL     1      42.977 -16.695   6.307  1.00  0.00     0.197 A 
HETATM    3  N   UNL     1      43.419 -17.853   5.688  1.00  0.00    -0.271 N 
HETATM    4  C   UNL     1      43.623 -18.248   4.332  1.00  0.00     0.054 A 
HETATM    5  C   UNL     1      43.678 -18.708   6.755  1.00  0.00     0.159 A 
HETATM    6  C   UNL     1      44.101 -19.565   4.116  1.00  0.00    -0.003 A 
HETATM    7  C   UNL     1      43.380 -17.409   3.238  1.00  0.00     0.031 A 
HETATM    8  C   UNL     1      44.368 -20.464   5.269  1.00  0.00    -0.046 A 
HETATM    9  C   UNL     1      44.316 -19.996   2.796  1.00  0.00     0.014 A 
HETATM   10  C   UNL     1      44.877 -21.859   5.040  1.00  0.00     0.049 C 
HETATM   11  C   UNL     1      44.152 -20.014   6.516  1.00  0.00     0.060 A 
HETATM   12  C   UNL     1      44.068 -19.152   1.714  1.00  0.00     0.001 A 
HETATM   13  C   UNL     1      43.603 -17.862   1.936  1.00  0.00     0.002 A 
HETATM   14  N   UNL     1      43.417 -18.109   7.896  1.00  0.00    -0.129 NA
HETATM   15  N   UNL     1      42.978 -16.849   7.615  1.00  0.00    -0.122 NA
ENDBRANCH   1   2
BRANCH   1  16
HETATM   16  C   UNL     1      40.659 -15.468   5.536  1.00  0.00     0.185 C 
BRANCH  16  17
HETATM   17  C   UNL     1      39.968 -14.257   4.924  1.00  0.00     0.227 C 
HETATM   18  N   UNL     1      39.700 -14.258   3.582  1.00  0.00    -0.360 N 
HETATM   19  H   UNL     1      39.253 -13.404   3.267  1.00  0.00     0.162 HD
HETATM   20  O   UNL     1      39.601 -13.283   5.583  1.00  0.00    -0.273 OA
BRANCH  18  21
HETATM   21  C   UNL     1      40.021 -15.293   2.614  1.00  0.00     0.127 C 
BRANCH  21  22
HETATM   22  C   UNL     1      41.145 -14.863   1.672  1.00  0.00     0.058 C 
BRANCH  22  23
HETATM   23  C   UNL     1      40.699 -14.863   0.233  1.00  0.00    -0.057 A 
HETATM   24  C   UNL     1      41.326 -15.692  -0.704  1.00  0.00     0.010 A 
HETATM   25  C   UNL     1      40.923 -15.675  -2.041  1.00  0.00     0.037 A 
HETATM   26  C   UNL     1      39.895 -14.831  -2.466  1.00  0.00     0.068 A 
HETATM   27  C   UNL     1      39.271 -13.999  -1.537  1.00  0.00     0.037 A 
HETATM   28  C   UNL     1      39.672 -14.014  -0.197  1.00  0.00     0.010 A 
BRANCH  26  29
HETATM   29  O   UNL     1      39.601 -14.915  -3.799  1.00  0.00    -0.356 OA
HETATM   30  C   UNL     1      38.999 -16.122  -4.249  1.00  0.00     0.210 C 
ENDBRANCH  26  29
ENDBRANCH  22  23
ENDBRANCH  21  22
ENDBRANCH  18  21
ENDBRANCH  16  17
ENDBRANCH   1  16
TORSDOF 7
ENDMDL
MODEL 7
REMARK VINA RESULT:      -7.8      2.815      6.672
REMARK  7 active torsions:
REMARK  status: ('A' for Active; 'I' for Inactive)
REMARK    1  A    between atoms: C_12  and  S_13 
REMARK    2  A    between atoms: S_13  and  C_14 
REMARK    3  A    between atoms: C_14  and  C_15 
REMARK       I    between atoms: C_15  and  N_16 
REMARK    4  A    between atoms: N_16  and  C_17 
REMARK    5  A    between atoms: C_17  and  C_18 
REMARK    6  A    between atoms: C_18  and  C_19 
REMARK    7  A    between atoms: C_22  and  O_23 
ROOT
HETATM    1  S   UNL     1      40.714 -15.093   4.243  1.00  0.00    -0.080 SA
ENDROOT
BRANCH   1   2
HETATM    2  C   UNL     1      41.181 -16.382   3.186  1.00  0.00     0.197 A 
HETATM    3  N   UNL     1      42.184 -17.318   3.384  1.00  0.00    -0.271 N 
HETATM    4  C   UNL     1      43.118 -17.577   4.432  1.00  0.00     0.054 A 
HETATM    5  C   UNL     1      42.136 -18.089   2.227  1.00  0.00     0.159 A 
HETATM    6  C   UNL     1      44.008 -18.664   4.238  1.00  0.00    -0.003 A 
HETATM    7  C   UNL     1      43.186 -16.824   5.609  1.00  0.00     0.031 A 
HETATM    8  C   UNL     1      43.942 -19.474   2.994  1.00  0.00    -0.046 A 
HETATM    9  C   UNL     1      44.944 -18.955   5.244  1.00  0.00     0.014 A 
HETATM   10  C   UNL     1      44.884 -20.627   2.790  1.00  0.00     0.049 C 
HETATM   11  C   UNL     1      43.030 -19.166   2.056  1.00  0.00     0.060 A 
HETATM   12  C   UNL     1      45.004 -18.197   6.412  1.00  0.00     0.001 A 
HETATM   13  C   UNL     1      44.127 -17.136   6.594  1.00  0.00     0.002 A 
HETATM   14  N   UNL     1      41.190 -17.654   1.424  1.00  0.00    -0.129 NA
HETATM   15  N   UNL     1      40.593 -16.585   2.025  1.00  0.00    -0.122 NA
ENDBRANCH   1   2
BRANCH   1  16
HETATM   16  C   UNL     1      40.694 -13.694   3.081  1.00  0.00     0.185 C 
BRANCH  16  17
HETATM   17  C   UNL     1      42.049 -12.999   3.068  1.00  0.00     0.227 C 
HETATM   18  N   UNL     1      42.331 -12.122   2.057  1.00  0.00    -0.360 N 
HETATM   19  H   UNL     1      43.261 -11.723   2.127  1.00  0.00     0.162 HD
HETATM   20  O   UNL     1      42.899 -13.159   3.945  1.00  0.00    -0.273 OA
BRANCH  18  21
HETATM   21  C   UNL     1      41.486 -11.765   0.930  1.00  0.00     0.127 C 
BRANCH  21  22
HETATM   22  C   UNL     1      42.251 -11.803  -0.392  1.00  0.00     0.058 C 
BRANCH  22  23
HETATM   23  C   UNL     1      41.768 -12.915  -1.286  1.00  0.00    -0.057 A 
HETATM   24  C   UNL     1      41.756 -12.754  -2.676  1.00  0.00     0.010 A 
HETATM   25  C   UNL     1      41.288 -13.779  -3.500  1.00  0.00     0.037 A 
HETATM   26  C   UNL     1      40.823 -14.978  -2.954  1.00  0.00     0.068 A 
HETATM   27  C   UNL     1      40.827 -15.141  -1.570  1.00  0.00     0.037 A 
HETATM   28  C   UNL     1      41.296 -14.115  -0.741  1.00  0.00     0.010 A 
BRANCH  26  29
HETATM   29  O   UNL     1      40.396 -15.896  -3.874  1.00  0.00    -0.356 OA
HETATM   30  C   UNL     1      38.990 -16.053  -4.019  1.00  0.00     0.210 C 
ENDBRANCH  26  29
ENDBRANCH  22  23
ENDBRANCH  21  22
ENDBRANCH  18  21
ENDBRANCH  16  17
ENDBRANCH   1  16
TORSDOF 7
ENDMDL
MODEL 8
REMARK VINA RESULT:      -7.5      2.886      6.901
REMARK  7 active torsions:
REMARK  status: ('A' for Active; 'I' for Inactive)
REMARK    1  A    between atoms: C_12  and  S_13 
REMARK    2  A    between atoms: S_13  and  C_14 
REMARK    3  A    between atoms: C_14  and  C_15 
REMARK       I    between atoms: C_15  and  N_16 
REMARK    4  A    between atoms: N_16  and  C_17 
REMARK    5  A    between atoms: C_17  and  C_18 
REMARK    6  A    between atoms: C_18  and  C_19 
REMARK    7  A    between atoms: C_22  and  O_23 
ROOT
HETATM    1  S   UNL     1      41.243 -15.084   5.125  1.00  0.00    -0.080 SA
ENDROOT
BRANCH   1   2
HETATM    2  C   UNL     1      42.081 -16.425   5.830  1.00  0.00     0.197 A 
HETATM    3  N   UNL     1      42.783 -17.424   5.173  1.00  0.00    -0.271 N 
HETATM    4  C   UNL     1      43.079 -17.705   3.805  1.00  0.00     0.054 A 
HETATM    5  C   UNL     1      43.227 -18.238   6.209  1.00  0.00     0.159 A 
HETATM    6  C   UNL     1      43.849 -18.867   3.546  1.00  0.00    -0.003 A 
HETATM    7  C   UNL     1      42.654 -16.901   2.742  1.00  0.00     0.031 A 
HETATM    8  C   UNL     1      44.312 -19.725   4.667  1.00  0.00    -0.046 A 
HETATM    9  C   UNL     1      44.164 -19.182   2.213  1.00  0.00     0.014 A 
HETATM   10  C   UNL     1      45.130 -20.955   4.391  1.00  0.00     0.049 C 
HETATM   11  C   UNL     1      43.991 -19.389   5.927  1.00  0.00     0.060 A 
HETATM   12  C   UNL     1      43.733 -18.375   1.162  1.00  0.00     0.001 A 
HETATM   13  C   UNL     1      42.981 -17.238   1.426  1.00  0.00     0.002 A 
HETATM   14  N   UNL     1      42.828 -17.764   7.369  1.00  0.00    -0.129 NA
HETATM   15  N   UNL     1      42.112 -16.628   7.130  1.00  0.00    -0.122 NA
ENDBRANCH   1   2
BRANCH   1  16
HETATM   16  C   UNL     1      42.615 -13.916   4.884  1.00  0.00     0.185 C 
BRANCH  16  17
HETATM   17  C   UNL     1      42.080 -12.543   4.503  1.00  0.00     0.227 C 
HETATM   18  N   UNL     1      41.960 -12.226   3.178  1.00  0.00    -0.360 N 
HETATM   19  H   UNL     1      41.610 -11.286   3.026  1.00  0.00     0.162 HD
HETATM   20  O   UNL     1      41.713 -11.707   5.331  1.00  0.00    -0.273 OA
BRANCH  18  21
HETATM   21  C   UNL     1      42.311 -13.049   2.033  1.00  0.00     0.127 C 
BRANCH  21  22
HETATM   22  C   UNL     1      42.130 -12.298   0.714  1.00  0.00     0.058 C 
BRANCH  22  23
HETATM   23  C   UNL     1      41.766 -13.229  -0.413  1.00  0.00    -0.057 A 
HETATM   24  C   UNL     1      41.807 -12.787  -1.740  1.00  0.00     0.010 A 
HETATM   25  C   UNL     1      41.449 -13.646  -2.781  1.00  0.00     0.037 A 
HETATM   26  C   UNL     1      41.040 -14.955  -2.517  1.00  0.00     0.068 A 
HETATM   27  C   UNL     1      40.991 -15.398  -1.196  1.00  0.00     0.037 A 
HETATM   28  C   UNL     1      41.350 -14.540  -0.151  1.00  0.00     0.010 A 
BRANCH  26  29
HETATM   29  O   UNL     1      40.719 -15.688  -3.627  1.00  0.00    -0.356 OA
HETATM   30  C   UNL     1      39.337 -15.819  -3.932  1.00  0.00     0.210 C 
ENDBRANCH  26  29
ENDBRANCH  22  23
ENDBRANCH  21  22
ENDBRANCH  18  21
ENDBRANCH  16  17
ENDBRANCH   1  16
TORSDOF 7
ENDMDL
MODEL 9
REMARK VINA RESULT:      -7.3      3.520      7.311
REMARK  7 active torsions:
REMARK  status: ('A' for Active; 'I' for Inactive)
REMARK    1  A    between atoms: C_12  and  S_13 
REMARK    2  A    between atoms: S_13  and  C_14 
REMARK    3  A    between atoms: C_14  and  C_15 
REMARK       I    between atoms: C_15  and  N_16 
REMARK    4  A    between atoms: N_16  and  C_17 
REMARK    5  A    between atoms: C_17  and  C_18 
REMARK    6  A    between atoms: C_18  and  C_19 
REMARK    7  A    between atoms: C_22  and  O_23 
ROOT
HETATM    1  S   UNL     1      40.816 -14.523   5.304  1.00  0.00    -0.080 SA
ENDROOT
BRANCH   1   2
HETATM    2  C   UNL     1      41.040 -15.679   4.035  1.00  0.00     0.197 A 
HETATM    3  N   UNL     1      41.978 -16.698   3.975  1.00  0.00    -0.271 N 
HETATM    4  C   UNL     1      43.006 -17.165   4.848  1.00  0.00     0.054 A 
HETATM    5  C   UNL     1      41.724 -17.294   2.744  1.00  0.00     0.159 A 
HETATM    6  C   UNL     1      43.771 -18.271   4.397  1.00  0.00    -0.003 A 
HETATM    7  C   UNL     1      43.279 -16.592   6.095  1.00  0.00     0.031 A 
HETATM    8  C   UNL     1      43.486 -18.892   3.078  1.00  0.00    -0.046 A 
HETATM    9  C   UNL     1      44.794 -18.763   5.225  1.00  0.00     0.014 A 
HETATM   10  C   UNL     1      44.296 -20.065   2.602  1.00  0.00     0.049 C 
HETATM   11  C   UNL     1      42.498 -18.393   2.317  1.00  0.00     0.060 A 
HETATM   12  C   UNL     1      45.059 -18.183   6.465  1.00  0.00     0.001 A 
HETATM   13  C   UNL     1      44.302 -17.102   6.898  1.00  0.00     0.002 A 
HETATM   14  N   UNL     1      40.729 -16.687   2.135  1.00  0.00    -0.129 NA
HETATM   15  N   UNL     1      40.301 -15.676   2.945  1.00  0.00    -0.122 NA
ENDBRANCH   1   2
BRANCH   1  16
HETATM   16  C   UNL     1      41.300 -12.990   4.455  1.00  0.00     0.185 C 
BRANCH  16  17
HETATM   17  C   UNL     1      42.668 -13.155   3.806  1.00  0.00     0.227 C 
HETATM   18  N   UNL     1      42.798 -12.903   2.468  1.00  0.00    -0.360 N 
HETATM   19  H   UNL     1      43.741 -13.055   2.127  1.00  0.00     0.162 HD
HETATM   20  O   UNL     1      43.680 -13.471   4.434  1.00  0.00    -0.273 OA
BRANCH  18  21
HETATM   21  C   UNL     1      41.758 -12.505   1.535  1.00  0.00     0.127 C 
BRANCH  21  22
HETATM   22  C   UNL     1      41.570 -13.532   0.419  1.00  0.00     0.058 C 
BRANCH  22  23
HETATM   23  C   UNL     1      41.837 -12.937  -0.939  1.00  0.00    -0.057 A 
HETATM   24  C   UNL     1      41.473 -13.627  -2.101  1.00  0.00     0.010 A 
HETATM   25  C   UNL     1      41.740 -13.082  -3.358  1.00  0.00     0.037 A 
HETATM   26  C   UNL     1      42.377 -11.844  -3.478  1.00  0.00     0.068 A 
HETATM   27  C   UNL     1      42.748 -11.156  -2.324  1.00  0.00     0.037 A 
HETATM   28  C   UNL     1      42.481 -11.700  -1.063  1.00  0.00     0.010 A 
BRANCH  26  29
HETATM   29  O   UNL     1      42.577 -11.428  -4.766  1.00  0.00    -0.356 OA
HETATM   30  C   UNL     1      41.875 -10.262  -5.180  1.00  0.00     0.210 C 
ENDBRANCH  26  29
ENDBRANCH  22  23
ENDBRANCH  21  22
ENDBRANCH  18  21
ENDBRANCH  16  17
ENDBRANCH   1  16
TORSDOF 7
ENDMDL
MODEL 10
REMARK VINA RESULT:      -7.3      4.651      8.020
REMARK  7 active torsions:
REMARK  status: ('A' for Active; 'I' for Inactive)
REMARK    1  A    between atoms: C_12  and  S_13 
REMARK    2  A    between atoms: S_13  and  C_14 
REMARK    3  A    between atoms: C_14  and  C_15 
REMARK       I    between atoms: C_15  and  N_16 
REMARK    4  A    between atoms: N_16  and  C_17 
REMARK    5  A    between atoms: C_17  and  C_18 
REMARK    6  A    between atoms: C_18  and  C_19 
REMARK    7  A    between atoms: C_22  and  O_23 
ROOT
HETATM    1  S   UNL     1      43.315 -14.768   5.082  1.00  0.00    -0.080 SA
ENDROOT
BRANCH   1   2
HETATM    2  C   UNL     1      43.630 -16.195   6.009  1.00  0.00     0.197 A 
HETATM    3  N   UNL     1      43.846 -17.481   5.536  1.00  0.00    -0.271 N 
HETATM    4  C   UNL     1      43.910 -18.072   4.239  1.00  0.00     0.054 A 
HETATM    5  C   UNL     1      44.023 -18.224   6.698  1.00  0.00     0.159 A 
HETATM    6  C   UNL     1      44.158 -19.467   4.186  1.00  0.00    -0.003 A 
HETATM    7  C   UNL     1      43.744 -17.350   3.051  1.00  0.00     0.031 A 
HETATM    8  C   UNL     1      44.341 -20.244   5.439  1.00  0.00    -0.046 A 
HETATM    9  C   UNL     1      44.228 -20.092   2.929  1.00  0.00     0.014 A 
HETATM   10  C   UNL     1      44.606 -21.722   5.382  1.00  0.00     0.049 C 
HETATM   11  C   UNL     1      44.269 -19.610   6.621  1.00  0.00     0.060 A 
HETATM   12  C   UNL     1      44.059 -19.362   1.753  1.00  0.00     0.001 A 
HETATM   13  C   UNL     1      43.819 -17.996   1.815  1.00  0.00     0.002 A 
HETATM   14  N   UNL     1      43.924 -17.450   7.758  1.00  0.00    -0.129 NA
HETATM   15  N   UNL     1      43.679 -16.180   7.324  1.00  0.00    -0.122 NA
ENDBRANCH   1   2
BRANCH   1  16
HETATM   16  C   UNL     1      41.581 -15.047   4.609  1.00  0.00     0.185 C 
BRANCH  16  17
HETATM   17  C   UNL     1      40.704 -15.143   5.850  1.00  0.00     0.227 C 
HETATM   18  N   UNL     1      40.238 -13.991   6.420  1.00  0.00    -0.360 N 
HETATM   19  H   UNL     1      39.677 -14.158   7.249  1.00  0.00     0.162 HD
HETATM   20  O   UNL     1      40.360 -16.215   6.353  1.00  0.00    -0.273 OA
BRANCH  18  21
HETATM   21  C   UNL     1      40.496 -12.625   5.999  1.00  0.00     0.127 C 
BRANCH  21  22
HETATM   22  C   UNL     1      39.594 -11.625   6.722  1.00  0.00     0.058 C 
BRANCH  22  23
HETATM   23  C   UNL     1      40.258 -11.061   7.951  1.00  0.00    -0.057 A 
HETATM   24  C   UNL     1      41.634 -10.806   7.961  1.00  0.00     0.010 A 
HETATM   25  C   UNL     1      42.249 -10.303   9.109  1.00  0.00     0.037 A 
HETATM   26  C   UNL     1      41.506 -10.050  10.264  1.00  0.00     0.068 A 
HETATM   27  C   UNL     1      40.136 -10.308  10.261  1.00  0.00     0.037 A 
HETATM   28  C   UNL     1      39.517 -10.812   9.112  1.00  0.00     0.010 A 
BRANCH  26  29
HETATM   29  O   UNL     1      42.232  -9.558  11.314  1.00  0.00    -0.356 OA
HETATM   30  C   UNL     1      43.604  -9.929  11.377  1.00  0.00     0.210 C 
ENDBRANCH  26  29
ENDBRANCH  22  23
ENDBRANCH  21  22
ENDBRANCH  18  21
ENDBRANCH  16  17
ENDBRANCH   1  16
TORSDOF 7
ENDMDL
