MODEL 1
REMARK VINA RESULT:      -9.0      0.000      0.000
REMARK  2 active torsions:
REMARK  status: ('A' for Active; 'I' for Inactive)
REMARK    1  A    between atoms: C_4  and  C_18 
REMARK    2  A    between atoms: C_9  and  C_12 
ROOT
HETATM    1  O   UNL     1      43.602 -13.279   2.861  1.00  0.00    -0.267 OA
HETATM    2  C   UNL     1      43.130 -14.276   3.390  1.00  0.00     0.259 A 
HETATM    3  N   UNL     1      43.563 -15.541   3.093  1.00  0.00    -0.309 N 
HETATM    4  C   UNL     1      43.033 -16.676   3.654  1.00  0.00     0.137 A 
HETATM    5  N   UNL     1      42.093 -16.651   4.545  1.00  0.00    -0.232 NA
HETATM    6  C   UNL     1      41.575 -15.400   4.919  1.00  0.00     0.074 A 
HETATM    7  C   UNL     1      40.541 -15.350   5.851  1.00  0.00     0.033 A 
HETATM    8  C   UNL     1      39.996 -14.122   6.248  1.00  0.00     0.014 A 
HETATM    9  C   UNL     1      40.481 -12.917   5.721  1.00  0.00    -0.022 A 
HETATM   10  C   UNL     1      41.519 -12.962   4.781  1.00  0.00     0.031 A 
HETATM   11  C   UNL     1      42.051 -14.198   4.391  1.00  0.00     0.061 A 
HETATM   12  H   UNL     1      44.259 -15.625   2.363  1.00  0.00     0.170 HD
ENDROOT
BRANCH   4  13
HETATM   13  C   UNL     1      43.655 -17.997   3.215  1.00  0.00     0.198 C 
HETATM   14  C   UNL     1      42.771 -18.659   2.164  1.00  0.00     0.045 C 
HETATM   15  C   UNL     1      43.454 -19.933   1.689  1.00  0.00     0.044 C 
HETATM   16  C   UNL     1      43.996 -20.710   2.855  1.00  0.00    -0.025 A 
HETATM   17  C   UNL     1      44.402 -22.040   2.682  1.00  0.00     0.010 A 
HETATM   18  C   UNL     1      44.136 -20.115   4.115  1.00  0.00     0.076 A 
HETATM   19  C   UNL     1      44.913 -22.768   3.758  1.00  0.00     0.001 A 
HETATM   20  C   UNL     1      45.024 -22.173   5.014  1.00  0.00     0.003 A 
HETATM   21  C   UNL     1      44.631 -20.848   5.192  1.00  0.00     0.037 A 
HETATM   22  O   UNL     1      43.771 -18.822   4.382  1.00  0.00    -0.338 OA
ENDBRANCH   4  13
BRANCH   9  23
HETATM   23  C   UNL     1      39.904 -11.652   6.141  1.00  0.00     0.010 A 
HETATM   24  C   UNL     1      39.495 -11.200   7.418  1.00  0.00     0.152 A 
HETATM   25  N   UNL     1      39.024  -9.950   7.399  1.00  0.00    -0.187 NA
HETATM   26  N   UNL     1      39.128  -9.596   6.108  1.00  0.00    -0.289 N 
HETATM   27  H   UNL     1      38.827  -8.666   5.839  1.00  0.00     0.188 HD
HETATM   28  C   UNL     1      39.651 -10.577   5.316  1.00  0.00     0.123 A 
ENDBRANCH   9  23
TORSDOF 2
ENDMDL
MODEL 2
REMARK VINA RESULT:      -8.9      4.814      6.092
REMARK  2 active torsions:
REMARK  status: ('A' for Active; 'I' for Inactive)
REMARK    1  A    between atoms: C_4  and  C_18 
REMARK    2  A    between atoms: C_9  and  C_12 
ROOT
HETATM    1  O   UNL     1      42.299 -12.863   1.504  1.00  0.00    -0.267 OA
HETATM    2  C   UNL     1      42.102 -14.003   1.105  1.00  0.00     0.259 A 
HETATM    3  N   UNL     1      42.390 -15.107   1.863  1.00  0.00    -0.309 N 
HETATM    4  C   UNL     1      42.202 -16.396   1.430  1.00  0.00     0.137 A 
HETATM    5  N   UNL     1      41.700 -16.685   0.271  1.00  0.00    -0.232 NA
HETATM    6  C   UNL     1      41.372 -15.622  -0.587  1.00  0.00     0.074 A 
HETATM    7  C   UNL     1      40.862 -15.910  -1.851  1.00  0.00     0.033 A 
HETATM    8  C   UNL     1      40.525 -14.878  -2.737  1.00  0.00     0.014 A 
HETATM    9  C   UNL     1      40.689 -13.535  -2.370  1.00  0.00    -0.022 A 
HETATM   10  C   UNL     1      41.204 -13.241  -1.101  1.00  0.00     0.031 A 
HETATM   11  C   UNL     1      41.541 -14.283  -0.228  1.00  0.00     0.061 A 
HETATM   12  H   UNL     1      42.835 -14.942   2.757  1.00  0.00     0.170 HD
ENDROOT
BRANCH   4  13
HETATM   13  C   UNL     1      42.563 -17.497   2.420  1.00  0.00     0.198 C 
HETATM   14  C   UNL     1      43.626 -16.991   3.389  1.00  0.00     0.045 C 
HETATM   15  C   UNL     1      43.909 -18.083   4.411  1.00  0.00     0.044 C 
HETATM   16  C   UNL     1      44.040 -19.419   3.736  1.00  0.00    -0.025 A 
HETATM   17  C   UNL     1      44.582 -20.506   4.435  1.00  0.00     0.010 A 
HETATM   18  C   UNL     1      43.597 -19.609   2.422  1.00  0.00     0.076 A 
HETATM   19  C   UNL     1      44.702 -21.753   3.819  1.00  0.00     0.001 A 
HETATM   20  C   UNL     1      44.280 -21.924   2.501  1.00  0.00     0.003 A 
HETATM   21  C   UNL     1      43.732 -20.850   1.802  1.00  0.00     0.037 A 
HETATM   22  O   UNL     1      43.051 -18.611   1.659  1.00  0.00    -0.338 OA
ENDBRANCH   4  13
BRANCH   9  23
HETATM   23  C   UNL     1      40.338 -12.477  -3.301  1.00  0.00     0.010 A 
HETATM   24  C   UNL     1      41.149 -11.556  -4.005  1.00  0.00     0.152 A 
HETATM   25  N   UNL     1      40.443 -10.739  -4.792  1.00  0.00    -0.187 NA
HETATM   26  N   UNL     1      39.175 -11.133  -4.594  1.00  0.00    -0.289 N 
HETATM   27  H   UNL     1      38.438 -10.651  -5.098  1.00  0.00     0.188 HD
HETATM   28  C   UNL     1      39.058 -12.170  -3.715  1.00  0.00     0.123 A 
ENDBRANCH   9  23
TORSDOF 2
ENDMDL
MODEL 3
REMARK VINA RESULT:      -8.7      4.513      8.676
REMARK  2 active torsions:
REMARK  status: ('A' for Active; 'I' for Inactive)
REMARK    1  A    between atoms: C_4  and  C_18 
REMARK    2  A    between atoms: C_9  and  C_12 
ROOT
HETATM    1  O   UNL     1      40.598 -15.744   3.933  1.00  0.00    -0.267 OA
HETATM    2  C   UNL     1      41.171 -15.942   2.870  1.00  0.00     0.259 A 
HETATM    3  N   UNL     1      40.915 -15.199   1.748  1.00  0.00    -0.309 N 
HETATM    4  C   UNL     1      41.526 -15.416   0.538  1.00  0.00     0.137 A 
HETATM    5  N   UNL     1      42.429 -16.327   0.356  1.00  0.00    -0.232 NA
HETATM    6  C   UNL     1      42.764 -17.147   1.447  1.00  0.00     0.074 A 
HETATM    7  C   UNL     1      43.709 -18.155   1.266  1.00  0.00     0.033 A 
HETATM    8  C   UNL     1      44.068 -18.996   2.327  1.00  0.00     0.014 A 
HETATM    9  C   UNL     1      43.488 -18.840   3.595  1.00  0.00    -0.022 A 
HETATM   10  C   UNL     1      42.536 -17.830   3.780  1.00  0.00     0.031 A 
HETATM   11  C   UNL     1      42.184 -17.000   2.708  1.00  0.00     0.061 A 
HETATM   12  H   UNL     1      40.179 -14.508   1.817  1.00  0.00     0.170 HD
ENDROOT
BRANCH   4  13
HETATM   13  C   UNL     1      41.128 -14.477  -0.594  1.00  0.00     0.198 C 
HETATM   14  C   UNL     1      40.972 -15.267  -1.889  1.00  0.00     0.045 C 
HETATM   15  C   UNL     1      40.499 -14.319  -2.982  1.00  0.00     0.044 C 
HETATM   16  C   UNL     1      41.276 -13.034  -2.940  1.00  0.00    -0.025 A 
HETATM   17  C   UNL     1      41.213 -12.143  -4.020  1.00  0.00     0.010 A 
HETATM   18  C   UNL     1      42.043 -12.690  -1.820  1.00  0.00     0.076 A 
HETATM   19  C   UNL     1      41.926 -10.943  -3.989  1.00  0.00     0.001 A 
HETATM   20  C   UNL     1      42.706 -10.623  -2.878  1.00  0.00     0.003 A 
HETATM   21  C   UNL     1      42.767 -11.500  -1.796  1.00  0.00     0.037 A 
HETATM   22  O   UNL     1      42.163 -13.493  -0.716  1.00  0.00    -0.338 OA
ENDBRANCH   4  13
BRANCH   9  23
HETATM   23  C   UNL     1      43.869 -19.722   4.684  1.00  0.00     0.010 A 
HETATM   24  C   UNL     1      43.592 -19.654   6.070  1.00  0.00     0.152 A 
HETATM   25  N   UNL     1      44.109 -20.679   6.753  1.00  0.00    -0.187 NA
HETATM   26  N   UNL     1      44.721 -21.408   5.806  1.00  0.00    -0.289 N 
HETATM   27  H   UNL     1      45.196 -22.260   6.087  1.00  0.00     0.188 HD
HETATM   28  C   UNL     1      44.604 -20.881   4.552  1.00  0.00     0.123 A 
ENDBRANCH   9  23
TORSDOF 2
ENDMDL
MODEL 4
REMARK VINA RESULT:      -8.7      1.159      2.040
REMARK  2 active torsions:
REMARK  status: ('A' for Active; 'I' for Inactive)
REMARK    1  A    between atoms: C_4  and  C_18 
REMARK    2  A    between atoms: C_9  and  C_12 
ROOT
HETATM    1  O   UNL     1      43.846 -13.431   3.240  1.00  0.00    -0.267 OA
HETATM    2  C   UNL     1      43.091 -14.178   3.849  1.00  0.00     0.259 A 
HETATM    3  N   UNL     1      43.317 -15.525   3.954  1.00  0.00    -0.309 N 
HETATM    4  C   UNL     1      42.474 -16.387   4.610  1.00  0.00     0.137 A 
HETATM    5  N   UNL     1      41.399 -15.997   5.220  1.00  0.00    -0.232 NA
HETATM    6  C   UNL     1      41.075 -14.632   5.170  1.00  0.00     0.074 A 
HETATM    7  C   UNL     1      39.907 -14.195   5.792  1.00  0.00     0.033 A 
HETATM    8  C   UNL     1      39.546 -12.841   5.762  1.00  0.00     0.014 A 
HETATM    9  C   UNL     1      40.354 -11.897   5.112  1.00  0.00    -0.022 A 
HETATM   10  C   UNL     1      41.527 -12.332   4.483  1.00  0.00     0.031 A 
HETATM   11  C   UNL     1      41.872 -13.689   4.518  1.00  0.00     0.061 A 
HETATM   12  H   UNL     1      44.114 -15.894   3.451  1.00  0.00     0.170 HD
ENDROOT
BRANCH   4  13
HETATM   13  C   UNL     1      42.899 -17.851   4.639  1.00  0.00     0.198 C 
HETATM   14  C   UNL     1      44.265 -17.978   5.304  1.00  0.00     0.045 C 
HETATM   15  C   UNL     1      44.627 -19.454   5.388  1.00  0.00     0.044 C 
HETATM   16  C   UNL     1      44.322 -20.149   4.092  1.00  0.00    -0.025 A 
HETATM   17  C   UNL     1      44.838 -21.429   3.846  1.00  0.00     0.010 A 
HETATM   18  C   UNL     1      43.498 -19.553   3.130  1.00  0.00     0.076 A 
HETATM   19  C   UNL     1      44.555 -22.086   2.648  1.00  0.00     0.001 A 
HETATM   20  C   UNL     1      43.753 -21.472   1.687  1.00  0.00     0.003 A 
HETATM   21  C   UNL     1      43.229 -20.203   1.928  1.00  0.00     0.037 A 
HETATM   22  O   UNL     1      42.945 -18.308   3.281  1.00  0.00    -0.338 OA
ENDBRANCH   4  13
BRANCH   9  23
HETATM   23  C   UNL     1      39.964 -10.498   5.088  1.00  0.00     0.010 A 
HETATM   24  C   UNL     1      39.685  -9.633   4.003  1.00  0.00     0.152 A 
HETATM   25  N   UNL     1      39.337  -8.405   4.396  1.00  0.00    -0.187 NA
HETATM   26  N   UNL     1      39.394  -8.476   5.735  1.00  0.00    -0.289 N 
HETATM   27  H   UNL     1      39.164  -7.646   6.272  1.00  0.00     0.188 HD
HETATM   28  C   UNL     1      39.761  -9.707   6.199  1.00  0.00     0.123 A 
ENDBRANCH   9  23
TORSDOF 2
ENDMDL
MODEL 5
REMARK VINA RESULT:      -8.6      4.576      5.968
REMARK  2 active torsions:
REMARK  status: ('A' for Active; 'I' for Inactive)
REMARK    1  A    between atoms: C_4  and  C_18 
REMARK    2  A    between atoms: C_9  and  C_12 
ROOT
HETATM    1  O   UNL     1      41.043 -10.623   7.566  1.00  0.00    -0.267 OA
HETATM    2  C   UNL     1      42.051 -11.307   7.696  1.00  0.00     0.259 A 
HETATM    3  N   UNL     1      42.437 -12.231   6.762  1.00  0.00    -0.309 N 
HETATM    4  C   UNL     1      43.548 -13.027   6.895  1.00  0.00     0.137 A 
HETATM    5  N   UNL     1      44.354 -12.950   7.907  1.00  0.00    -0.232 NA
HETATM    6  C   UNL     1      44.045 -12.032   8.924  1.00  0.00     0.074 A 
HETATM    7  C   UNL     1      44.880 -11.956  10.037  1.00  0.00     0.033 A 
HETATM    8  C   UNL     1      44.605 -11.055  11.075  1.00  0.00     0.014 A 
HETATM    9  C   UNL     1      43.489 -10.209  11.015  1.00  0.00    -0.022 A 
HETATM   10  C   UNL     1      42.646 -10.284   9.899  1.00  0.00     0.031 A 
HETATM   11  C   UNL     1      42.930 -11.193   8.871  1.00  0.00     0.061 A 
HETATM   12  H   UNL     1      41.815 -12.372   5.975  1.00  0.00     0.170 HD
ENDROOT
BRANCH   4  13
HETATM   13  C   UNL     1      43.830 -13.986   5.745  1.00  0.00     0.198 C 
HETATM   14  C   UNL     1      43.161 -13.476   4.473  1.00  0.00     0.045 C 
HETATM   15  C   UNL     1      43.524 -14.409   3.327  1.00  0.00     0.044 C 
HETATM   16  C   UNL     1      43.400 -15.845   3.753  1.00  0.00    -0.025 A 
HETATM   17  C   UNL     1      43.401 -16.864   2.791  1.00  0.00     0.010 A 
HETATM   18  C   UNL     1      43.314 -16.190   5.108  1.00  0.00     0.076 A 
HETATM   19  C   UNL     1      43.292 -18.200   3.177  1.00  0.00     0.001 A 
HETATM   20  C   UNL     1      43.183 -18.530   4.528  1.00  0.00     0.003 A 
HETATM   21  C   UNL     1      43.189 -17.524   5.491  1.00  0.00     0.037 A 
HETATM   22  O   UNL     1      43.308 -15.267   6.121  1.00  0.00    -0.338 OA
ENDBRANCH   4  13
BRANCH   9  23
HETATM   23  C   UNL     1      43.217  -9.283  12.100  1.00  0.00     0.010 A 
HETATM   24  C   UNL     1      42.631  -7.995  12.093  1.00  0.00     0.152 A 
HETATM   25  N   UNL     1      42.534  -7.463  13.314  1.00  0.00    -0.187 NA
HETATM   26  N   UNL     1      43.059  -8.408  14.110  1.00  0.00    -0.289 N 
HETATM   27  H   UNL     1      43.095  -8.231  15.109  1.00  0.00     0.188 HD
HETATM   28  C   UNL     1      43.479  -9.517  13.434  1.00  0.00     0.123 A 
ENDBRANCH   9  23
TORSDOF 2
ENDMDL
MODEL 6
REMARK VINA RESULT:      -8.5      3.407      9.167
REMARK  2 active torsions:
REMARK  status: ('A' for Active; 'I' for Inactive)
REMARK    1  A    between atoms: C_4  and  C_18 
REMARK    2  A    between atoms: C_9  and  C_12 
ROOT
HETATM    1  O   UNL     1      42.381 -16.432   5.740  1.00  0.00    -0.267 OA
HETATM    2  C   UNL     1      42.559 -16.109   4.572  1.00  0.00     0.259 A 
HETATM    3  N   UNL     1      42.266 -14.856   4.104  1.00  0.00    -0.309 N 
HETATM    4  C   UNL     1      42.434 -14.476   2.795  1.00  0.00     0.137 A 
HETATM    5  N   UNL     1      42.918 -15.264   1.888  1.00  0.00    -0.232 NA
HETATM    6  C   UNL     1      43.249 -16.576   2.266  1.00  0.00     0.074 A 
HETATM    7  C   UNL     1      43.741 -17.450   1.299  1.00  0.00     0.033 A 
HETATM    8  C   UNL     1      44.081 -18.767   1.635  1.00  0.00     0.014 A 
HETATM    9  C   UNL     1      43.938 -19.233   2.950  1.00  0.00    -0.022 A 
HETATM   10  C   UNL     1      43.441 -18.358   3.924  1.00  0.00     0.031 A 
HETATM   11  C   UNL     1      43.102 -17.045   3.573  1.00  0.00     0.061 A 
HETATM   12  H   UNL     1      41.834 -14.214   4.757  1.00  0.00     0.170 HD
ENDROOT
BRANCH   4  13
HETATM   13  C   UNL     1      42.071 -13.034   2.462  1.00  0.00     0.198 C 
HETATM   14  C   UNL     1      40.572 -12.822   2.651  1.00  0.00     0.045 C 
HETATM   15  C   UNL     1      40.252 -11.358   2.388  1.00  0.00     0.044 C 
HETATM   16  C   UNL     1      40.959 -10.876   1.153  1.00  0.00    -0.025 A 
HETATM   17  C   UNL     1      40.587  -9.660   0.562  1.00  0.00     0.010 A 
HETATM   18  C   UNL     1      42.014 -11.607   0.593  1.00  0.00     0.076 A 
HETATM   19  C   UNL     1      41.241  -9.201  -0.582  1.00  0.00     0.001 A 
HETATM   20  C   UNL     1      42.274  -9.950  -1.144  1.00  0.00     0.003 A 
HETATM   21  C   UNL     1      42.657 -11.155  -0.558  1.00  0.00     0.037 A 
HETATM   22  O   UNL     1      42.453 -12.802   1.099  1.00  0.00    -0.338 OA
ENDBRANCH   4  13
BRANCH   9  23
HETATM   23  C   UNL     1      44.292 -20.602   3.282  1.00  0.00     0.010 A 
HETATM   24  C   UNL     1      44.313 -21.771   2.485  1.00  0.00     0.152 A 
HETATM   25  N   UNL     1      44.720 -22.850   3.159  1.00  0.00    -0.187 NA
HETATM   26  N   UNL     1      44.961 -22.377   4.392  1.00  0.00    -0.289 N 
HETATM   27  H   UNL     1      45.291 -23.024   5.100  1.00  0.00     0.188 HD
HETATM   28  C   UNL     1      44.724 -21.038   4.516  1.00  0.00     0.123 A 
ENDBRANCH   9  23
TORSDOF 2
ENDMDL
MODEL 7
REMARK VINA RESULT:      -8.5      2.704      3.413
REMARK  2 active torsions:
REMARK  status: ('A' for Active; 'I' for Inactive)
REMARK    1  A    between atoms: C_4  and  C_18 
REMARK    2  A    between atoms: C_9  and  C_12 
ROOT
HETATM    1  O   UNL     1      41.276 -13.320   5.763  1.00  0.00    -0.267 OA
HETATM    2  C   UNL     1      41.088 -14.170   4.903  1.00  0.00     0.259 A 
HETATM    3  N   UNL     1      41.690 -15.400   4.941  1.00  0.00    -0.309 N 
HETATM    4  C   UNL     1      41.515 -16.361   3.977  1.00  0.00     0.137 A 
HETATM    5  N   UNL     1      40.734 -16.203   2.956  1.00  0.00    -0.232 NA
HETATM    6  C   UNL     1      40.070 -14.973   2.821  1.00  0.00     0.074 A 
HETATM    7  C   UNL     1      39.251 -14.768   1.713  1.00  0.00     0.033 A 
HETATM    8  C   UNL     1      38.573 -13.554   1.541  1.00  0.00     0.014 A 
HETATM    9  C   UNL     1      38.699 -12.521   2.481  1.00  0.00    -0.022 A 
HETATM   10  C   UNL     1      39.524 -12.722   3.595  1.00  0.00     0.031 A 
HETATM   11  C   UNL     1      40.199 -13.939   3.751  1.00  0.00     0.061 A 
HETATM   12  H   UNL     1      42.353 -15.559   5.689  1.00  0.00     0.170 HD
ENDROOT
BRANCH   4  13
HETATM   13  C   UNL     1      42.253 -17.677   4.198  1.00  0.00     0.198 C 
HETATM   14  C   UNL     1      43.618 -17.404   4.821  1.00  0.00     0.045 C 
HETATM   15  C   UNL     1      44.298 -18.737   5.101  1.00  0.00     0.044 C 
HETATM   16  C   UNL     1      44.145 -19.666   3.930  1.00  0.00    -0.025 A 
HETATM   17  C   UNL     1      44.929 -20.825   3.849  1.00  0.00     0.010 A 
HETATM   18  C   UNL     1      43.203 -19.411   2.926  1.00  0.00     0.076 A 
HETATM   19  C   UNL     1      44.790 -21.697   2.769  1.00  0.00     0.001 A 
HETATM   20  C   UNL     1      43.866 -21.420   1.762  1.00  0.00     0.003 A 
HETATM   21  C   UNL     1      43.077 -20.274   1.839  1.00  0.00     0.037 A 
HETATM   22  O   UNL     1      42.390 -18.308   2.918  1.00  0.00    -0.338 OA
ENDBRANCH   4  13
BRANCH   9  23
HETATM   23  C   UNL     1      37.992 -11.268   2.286  1.00  0.00     0.010 A 
HETATM   24  C   UNL     1      37.189 -10.815   1.212  1.00  0.00     0.152 A 
HETATM   25  N   UNL     1      36.690  -9.593   1.418  1.00  0.00    -0.187 NA
HETATM   26  N   UNL     1      37.172  -9.257   2.625  1.00  0.00    -0.289 N 
HETATM   27  H   UNL     1      36.923  -8.351   3.007  1.00  0.00     0.188 HD
HETATM   28  C   UNL     1      37.953 -10.225   3.188  1.00  0.00     0.123 A 
ENDBRANCH   9  23
TORSDOF 2
ENDMDL
MODEL 8
REMARK VINA RESULT:      -8.4      4.893      5.452
REMARK  2 active torsions:
REMARK  status: ('A' for Active; 'I' for Inactive)
REMARK    1  A    between atoms: C_4  and  C_18 
REMARK    2  A    between atoms: C_9  and  C_12 
ROOT
HETATM    1  O   UNL     1      41.360 -15.543  -1.777  1.00  0.00    -0.267 OA
HETATM    2  C   UNL     1      40.962 -15.545  -0.619  1.00  0.00     0.259 A 
HETATM    3  N   UNL     1      41.500 -16.360   0.342  1.00  0.00    -0.309 N 
HETATM    4  C   UNL     1      41.056 -16.399   1.640  1.00  0.00     0.137 A 
HETATM    5  N   UNL     1      40.104 -15.640   2.083  1.00  0.00    -0.232 NA
HETATM    6  C   UNL     1      39.482 -14.768   1.175  1.00  0.00     0.074 A 
HETATM    7  C   UNL     1      38.434 -13.966   1.623  1.00  0.00     0.033 A 
HETATM    8  C   UNL     1      37.785 -13.085   0.747  1.00  0.00     0.014 A 
HETATM    9  C   UNL     1      38.179 -12.987  -0.595  1.00  0.00    -0.022 A 
HETATM   10  C   UNL     1      39.230 -13.793  -1.050  1.00  0.00     0.031 A 
HETATM   11  C   UNL     1      39.866 -14.672  -0.164  1.00  0.00     0.061 A 
HETATM   12  H   UNL     1      42.212 -17.013   0.039  1.00  0.00     0.170 HD
ENDROOT
BRANCH   4  13
HETATM   13  C   UNL     1      41.790 -17.355   2.573  1.00  0.00     0.198 C 
HETATM   14  C   UNL     1      42.906 -16.612   3.299  1.00  0.00     0.045 C 
HETATM   15  C   UNL     1      43.569 -17.570   4.278  1.00  0.00     0.044 C 
HETATM   16  C   UNL     1      43.810 -18.905   3.632  1.00  0.00    -0.025 A 
HETATM   17  C   UNL     1      44.662 -19.835   4.244  1.00  0.00     0.010 A 
HETATM   18  C   UNL     1      43.171 -19.253   2.436  1.00  0.00     0.076 A 
HETATM   19  C   UNL     1      44.888 -21.080   3.655  1.00  0.00     0.001 A 
HETATM   20  C   UNL     1      44.265 -21.406   2.451  1.00  0.00     0.003 A 
HETATM   21  C   UNL     1      43.410 -20.490   1.841  1.00  0.00     0.037 A 
HETATM   22  O   UNL     1      42.320 -18.415   1.766  1.00  0.00    -0.338 OA
ENDBRANCH   4  13
BRANCH   9  23
HETATM   23  C   UNL     1      37.495 -12.071  -1.490  1.00  0.00     0.010 A 
HETATM   24  C   UNL     1      37.392 -12.059  -2.902  1.00  0.00     0.152 A 
HETATM   25  N   UNL     1      36.649 -11.048  -3.359  1.00  0.00    -0.187 NA
HETATM   26  N   UNL     1      36.272 -10.406  -2.242  1.00  0.00    -0.289 N 
HETATM   27  H   UNL     1      35.684  -9.584  -2.333  1.00  0.00     0.188 HD
HETATM   28  C   UNL     1      36.748 -10.979  -1.098  1.00  0.00     0.123 A 
ENDBRANCH   9  23
TORSDOF 2
ENDMDL
MODEL 9
REMARK VINA RESULT:      -8.3      4.713      8.312
REMARK  2 active torsions:
REMARK  status: ('A' for Active; 'I' for Inactive)
REMARK    1  A    between atoms: C_4  and  C_18 
REMARK    2  A    between atoms: C_9  and  C_12 
ROOT
HETATM    1  O   UNL     1      40.793 -18.152   1.026  1.00  0.00    -0.267 OA
HETATM    2  C   UNL     1      41.206 -17.005   1.139  1.00  0.00     0.259 A 
HETATM    3  N   UNL     1      41.051 -16.067   0.154  1.00  0.00    -0.309 N 
HETATM    4  C   UNL     1      41.526 -14.783   0.247  1.00  0.00     0.137 A 
HETATM    5  N   UNL     1      42.139 -14.330   1.295  1.00  0.00    -0.232 NA
HETATM    6  C   UNL     1      42.353 -15.216   2.364  1.00  0.00     0.074 A 
HETATM    7  C   UNL     1      43.039 -14.761   3.488  1.00  0.00     0.033 A 
HETATM    8  C   UNL     1      43.274 -15.614   4.574  1.00  0.00     0.014 A 
HETATM    9  C   UNL     1      42.822 -16.941   4.557  1.00  0.00    -0.022 A 
HETATM   10  C   UNL     1      42.134 -17.403   3.427  1.00  0.00     0.031 A 
HETATM   11  C   UNL     1      41.910 -16.540   2.347  1.00  0.00     0.061 A 
HETATM   12  H   UNL     1      40.626 -16.379  -0.710  1.00  0.00     0.170 HD
ENDROOT
BRANCH   4  13
HETATM   13  C   UNL     1      41.242 -13.873  -0.943  1.00  0.00     0.198 C 
HETATM   14  C   UNL     1      41.352 -14.669  -2.239  1.00  0.00     0.045 C 
HETATM   15  C   UNL     1      40.988 -13.757  -3.401  1.00  0.00     0.044 C 
HETATM   16  C   UNL     1      41.650 -12.417  -3.249  1.00  0.00    -0.025 A 
HETATM   17  C   UNL     1      41.692 -11.530  -4.334  1.00  0.00     0.010 A 
HETATM   18  C   UNL     1      42.202 -12.019  -2.026  1.00  0.00     0.076 A 
HETATM   19  C   UNL     1      42.299 -10.280  -4.202  1.00  0.00     0.001 A 
HETATM   20  C   UNL     1      42.868  -9.905  -2.985  1.00  0.00     0.003 A 
HETATM   21  C   UNL     1      42.823 -10.778  -1.899  1.00  0.00     0.037 A 
HETATM   22  O   UNL     1      42.207 -12.813  -0.909  1.00  0.00    -0.338 OA
ENDBRANCH   4  13
BRANCH   9  23
HETATM   23  C   UNL     1      43.077 -17.813   5.689  1.00  0.00     0.010 A 
HETATM   24  C   UNL     1      43.573 -19.138   5.745  1.00  0.00     0.152 A 
HETATM   25  N   UNL     1      43.685 -19.597   6.994  1.00  0.00    -0.187 NA
HETATM   26  N   UNL     1      43.261 -18.568   7.745  1.00  0.00    -0.289 N 
HETATM   27  H   UNL     1      43.257 -18.678   8.754  1.00  0.00     0.188 HD
HETATM   28  C   UNL     1      42.890 -17.477   7.014  1.00  0.00     0.123 A 
ENDBRANCH   9  23
TORSDOF 2
ENDMDL
MODEL 10
REMARK VINA RESULT:      -8.3      2.507      9.189
REMARK  2 active torsions:
REMARK  status: ('A' for Active; 'I' for Inactive)
REMARK    1  A    between atoms: C_4  and  C_18 
REMARK    2  A    between atoms: C_9  and  C_12 
ROOT
HETATM    1  O   UNL     1      42.954 -17.219   7.040  1.00  0.00    -0.267 OA
HETATM    2  C   UNL     1      42.862 -16.716   5.928  1.00  0.00     0.259 A 
HETATM    3  N   UNL     1      42.451 -15.423   5.738  1.00  0.00    -0.309 N 
HETATM    4  C   UNL     1      42.316 -14.843   4.501  1.00  0.00     0.137 A 
HETATM    5  N   UNL     1      42.599 -15.460   3.397  1.00  0.00    -0.232 NA
HETATM    6  C   UNL     1      43.028 -16.795   3.483  1.00  0.00     0.074 A 
HETATM    7  C   UNL     1      43.307 -17.488   2.307  1.00  0.00     0.033 A 
HETATM    8  C   UNL     1      43.735 -18.822   2.349  1.00  0.00     0.014 A 
HETATM    9  C   UNL     1      43.896 -19.486   3.573  1.00  0.00    -0.022 A 
HETATM   10  C   UNL     1      43.614 -18.794   4.757  1.00  0.00     0.031 A 
HETATM   11  C   UNL     1      43.183 -17.462   4.699  1.00  0.00     0.061 A 
HETATM   12  H   UNL     1      42.165 -14.910   6.562  1.00  0.00     0.170 HD
ENDROOT
BRANCH   4  13
HETATM   13  C   UNL     1      41.864 -13.388   4.486  1.00  0.00     0.198 C 
HETATM   14  C   UNL     1      41.805 -12.852   5.913  1.00  0.00     0.045 C 
HETATM   15  C   UNL     1      41.428 -11.378   5.862  1.00  0.00     0.044 C 
HETATM   16  C   UNL     1      40.299 -11.154   4.896  1.00  0.00    -0.025 A 
HETATM   17  C   UNL     1      39.602  -9.938   4.904  1.00  0.00     0.010 A 
HETATM   18  C   UNL     1      39.947 -12.133   3.958  1.00  0.00     0.076 A 
HETATM   19  C   UNL     1      38.555  -9.718   4.007  1.00  0.00     0.001 A 
HETATM   20  C   UNL     1      38.198 -10.709   3.094  1.00  0.00     0.003 A 
HETATM   21  C   UNL     1      38.891 -11.918   3.074  1.00  0.00     0.037 A 
HETATM   22  O   UNL     1      40.570 -13.350   3.871  1.00  0.00    -0.338 OA
ENDBRANCH   4  13
BRANCH   9  23
HETATM   23  C   UNL     1      44.337 -20.869   3.599  1.00  0.00     0.010 A 
HETATM   24  C   UNL     1      44.370 -21.850   2.579  1.00  0.00     0.152 A 
HETATM   25  N   UNL     1      44.870 -23.016   2.998  1.00  0.00    -0.187 NA
HETATM   26  N   UNL     1      45.160 -22.787   4.288  1.00  0.00    -0.289 N 
HETATM   27  H   UNL     1      45.565 -23.543   4.832  1.00  0.00     0.188 HD
HETATM   28  C   UNL     1      44.864 -21.518   4.696  1.00  0.00     0.123 A 
ENDBRANCH   9  23
TORSDOF 2
ENDMDL
