MODEL 1
REMARK VINA RESULT:      -8.9      0.000      0.000
REMARK  9 active torsions:
REMARK  status: ('A' for Active; 'I' for Inactive)
REMARK    1  A    between atoms: O_2  and  C_3 
REMARK    2  A    between atoms: C_6  and  N_7 
REMARK       I    between atoms: N_7  and  C_8 
REMARK    3  A    between atoms: C_8  and  C_9 
REMARK    4  A    between atoms: C_9  and  N_10 
REMARK    5  A    between atoms: N_10  and  C_12 
REMARK    6  A    between atoms: N_10  and  C_24 
REMARK    7  A    between atoms: C_12  and  S_13 
REMARK    8  A    between atoms: S_13  and  C_14 
REMARK    9  A    between atoms: C_24  and  C_25 
ROOT
HETATM    1  N   UNL     1      41.962 -14.922   4.308  1.00  0.00    -0.041 N 
HETATM    2  H   UNL     1      42.971 -14.868   4.047  1.00  0.00     0.282 HD
ENDROOT
BRANCH   1   3
HETATM    3  C   UNL     1      41.330 -13.495   3.852  1.00  0.00     0.208 C 
HETATM    4  C   UNL     1      42.092 -12.381   4.619  1.00  0.00     0.049 C 
HETATM    5  C   UNL     1      41.386 -11.026   4.777  1.00  0.00     0.003 C 
HETATM    6  C   UNL     1      39.891 -11.127   5.037  1.00  0.00     0.000 C 
HETATM    7  C   UNL     1      39.202 -12.060   4.052  1.00  0.00     0.003 C 
HETATM    8  C   UNL     1      39.815 -13.458   4.141  1.00  0.00     0.049 C 
BRANCH   3   9
HETATM    9  C   UNL     1      41.466 -13.422   2.273  1.00  0.00     0.259 C 
HETATM   10  N   UNL     1      40.434 -13.938   1.525  1.00  0.00    -0.325 N 
HETATM   11  H   UNL     1      39.567 -14.172   1.982  1.00  0.00     0.169 HD
HETATM   12  O   UNL     1      42.506 -12.950   1.809  1.00  0.00    -0.270 OA
BRANCH  10  13
HETATM   13  C   UNL     1      40.432 -14.248   0.147  1.00  0.00     0.035 A 
HETATM   14  C   UNL     1      41.144 -15.298  -0.426  1.00  0.00     0.032 A 
HETATM   15  C   UNL     1      41.005 -15.576  -1.792  1.00  0.00     0.039 A 
HETATM   16  C   UNL     1      40.155 -14.818  -2.599  1.00  0.00     0.068 A 
HETATM   17  C   UNL     1      39.466 -13.749  -2.036  1.00  0.00     0.039 A 
HETATM   18  C   UNL     1      39.602 -13.468  -0.671  1.00  0.00     0.032 A 
BRANCH  16  19
HETATM   19  O   UNL     1      40.090 -15.215  -3.905  1.00  0.00    -0.356 OA
HETATM   20  C   UNL     1      39.073 -16.152  -4.238  1.00  0.00     0.210 C 
ENDBRANCH  16  19
ENDBRANCH  10  13
ENDBRANCH   3   9
ENDBRANCH   1   3
BRANCH   1  21
HETATM   21  C   UNL     1      42.044 -15.005   5.829  1.00  0.00     0.318 C 
BRANCH  21  22
HETATM   22  S   UNL     1      43.671 -15.364   6.505  1.00  0.00    -0.064 SA
BRANCH  22  23
HETATM   23  C   UNL     1      43.772 -17.069   6.348  1.00  0.00     0.169 A 
HETATM   24  N   UNL     1      43.309 -17.950   7.196  1.00  0.00    -0.223 NA
HETATM   25  C   UNL     1      43.710 -19.165   6.674  1.00  0.00     0.086 A 
HETATM   26  C   UNL     1      44.447 -18.988   5.504  1.00  0.00     0.063 A 
HETATM   27  C   UNL     1      43.499 -20.465   7.158  1.00  0.00     0.034 A 
HETATM   28  N   UNL     1      44.463 -17.631   5.316  1.00  0.00    -0.333 N 
HETATM   29  C   UNL     1      45.002 -20.042   4.778  1.00  0.00     0.032 A 
HETATM   30  H   UNL     1      44.919 -17.136   4.563  1.00  0.00     0.168 HD
HETATM   31  C   UNL     1      44.787 -21.330   5.280  1.00  0.00     0.002 A 
HETATM   32  C   UNL     1      44.049 -21.541   6.446  1.00  0.00     0.002 A 
ENDBRANCH  22  23
ENDBRANCH  21  22
ENDBRANCH   1  21
BRANCH   1  33
HETATM   33  C   UNL     1      41.400 -16.194   3.693  1.00  0.00     0.275 C 
BRANCH  33  34
HETATM   34  C   UNL     1      42.313 -17.054   2.858  1.00  0.00    -0.033 A 
HETATM   35  C   UNL     1      43.426 -16.529   2.185  1.00  0.00     0.009 A 
HETATM   36  C   UNL     1      44.245 -17.354   1.411  1.00  0.00     0.001 A 
HETATM   37  C   UNL     1      43.976 -18.716   1.314  1.00  0.00     0.000 A 
HETATM   38  C   UNL     1      42.897 -19.261   2.003  1.00  0.00     0.001 A 
HETATM   39  C   UNL     1      42.078 -18.439   2.779  1.00  0.00     0.009 A 
ENDBRANCH  33  34
ENDBRANCH   1  33
TORSDOF 9
ENDMDL
MODEL 2
REMARK VINA RESULT:      -8.8      2.503      6.482
REMARK  9 active torsions:
REMARK  status: ('A' for Active; 'I' for Inactive)
REMARK    1  A    between atoms: O_2  and  C_3 
REMARK    2  A    between atoms: C_6  and  N_7 
REMARK       I    between atoms: N_7  and  C_8 
REMARK    3  A    between atoms: C_8  and  C_9 
REMARK    4  A    between atoms: C_9  and  N_10 
REMARK    5  A    between atoms: N_10  and  C_12 
REMARK    6  A    between atoms: N_10  and  C_24 
REMARK    7  A    between atoms: C_12  and  S_13 
REMARK    8  A    between atoms: S_13  and  C_14 
REMARK    9  A    between atoms: C_24  and  C_25 
ROOT
HETATM    1  N   UNL     1      42.390 -17.948   3.097  1.00  0.00    -0.041 N 
HETATM    2  H   UNL     1      41.803 -18.778   3.330  1.00  0.00     0.282 HD
ENDROOT
BRANCH   1   3
HETATM    3  C   UNL     1      42.223 -16.942   4.365  1.00  0.00     0.208 C 
HETATM    4  C   UNL     1      43.618 -16.794   5.029  1.00  0.00     0.049 C 
HETATM    5  C   UNL     1      43.653 -16.341   6.497  1.00  0.00     0.003 C 
HETATM    6  C   UNL     1      42.551 -16.934   7.360  1.00  0.00     0.000 C 
HETATM    7  C   UNL     1      41.181 -16.791   6.713  1.00  0.00     0.003 C 
HETATM    8  C   UNL     1      41.171 -17.488   5.352  1.00  0.00     0.049 C 
BRANCH   3   9
HETATM    9  C   UNL     1      41.615 -15.593   3.794  1.00  0.00     0.259 C 
HETATM   10  N   UNL     1      40.246 -15.506   3.701  1.00  0.00    -0.325 N 
HETATM   11  H   UNL     1      39.678 -16.205   4.153  1.00  0.00     0.169 HD
HETATM   12  O   UNL     1      42.404 -14.719   3.427  1.00  0.00    -0.270 OA
BRANCH  10  13
HETATM   13  C   UNL     1      39.484 -14.557   2.984  1.00  0.00     0.035 A 
HETATM   14  C   UNL     1      39.462 -13.192   3.261  1.00  0.00     0.032 A 
HETATM   15  C   UNL     1      38.741 -12.322   2.434  1.00  0.00     0.039 A 
HETATM   16  C   UNL     1      38.041 -12.796   1.324  1.00  0.00     0.068 A 
HETATM   17  C   UNL     1      38.036 -14.162   1.062  1.00  0.00     0.039 A 
HETATM   18  C   UNL     1      38.755 -15.035   1.886  1.00  0.00     0.032 A 
BRANCH  16  19
HETATM   19  O   UNL     1      37.406 -11.837   0.585  1.00  0.00    -0.356 OA
HETATM   20  C   UNL     1      37.500 -10.498   1.058  1.00  0.00     0.210 C 
ENDBRANCH  16  19
ENDBRANCH  10  13
ENDBRANCH   3   9
ENDBRANCH   1   3
BRANCH   1  21
HETATM   21  C   UNL     1      41.662 -17.391   1.878  1.00  0.00     0.318 C 
BRANCH  21  22
HETATM   22  S   UNL     1      42.709 -16.860   0.517  1.00  0.00    -0.064 SA
BRANCH  22  23
HETATM   23  C   UNL     1      41.901 -15.458  -0.051  1.00  0.00     0.169 A 
HETATM   24  N   UNL     1      41.070 -15.403  -1.060  1.00  0.00    -0.223 NA
HETATM   25  C   UNL     1      40.762 -14.060  -1.171  1.00  0.00     0.086 A 
HETATM   26  C   UNL     1      41.450 -13.309  -0.219  1.00  0.00     0.063 A 
HETATM   27  C   UNL     1      39.918 -13.404  -2.078  1.00  0.00     0.034 A 
HETATM   28  N   UNL     1      42.167 -14.236   0.491  1.00  0.00    -0.333 N 
HETATM   29  C   UNL     1      41.352 -11.921  -0.116  1.00  0.00     0.032 A 
HETATM   30  H   UNL     1      42.792 -14.048   1.261  1.00  0.00     0.168 HD
HETATM   31  C   UNL     1      40.510 -11.283  -1.034  1.00  0.00     0.002 A 
HETATM   32  C   UNL     1      39.804 -12.008  -1.997  1.00  0.00     0.002 A 
ENDBRANCH  22  23
ENDBRANCH  21  22
ENDBRANCH   1  21
BRANCH   1  33
HETATM   33  C   UNL     1      43.781 -18.456   2.753  1.00  0.00     0.275 C 
BRANCH  33  34
HETATM   34  C   UNL     1      44.124 -19.889   3.072  1.00  0.00    -0.033 A 
HETATM   35  C   UNL     1      44.582 -20.284   4.337  1.00  0.00     0.009 A 
HETATM   36  C   UNL     1      44.899 -21.619   4.595  1.00  0.00     0.001 A 
HETATM   37  C   UNL     1      44.746 -22.580   3.600  1.00  0.00     0.000 A 
HETATM   38  C   UNL     1      44.259 -22.213   2.349  1.00  0.00     0.001 A 
HETATM   39  C   UNL     1      43.939 -20.879   2.090  1.00  0.00     0.009 A 
ENDBRANCH  33  34
ENDBRANCH   1  33
TORSDOF 9
ENDMDL
MODEL 3
REMARK VINA RESULT:      -8.5      2.977      4.735
REMARK  9 active torsions:
REMARK  status: ('A' for Active; 'I' for Inactive)
REMARK    1  A    between atoms: O_2  and  C_3 
REMARK    2  A    between atoms: C_6  and  N_7 
REMARK       I    between atoms: N_7  and  C_8 
REMARK    3  A    between atoms: C_8  and  C_9 
REMARK    4  A    between atoms: C_9  and  N_10 
REMARK    5  A    between atoms: N_10  and  C_12 
REMARK    6  A    between atoms: N_10  and  C_24 
REMARK    7  A    between atoms: C_12  and  S_13 
REMARK    8  A    between atoms: S_13  and  C_14 
REMARK    9  A    between atoms: C_24  and  C_25 
ROOT
HETATM    1  N   UNL     1      42.511 -15.534   5.052  1.00  0.00    -0.041 N 
HETATM    2  H   UNL     1      43.389 -15.469   4.492  1.00  0.00     0.282 HD
ENDROOT
BRANCH   1   3
HETATM    3  C   UNL     1      41.564 -14.335   4.494  1.00  0.00     0.208 C 
HETATM    4  C   UNL     1      42.420 -13.040   4.464  1.00  0.00     0.049 C 
HETATM    5  C   UNL     1      41.669 -11.700   4.479  1.00  0.00     0.003 C 
HETATM    6  C   UNL     1      40.442 -11.681   5.377  1.00  0.00     0.000 C 
HETATM    7  C   UNL     1      39.539 -12.882   5.134  1.00  0.00     0.003 C 
HETATM    8  C   UNL     1      40.312 -14.176   5.381  1.00  0.00     0.049 C 
BRANCH   3   9
HETATM    9  C   UNL     1      41.027 -14.804   3.077  1.00  0.00     0.259 C 
HETATM   10  N   UNL     1      41.841 -14.588   1.989  1.00  0.00    -0.325 N 
HETATM   11  H   UNL     1      42.799 -14.315   2.140  1.00  0.00     0.169 HD
HETATM   12  O   UNL     1      39.897 -15.293   3.025  1.00  0.00    -0.270 OA
BRANCH  10  13
HETATM   13  C   UNL     1      41.495 -14.649   0.621  1.00  0.00     0.035 A 
HETATM   14  C   UNL     1      41.320 -13.536  -0.198  1.00  0.00     0.032 A 
HETATM   15  C   UNL     1      41.064 -13.706  -1.565  1.00  0.00     0.039 A 
HETATM   16  C   UNL     1      40.984 -14.979  -2.130  1.00  0.00     0.068 A 
HETATM   17  C   UNL     1      41.127 -16.093  -1.309  1.00  0.00     0.039 A 
HETATM   18  C   UNL     1      41.384 -15.927   0.057  1.00  0.00     0.032 A 
BRANCH  16  19
HETATM   19  O   UNL     1      40.760 -15.002  -3.478  1.00  0.00    -0.356 OA
HETATM   20  C   UNL     1      39.512 -15.533  -3.910  1.00  0.00     0.210 C 
ENDBRANCH  16  19
ENDBRANCH  10  13
ENDBRANCH   3   9
ENDBRANCH   1   3
BRANCH   1  21
HETATM   21  C   UNL     1      43.016 -15.203   6.453  1.00  0.00     0.318 C 
BRANCH  21  22
HETATM   22  S   UNL     1      44.684 -14.541   6.545  1.00  0.00    -0.064 SA
BRANCH  22  23
HETATM   23  C   UNL     1      44.541 -13.333   7.756  1.00  0.00     0.169 A 
HETATM   24  N   UNL     1      45.324 -13.184   8.792  1.00  0.00    -0.223 NA
HETATM   25  C   UNL     1      44.752 -12.145   9.501  1.00  0.00     0.086 A 
HETATM   26  C   UNL     1      43.591 -11.693   8.877  1.00  0.00     0.063 A 
HETATM   27  C   UNL     1      45.157 -11.547  10.704  1.00  0.00     0.034 A 
HETATM   28  N   UNL     1      43.486 -12.470   7.753  1.00  0.00    -0.333 N 
HETATM   29  C   UNL     1      42.792 -10.670   9.386  1.00  0.00     0.032 A 
HETATM   30  H   UNL     1      42.752 -12.426   7.061  1.00  0.00     0.168 HD
HETATM   31  C   UNL     1      43.208 -10.090  10.590  1.00  0.00     0.002 A 
HETATM   32  C   UNL     1      44.369 -10.518  11.238  1.00  0.00     0.002 A 
ENDBRANCH  22  23
ENDBRANCH  21  22
ENDBRANCH   1  21
BRANCH   1  33
HETATM   33  C   UNL     1      42.007 -16.964   4.946  1.00  0.00     0.275 C 
BRANCH  33  34
HETATM   34  C   UNL     1      42.833 -17.963   4.175  1.00  0.00    -0.033 A 
HETATM   35  C   UNL     1      43.775 -18.792   4.799  1.00  0.00     0.009 A 
HETATM   36  C   UNL     1      44.530 -19.699   4.052  1.00  0.00     0.001 A 
HETATM   37  C   UNL     1      44.342 -19.803   2.677  1.00  0.00     0.000 A 
HETATM   38  C   UNL     1      43.385 -19.012   2.046  1.00  0.00     0.001 A 
HETATM   39  C   UNL     1      42.628 -18.107   2.790  1.00  0.00     0.009 A 
ENDBRANCH  33  34
ENDBRANCH   1  33
TORSDOF 9
ENDMDL
MODEL 4
REMARK VINA RESULT:      -8.5      2.645      7.070
REMARK  9 active torsions:
REMARK  status: ('A' for Active; 'I' for Inactive)
REMARK    1  A    between atoms: O_2  and  C_3 
REMARK    2  A    between atoms: C_6  and  N_7 
REMARK       I    between atoms: N_7  and  C_8 
REMARK    3  A    between atoms: C_8  and  C_9 
REMARK    4  A    between atoms: C_9  and  N_10 
REMARK    5  A    between atoms: N_10  and  C_12 
REMARK    6  A    between atoms: N_10  and  C_24 
REMARK    7  A    between atoms: C_12  and  S_13 
REMARK    8  A    between atoms: S_13  and  C_14 
REMARK    9  A    between atoms: C_24  and  C_25 
ROOT
HETATM    1  N   UNL     1      42.811 -17.136   2.910  1.00  0.00    -0.041 N 
HETATM    2  H   UNL     1      42.091 -17.821   2.594  1.00  0.00     0.282 HD
ENDROOT
BRANCH   1   3
HETATM    3  C   UNL     1      42.270 -16.583   4.341  1.00  0.00     0.208 C 
HETATM    4  C   UNL     1      43.505 -16.115   5.158  1.00  0.00     0.049 C 
HETATM    5  C   UNL     1      43.351 -16.039   6.684  1.00  0.00     0.003 C 
HETATM    6  C   UNL     1      42.528 -17.168   7.286  1.00  0.00     0.000 C 
HETATM    7  C   UNL     1      41.210 -17.367   6.551  1.00  0.00     0.003 C 
HETATM    8  C   UNL     1      41.475 -17.680   5.079  1.00  0.00     0.049 C 
BRANCH   3   9
HETATM    9  C   UNL     1      41.221 -15.438   4.016  1.00  0.00     0.259 C 
HETATM   10  N   UNL     1      41.581 -14.146   4.320  1.00  0.00    -0.325 N 
HETATM   11  H   UNL     1      42.539 -13.948   4.560  1.00  0.00     0.169 HD
HETATM   12  O   UNL     1      40.129 -15.776   3.555  1.00  0.00    -0.270 OA
BRANCH  10  13
HETATM   13  C   UNL     1      40.748 -13.008   4.394  1.00  0.00     0.035 A 
HETATM   14  C   UNL     1      40.340 -12.257   3.294  1.00  0.00     0.032 A 
HETATM   15  C   UNL     1      39.440 -11.197   3.466  1.00  0.00     0.039 A 
HETATM   16  C   UNL     1      38.933 -10.878   4.727  1.00  0.00     0.068 A 
HETATM   17  C   UNL     1      39.362 -11.606   5.831  1.00  0.00     0.039 A 
HETATM   18  C   UNL     1      40.262 -12.666   5.664  1.00  0.00     0.032 A 
BRANCH  16  19
HETATM   19  O   UNL     1      38.041  -9.843   4.748  1.00  0.00    -0.356 OA
HETATM   20  C   UNL     1      37.354  -9.565   3.534  1.00  0.00     0.210 C 
ENDBRANCH  16  19
ENDBRANCH  10  13
ENDBRANCH   3   9
ENDBRANCH   1   3
BRANCH   1  21
HETATM   21  C   UNL     1      42.692 -16.052   1.843  1.00  0.00     0.318 C 
BRANCH  21  22
HETATM   22  S   UNL     1      41.776 -16.508   0.365  1.00  0.00    -0.064 SA
BRANCH  22  23
HETATM   23  C   UNL     1      40.665 -15.211   0.199  1.00  0.00     0.169 A 
HETATM   24  N   UNL     1      40.908 -14.056  -0.366  1.00  0.00    -0.223 NA
HETATM   25  C   UNL     1      39.745 -13.335  -0.174  1.00  0.00     0.086 A 
HETATM   26  C   UNL     1      38.808 -14.078   0.542  1.00  0.00     0.063 A 
HETATM   27  C   UNL     1      39.424 -12.027  -0.565  1.00  0.00     0.034 A 
HETATM   28  N   UNL     1      39.426 -15.282   0.760  1.00  0.00    -0.333 N 
HETATM   29  C   UNL     1      37.553 -13.590   0.904  1.00  0.00     0.032 A 
HETATM   30  H   UNL     1      39.041 -16.070   1.261  1.00  0.00     0.168 HD
HETATM   31  C   UNL     1      37.253 -12.280   0.511  1.00  0.00     0.002 A 
HETATM   32  C   UNL     1      38.168 -11.512  -0.211  1.00  0.00     0.002 A 
ENDBRANCH  22  23
ENDBRANCH  21  22
ENDBRANCH   1  21
BRANCH   1  33
HETATM   33  C   UNL     1      44.159 -17.838   2.867  1.00  0.00     0.275 C 
BRANCH  33  34
HETATM   34  C   UNL     1      44.186 -19.345   2.910  1.00  0.00    -0.033 A 
HETATM   35  C   UNL     1      44.698 -20.052   4.007  1.00  0.00     0.009 A 
HETATM   36  C   UNL     1      44.717 -21.448   4.009  1.00  0.00     0.001 A 
HETATM   37  C   UNL     1      44.209 -22.157   2.925  1.00  0.00     0.000 A 
HETATM   38  C   UNL     1      43.664 -21.473   1.842  1.00  0.00     0.001 A 
HETATM   39  C   UNL     1      43.642 -20.077   1.839  1.00  0.00     0.009 A 
ENDBRANCH  33  34
ENDBRANCH   1  33
TORSDOF 9
ENDMDL
MODEL 5
REMARK VINA RESULT:      -8.4      3.419      7.132
REMARK  9 active torsions:
REMARK  status: ('A' for Active; 'I' for Inactive)
REMARK    1  A    between atoms: O_2  and  C_3 
REMARK    2  A    between atoms: C_6  and  N_7 
REMARK       I    between atoms: N_7  and  C_8 
REMARK    3  A    between atoms: C_8  and  C_9 
REMARK    4  A    between atoms: C_9  and  N_10 
REMARK    5  A    between atoms: N_10  and  C_12 
REMARK    6  A    between atoms: N_10  and  C_24 
REMARK    7  A    between atoms: C_12  and  S_13 
REMARK    8  A    between atoms: S_13  and  C_14 
REMARK    9  A    between atoms: C_24  and  C_25 
ROOT
HETATM    1  N   UNL     1      43.188 -14.955   6.542  1.00  0.00    -0.041 N 
HETATM    2  H   UNL     1      42.731 -14.517   7.371  1.00  0.00     0.282 HD
ENDROOT
BRANCH   1   3
HETATM    3  C   UNL     1      42.345 -14.413   5.260  1.00  0.00     0.208 C 
HETATM    4  C   UNL     1      41.620 -15.633   4.629  1.00  0.00     0.049 C 
HETATM    5  C   UNL     1      41.194 -15.513   3.158  1.00  0.00     0.003 C 
HETATM    6  C   UNL     1      42.196 -14.787   2.274  1.00  0.00     0.000 C 
HETATM    7  C   UNL     1      42.646 -13.468   2.885  1.00  0.00     0.003 C 
HETATM    8  C   UNL     1      43.283 -13.717   4.252  1.00  0.00     0.049 C 
BRANCH   3   9
HETATM    9  C   UNL     1      41.379 -13.278   5.801  1.00  0.00     0.259 C 
HETATM   10  N   UNL     1      41.914 -12.022   5.975  1.00  0.00    -0.325 N 
HETATM   11  H   UNL     1      42.824 -11.820   5.593  1.00  0.00     0.169 HD
HETATM   12  O   UNL     1      40.220 -13.594   6.076  1.00  0.00    -0.270 OA
BRANCH  10  13
HETATM   13  C   UNL     1      41.363 -10.937   6.690  1.00  0.00     0.035 A 
HETATM   14  C   UNL     1      41.811 -10.505   7.937  1.00  0.00     0.032 A 
HETATM   15  C   UNL     1      41.254  -9.361   8.523  1.00  0.00     0.039 A 
HETATM   16  C   UNL     1      40.253  -8.634   7.877  1.00  0.00     0.068 A 
HETATM   17  C   UNL     1      39.782  -9.079   6.647  1.00  0.00     0.039 A 
HETATM   18  C   UNL     1      40.336 -10.222   6.057  1.00  0.00     0.032 A 
BRANCH  16  19
HETATM   19  O   UNL     1      39.820  -7.523   8.546  1.00  0.00    -0.356 OA
HETATM   20  C   UNL     1      40.041  -7.496   9.951  1.00  0.00     0.210 C 
ENDBRANCH  16  19
ENDBRANCH  10  13
ENDBRANCH   3   9
ENDBRANCH   1   3
BRANCH   1  21
HETATM   21  C   UNL     1      42.899 -16.435   6.779  1.00  0.00     0.318 C 
BRANCH  21  22
HETATM   22  S   UNL     1      44.339 -17.484   7.013  1.00  0.00    -0.064 SA
BRANCH  22  23
HETATM   23  C   UNL     1      44.313 -18.472   5.611  1.00  0.00     0.169 A 
HETATM   24  N   UNL     1      43.849 -18.131   4.436  1.00  0.00    -0.223 NA
HETATM   25  C   UNL     1      43.970 -19.279   3.678  1.00  0.00     0.086 A 
HETATM   26  C   UNL     1      44.495 -20.326   4.435  1.00  0.00     0.063 A 
HETATM   27  C   UNL     1      43.631 -19.511   2.337  1.00  0.00     0.034 A 
HETATM   28  N   UNL     1      44.713 -19.773   5.671  1.00  0.00    -0.333 N 
HETATM   29  C   UNL     1      44.700 -21.611   3.934  1.00  0.00     0.032 A 
HETATM   30  H   UNL     1      45.082 -20.248   6.482  1.00  0.00     0.168 HD
HETATM   31  C   UNL     1      44.349 -21.825   2.596  1.00  0.00     0.002 A 
HETATM   32  C   UNL     1      43.825 -20.796   1.810  1.00  0.00     0.002 A 
ENDBRANCH  22  23
ENDBRANCH  21  22
ENDBRANCH   1  21
BRANCH   1  33
HETATM   33  C   UNL     1      44.672 -14.640   6.619  1.00  0.00     0.275 C 
BRANCH  33  34
HETATM   34  C   UNL     1      45.124 -13.520   7.522  1.00  0.00    -0.033 A 
HETATM   35  C   UNL     1      46.343 -12.853   7.332  1.00  0.00     0.009 A 
HETATM   36  C   UNL     1      46.734 -11.827   8.194  1.00  0.00     0.001 A 
HETATM   37  C   UNL     1      45.907 -11.440   9.244  1.00  0.00     0.000 A 
HETATM   38  C   UNL     1      44.678 -12.067   9.427  1.00  0.00     0.001 A 
HETATM   39  C   UNL     1      44.283 -13.091   8.565  1.00  0.00     0.009 A 
ENDBRANCH  33  34
ENDBRANCH   1  33
TORSDOF 9
ENDMDL
MODEL 6
REMARK VINA RESULT:      -8.4      2.887      8.143
REMARK  9 active torsions:
REMARK  status: ('A' for Active; 'I' for Inactive)
REMARK    1  A    between atoms: O_2  and  C_3 
REMARK    2  A    between atoms: C_6  and  N_7 
REMARK       I    between atoms: N_7  and  C_8 
REMARK    3  A    between atoms: C_8  and  C_9 
REMARK    4  A    between atoms: C_9  and  N_10 
REMARK    5  A    between atoms: N_10  and  C_12 
REMARK    6  A    between atoms: N_10  and  C_24 
REMARK    7  A    between atoms: C_12  and  S_13 
REMARK    8  A    between atoms: S_13  and  C_14 
REMARK    9  A    between atoms: C_24  and  C_25 
ROOT
HETATM    1  N   UNL     1      40.479 -15.167   2.129  1.00  0.00    -0.041 N 
HETATM    2  H   UNL     1      40.884 -14.490   1.447  1.00  0.00     0.282 HD
ENDROOT
BRANCH   1   3
HETATM    3  C   UNL     1      41.415 -15.043   3.454  1.00  0.00     0.208 C 
HETATM    4  C   UNL     1      40.585 -14.314   4.545  1.00  0.00     0.049 C 
HETATM    5  C   UNL     1      41.362 -13.621   5.674  1.00  0.00     0.003 C 
HETATM    6  C   UNL     1      42.640 -12.932   5.221  1.00  0.00     0.000 C 
HETATM    7  C   UNL     1      43.503 -13.841   4.358  1.00  0.00     0.003 C 
HETATM    8  C   UNL     1      42.720 -14.289   3.125  1.00  0.00     0.049 C 
BRANCH   3   9
HETATM    9  C   UNL     1      41.857 -16.518   3.836  1.00  0.00     0.259 C 
HETATM   10  N   UNL     1      43.092 -16.940   3.399  1.00  0.00    -0.325 N 
HETATM   11  H   UNL     1      43.735 -16.264   3.021  1.00  0.00     0.169 HD
HETATM   12  O   UNL     1      41.055 -17.213   4.460  1.00  0.00    -0.270 OA
BRANCH  10  13
HETATM   13  C   UNL     1      43.592 -18.260   3.359  1.00  0.00     0.035 A 
HETATM   14  C   UNL     1      44.229 -18.895   4.422  1.00  0.00     0.032 A 
HETATM   15  C   UNL     1      44.610 -20.238   4.308  1.00  0.00     0.039 A 
HETATM   16  C   UNL     1      44.357 -20.964   3.144  1.00  0.00     0.068 A 
HETATM   17  C   UNL     1      43.748 -20.324   2.069  1.00  0.00     0.039 A 
HETATM   18  C   UNL     1      43.366 -18.982   2.178  1.00  0.00     0.032 A 
BRANCH  16  19
HETATM   19  O   UNL     1      44.752 -22.271   3.177  1.00  0.00    -0.356 OA
HETATM   20  C   UNL     1      44.758 -22.905   4.451  1.00  0.00     0.210 C 
ENDBRANCH  16  19
ENDBRANCH  10  13
ENDBRANCH   3   9
ENDBRANCH   1   3
BRANCH   1  21
HETATM   21  C   UNL     1      40.730 -16.497   1.425  1.00  0.00     0.318 C 
BRANCH  21  22
HETATM   22  S   UNL     1      41.732 -16.416  -0.065  1.00  0.00    -0.064 SA
BRANCH  22  23
HETATM   23  C   UNL     1      41.131 -15.011  -0.843  1.00  0.00     0.169 A 
HETATM   24  N   UNL     1      41.525 -13.782  -0.628  1.00  0.00    -0.223 NA
HETATM   25  C   UNL     1      40.692 -13.017  -1.421  1.00  0.00     0.086 A 
HETATM   26  C   UNL     1      39.772 -13.815  -2.098  1.00  0.00     0.063 A 
HETATM   27  C   UNL     1      40.648 -11.626  -1.598  1.00  0.00     0.034 A 
HETATM   28  N   UNL     1      40.085 -15.093  -1.712  1.00  0.00    -0.333 N 
HETATM   29  C   UNL     1      38.791 -13.307  -2.949  1.00  0.00     0.032 A 
HETATM   30  H   UNL     1      39.614 -15.938  -2.003  1.00  0.00     0.168 HD
HETATM   31  C   UNL     1      38.758 -11.917  -3.107  1.00  0.00     0.002 A 
HETATM   32  C   UNL     1      39.669 -11.090  -2.446  1.00  0.00     0.002 A 
ENDBRANCH  22  23
ENDBRANCH  21  22
ENDBRANCH   1  21
BRANCH   1  33
HETATM   33  C   UNL     1      38.997 -14.855   2.257  1.00  0.00     0.275 C 
BRANCH  33  34
HETATM   34  C   UNL     1      38.468 -13.598   1.614  1.00  0.00    -0.033 A 
HETATM   35  C   UNL     1      37.400 -13.616   0.706  1.00  0.00     0.009 A 
HETATM   36  C   UNL     1      36.943 -12.434   0.121  1.00  0.00     0.001 A 
HETATM   37  C   UNL     1      37.532 -11.216   0.449  1.00  0.00     0.000 A 
HETATM   38  C   UNL     1      38.570 -11.175   1.375  1.00  0.00     0.001 A 
HETATM   39  C   UNL     1      39.028 -12.355   1.963  1.00  0.00     0.009 A 
ENDBRANCH  33  34
ENDBRANCH   1  33
TORSDOF 9
ENDMDL
MODEL 7
REMARK VINA RESULT:      -8.3      2.710      6.447
REMARK  9 active torsions:
REMARK  status: ('A' for Active; 'I' for Inactive)
REMARK    1  A    between atoms: O_2  and  C_3 
REMARK    2  A    between atoms: C_6  and  N_7 
REMARK       I    between atoms: N_7  and  C_8 
REMARK    3  A    between atoms: C_8  and  C_9 
REMARK    4  A    between atoms: C_9  and  N_10 
REMARK    5  A    between atoms: N_10  and  C_12 
REMARK    6  A    between atoms: N_10  and  C_24 
REMARK    7  A    between atoms: C_12  and  S_13 
REMARK    8  A    between atoms: S_13  and  C_14 
REMARK    9  A    between atoms: C_24  and  C_25 
ROOT
HETATM    1  N   UNL     1      42.118 -15.387   3.202  1.00  0.00    -0.041 N 
HETATM    2  H   UNL     1      42.101 -14.375   2.949  1.00  0.00     0.282 HD
ENDROOT
BRANCH   1   3
HETATM    3  C   UNL     1      42.099 -15.416   4.829  1.00  0.00     0.208 C 
HETATM    4  C   UNL     1      43.572 -15.327   5.314  1.00  0.00     0.049 C 
HETATM    5  C   UNL     1      43.878 -15.843   6.728  1.00  0.00     0.003 C 
HETATM    6  C   UNL     1      43.111 -17.097   7.116  1.00  0.00     0.000 C 
HETATM    7  C   UNL     1      41.623 -16.968   6.826  1.00  0.00     0.003 C 
HETATM    8  C   UNL     1      41.402 -16.695   5.338  1.00  0.00     0.049 C 
BRANCH   3   9
HETATM    9  C   UNL     1      41.177 -14.212   5.293  1.00  0.00     0.259 C 
HETATM   10  N   UNL     1      41.786 -12.999   5.515  1.00  0.00    -0.325 N 
HETATM   11  H   UNL     1      42.737 -12.865   5.211  1.00  0.00     0.169 HD
HETATM   12  O   UNL     1      39.979 -14.443   5.470  1.00  0.00    -0.270 OA
BRANCH  10  13
HETATM   13  C   UNL     1      41.259 -11.875   6.188  1.00  0.00     0.035 A 
HETATM   14  C   UNL     1      40.012 -11.312   5.925  1.00  0.00     0.032 A 
HETATM   15  C   UNL     1      39.544 -10.250   6.709  1.00  0.00     0.039 A 
HETATM   16  C   UNL     1      40.304  -9.742   7.763  1.00  0.00     0.068 A 
HETATM   17  C   UNL     1      41.563 -10.281   8.009  1.00  0.00     0.039 A 
HETATM   18  C   UNL     1      42.034 -11.342   7.227  1.00  0.00     0.032 A 
BRANCH  16  19
HETATM   19  O   UNL     1      39.717  -8.727   8.466  1.00  0.00    -0.356 OA
HETATM   20  C   UNL     1      39.314  -9.022   9.798  1.00  0.00     0.210 C 
ENDBRANCH  16  19
ENDBRANCH  10  13
ENDBRANCH   3   9
ENDBRANCH   1   3
BRANCH   1  21
HETATM   21  C   UNL     1      43.487 -15.810   2.680  1.00  0.00     0.318 C 
BRANCH  21  22
HETATM   22  S   UNL     1      43.482 -17.111   1.439  1.00  0.00    -0.064 SA
BRANCH  22  23
HETATM   23  C   UNL     1      43.778 -18.519   2.373  1.00  0.00     0.169 A 
HETATM   24  N   UNL     1      44.085 -18.550   3.644  1.00  0.00    -0.223 NA
HETATM   25  C   UNL     1      44.307 -19.889   3.905  1.00  0.00     0.086 A 
HETATM   26  C   UNL     1      44.150 -20.657   2.752  1.00  0.00     0.063 A 
HETATM   27  C   UNL     1      44.669 -20.523   5.103  1.00  0.00     0.034 A 
HETATM   28  N   UNL     1      43.802 -19.749   1.786  1.00  0.00    -0.333 N 
HETATM   29  C   UNL     1      44.340 -22.038   2.715  1.00  0.00     0.032 A 
HETATM   30  H   UNL     1      43.617 -19.950   0.814  1.00  0.00     0.168 HD
HETATM   31  C   UNL     1      44.707 -22.652   3.918  1.00  0.00     0.002 A 
HETATM   32  C   UNL     1      44.868 -21.911   5.091  1.00  0.00     0.002 A 
ENDBRANCH  22  23
ENDBRANCH  21  22
ENDBRANCH   1  21
BRANCH   1  33
HETATM   33  C   UNL     1      40.982 -16.063   2.452  1.00  0.00     0.275 C 
BRANCH  33  34
HETATM   34  C   UNL     1      40.135 -15.229   1.525  1.00  0.00    -0.033 A 
HETATM   35  C   UNL     1      40.641 -14.686   0.336  1.00  0.00     0.009 A 
HETATM   36  C   UNL     1      39.830 -13.909  -0.494  1.00  0.00     0.001 A 
HETATM   37  C   UNL     1      38.499 -13.680  -0.158  1.00  0.00     0.000 A 
HETATM   38  C   UNL     1      37.969 -14.241   1.001  1.00  0.00     0.001 A 
HETATM   39  C   UNL     1      38.777 -15.019   1.831  1.00  0.00     0.009 A 
ENDBRANCH  33  34
ENDBRANCH   1  33
TORSDOF 9
ENDMDL
MODEL 8
REMARK VINA RESULT:      -8.3      3.364      6.851
REMARK  9 active torsions:
REMARK  status: ('A' for Active; 'I' for Inactive)
REMARK    1  A    between atoms: O_2  and  C_3 
REMARK    2  A    between atoms: C_6  and  N_7 
REMARK       I    between atoms: N_7  and  C_8 
REMARK    3  A    between atoms: C_8  and  C_9 
REMARK    4  A    between atoms: C_9  and  N_10 
REMARK    5  A    between atoms: N_10  and  C_12 
REMARK    6  A    between atoms: N_10  and  C_24 
REMARK    7  A    between atoms: C_12  and  S_13 
REMARK    8  A    between atoms: S_13  and  C_14 
REMARK    9  A    between atoms: C_24  and  C_25 
ROOT
HETATM    1  N   UNL     1      43.172 -15.862   5.059  1.00  0.00    -0.041 N 
HETATM    2  H   UNL     1      44.139 -15.823   4.671  1.00  0.00     0.282 HD
ENDROOT
BRANCH   1   3
HETATM    3  C   UNL     1      42.235 -15.161   3.928  1.00  0.00     0.208 C 
HETATM    4  C   UNL     1      40.929 -15.993   3.822  1.00  0.00     0.049 C 
HETATM    5  C   UNL     1      40.124 -15.875   2.520  1.00  0.00     0.003 C 
HETATM    6  C   UNL     1      40.977 -15.789   1.263  1.00  0.00     0.000 C 
HETATM    7  C   UNL     1      42.079 -14.748   1.393  1.00  0.00     0.003 C 
HETATM    8  C   UNL     1      42.981 -15.086   2.579  1.00  0.00     0.049 C 
BRANCH   3   9
HETATM    9  C   UNL     1      42.024 -13.656   4.384  1.00  0.00     0.259 C 
HETATM   10  N   UNL     1      40.810 -13.329   4.943  1.00  0.00    -0.325 N 
HETATM   11  H   UNL     1      40.178 -14.067   5.207  1.00  0.00     0.169 HD
HETATM   12  O   UNL     1      42.940 -12.859   4.172  1.00  0.00    -0.270 OA
BRANCH  10  13
HETATM   13  C   UNL     1      40.277 -12.041   5.164  1.00  0.00     0.035 A 
HETATM   14  C   UNL     1      39.528 -11.326   4.232  1.00  0.00     0.032 A 
HETATM   15  C   UNL     1      38.969 -10.090   4.583  1.00  0.00     0.039 A 
HETATM   16  C   UNL     1      39.142  -9.556   5.860  1.00  0.00     0.068 A 
HETATM   17  C   UNL     1      39.915 -10.253   6.784  1.00  0.00     0.039 A 
HETATM   18  C   UNL     1      40.475 -11.488   6.438  1.00  0.00     0.032 A 
BRANCH  16  19
HETATM   19  O   UNL     1      38.518  -8.360   6.078  1.00  0.00    -0.356 OA
HETATM   20  C   UNL     1      38.484  -7.892   7.421  1.00  0.00     0.210 C 
ENDBRANCH  16  19
ENDBRANCH  10  13
ENDBRANCH   3   9
ENDBRANCH   1   3
BRANCH   1  21
HETATM   21  C   UNL     1      43.295 -14.957   6.281  1.00  0.00     0.318 C 
BRANCH  21  22
HETATM   22  S   UNL     1      44.964 -14.438   6.704  1.00  0.00    -0.064 SA
BRANCH  22  23
HETATM   23  C   UNL     1      44.689 -13.209   7.868  1.00  0.00     0.169 A 
HETATM   24  N   UNL     1      45.456 -12.931   8.891  1.00  0.00    -0.223 NA
HETATM   25  C   UNL     1      44.772 -11.938   9.565  1.00  0.00     0.086 A 
HETATM   26  C   UNL     1      43.563 -11.645   8.935  1.00  0.00     0.063 A 
HETATM   27  C   UNL     1      45.112 -11.251  10.740  1.00  0.00     0.034 A 
HETATM   28  N   UNL     1      43.542 -12.473   7.843  1.00  0.00    -0.333 N 
HETATM   29  C   UNL     1      42.655 -10.701   9.413  1.00  0.00     0.032 A 
HETATM   30  H   UNL     1      42.805 -12.539   7.156  1.00  0.00     0.168 HD
HETATM   31  C   UNL     1      43.008 -10.031  10.590  1.00  0.00     0.002 A 
HETATM   32  C   UNL     1      44.214 -10.298  11.243  1.00  0.00     0.002 A 
ENDBRANCH  22  23
ENDBRANCH  21  22
ENDBRANCH   1  21
BRANCH   1  33
HETATM   33  C   UNL     1      42.890 -17.306   5.439  1.00  0.00     0.275 C 
BRANCH  33  34
HETATM   34  C   UNL     1      43.518 -18.402   4.617  1.00  0.00    -0.033 A 
HETATM   35  C   UNL     1      43.212 -18.588   3.261  1.00  0.00     0.009 A 
HETATM   36  C   UNL     1      43.805 -19.620   2.532  1.00  0.00     0.001 A 
HETATM   37  C   UNL     1      44.725 -20.470   3.141  1.00  0.00     0.000 A 
HETATM   38  C   UNL     1      45.067 -20.279   4.477  1.00  0.00     0.001 A 
HETATM   39  C   UNL     1      44.477 -19.246   5.207  1.00  0.00     0.009 A 
ENDBRANCH  33  34
ENDBRANCH   1  33
TORSDOF 9
ENDMDL
MODEL 9
REMARK VINA RESULT:      -8.3      3.302      6.946
REMARK  9 active torsions:
REMARK  status: ('A' for Active; 'I' for Inactive)
REMARK    1  A    between atoms: O_2  and  C_3 
REMARK    2  A    between atoms: C_6  and  N_7 
REMARK       I    between atoms: N_7  and  C_8 
REMARK    3  A    between atoms: C_8  and  C_9 
REMARK    4  A    between atoms: C_9  and  N_10 
REMARK    5  A    between atoms: N_10  and  C_12 
REMARK    6  A    between atoms: N_10  and  C_24 
REMARK    7  A    between atoms: C_12  and  S_13 
REMARK    8  A    between atoms: S_13  and  C_14 
REMARK    9  A    between atoms: C_24  and  C_25 
ROOT
HETATM    1  N   UNL     1      41.309 -13.736   4.446  1.00  0.00    -0.041 N 
HETATM    2  H   UNL     1      42.351 -13.688   4.432  1.00  0.00     0.282 HD
ENDROOT
BRANCH   1   3
HETATM    3  C   UNL     1      40.881 -14.097   2.919  1.00  0.00     0.208 C 
HETATM    4  C   UNL     1      40.979 -12.790   2.086  1.00  0.00     0.049 C 
HETATM    5  C   UNL     1      40.163 -12.722   0.787  1.00  0.00     0.003 C 
HETATM    6  C   UNL     1      38.788 -13.366   0.877  1.00  0.00     0.000 C 
HETATM    7  C   UNL     1      38.851 -14.761   1.483  1.00  0.00     0.003 C 
HETATM    8  C   UNL     1      39.459 -14.695   2.883  1.00  0.00     0.049 C 
BRANCH   3   9
HETATM    9  C   UNL     1      41.847 -15.260   2.441  1.00  0.00     0.259 C 
HETATM   10  N   UNL     1      41.522 -16.544   2.810  1.00  0.00    -0.325 N 
HETATM   11  H   UNL     1      40.612 -16.726   3.204  1.00  0.00     0.169 HD
HETATM   12  O   UNL     1      42.855 -14.943   1.806  1.00  0.00    -0.270 OA
BRANCH  10  13
HETATM   13  C   UNL     1      42.340 -17.694   2.760  1.00  0.00     0.035 A 
HETATM   14  C   UNL     1      42.434 -18.548   1.663  1.00  0.00     0.032 A 
HETATM   15  C   UNL     1      43.342 -19.614   1.682  1.00  0.00     0.039 A 
HETATM   16  C   UNL     1      44.168 -19.839   2.784  1.00  0.00     0.068 A 
HETATM   17  C   UNL     1      44.055 -19.007   3.893  1.00  0.00     0.039 A 
HETATM   18  C   UNL     1      43.148 -17.940   3.879  1.00  0.00     0.032 A 
BRANCH  16  19
HETATM   19  O   UNL     1      45.028 -20.893   2.659  1.00  0.00    -0.356 OA
HETATM   20  C   UNL     1      44.487 -22.103   2.143  1.00  0.00     0.210 C 
ENDBRANCH  16  19
ENDBRANCH  10  13
ENDBRANCH   3   9
ENDBRANCH   1   3
BRANCH   1  21
HETATM   21  C   UNL     1      40.941 -12.292   4.774  1.00  0.00     0.318 C 
BRANCH  21  22
HETATM   22  S   UNL     1      39.386 -12.060   5.644  1.00  0.00    -0.064 SA
BRANCH  22  23
HETATM   23  C   UNL     1      39.895 -11.436   7.159  1.00  0.00     0.169 A 
HETATM   24  N   UNL     1      39.118 -10.951   8.093  1.00  0.00    -0.223 NA
HETATM   25  C   UNL     1      39.995 -10.505   9.063  1.00  0.00     0.086 A 
HETATM   26  C   UNL     1      41.318 -10.712   8.676  1.00  0.00     0.063 A 
HETATM   27  C   UNL     1      39.734  -9.891  10.297  1.00  0.00     0.034 A 
HETATM   28  N   UNL     1      41.221 -11.319   7.451  1.00  0.00    -0.333 N 
HETATM   29  C   UNL     1      42.415 -10.333   9.449  1.00  0.00     0.032 A 
HETATM   30  H   UNL     1      41.990 -11.608   6.863  1.00  0.00     0.168 HD
HETATM   31  C   UNL     1      42.134  -9.715  10.673  1.00  0.00     0.002 A 
HETATM   32  C   UNL     1      40.820  -9.498  11.092  1.00  0.00     0.002 A 
ENDBRANCH  22  23
ENDBRANCH  21  22
ENDBRANCH   1  21
BRANCH   1  33
HETATM   33  C   UNL     1      40.912 -14.695   5.556  1.00  0.00     0.275 C 
BRANCH  33  34
HETATM   34  C   UNL     1      41.989 -15.520   6.214  1.00  0.00    -0.033 A 
HETATM   35  C   UNL     1      43.329 -15.108   6.249  1.00  0.00     0.009 A 
HETATM   36  C   UNL     1      44.303 -15.902   6.858  1.00  0.00     0.001 A 
HETATM   37  C   UNL     1      43.950 -17.109   7.455  1.00  0.00     0.000 A 
HETATM   38  C   UNL     1      42.619 -17.518   7.461  1.00  0.00     0.001 A 
HETATM   39  C   UNL     1      41.644 -16.724   6.855  1.00  0.00     0.009 A 
ENDBRANCH  33  34
ENDBRANCH   1  33
TORSDOF 9
ENDMDL
MODEL 10
REMARK VINA RESULT:      -7.9      2.786      6.150
REMARK  9 active torsions:
REMARK  status: ('A' for Active; 'I' for Inactive)
REMARK    1  A    between atoms: O_2  and  C_3 
REMARK    2  A    between atoms: C_6  and  N_7 
REMARK       I    between atoms: N_7  and  C_8 
REMARK    3  A    between atoms: C_8  and  C_9 
REMARK    4  A    between atoms: C_9  and  N_10 
REMARK    5  A    between atoms: N_10  and  C_12 
REMARK    6  A    between atoms: N_10  and  C_24 
REMARK    7  A    between atoms: C_12  and  S_13 
REMARK    8  A    between atoms: S_13  and  C_14 
REMARK    9  A    between atoms: C_24  and  C_25 
ROOT
HETATM    1  N   UNL     1      41.616 -15.551   2.947  1.00  0.00    -0.041 N 
HETATM    2  H   UNL     1      41.298 -16.094   3.779  1.00  0.00     0.282 HD
ENDROOT
BRANCH   1   3
HETATM    3  C   UNL     1      40.408 -14.507   2.636  1.00  0.00     0.208 C 
HETATM    4  C   UNL     1      39.242 -15.316   2.007  1.00  0.00     0.049 C 
HETATM    5  C   UNL     1      38.219 -14.538   1.166  1.00  0.00     0.003 C 
HETATM    6  C   UNL     1      38.825 -13.440   0.305  1.00  0.00     0.000 C 
HETATM    7  C   UNL     1      39.765 -12.545   1.099  1.00  0.00     0.003 C 
HETATM    8  C   UNL     1      40.895 -13.380   1.702  1.00  0.00     0.049 C 
BRANCH   3   9
HETATM    9  C   UNL     1      40.055 -13.801   4.012  1.00  0.00     0.259 C 
HETATM   10  N   UNL     1      40.508 -12.515   4.197  1.00  0.00    -0.325 N 
HETATM   11  H   UNL     1      40.880 -12.008   3.409  1.00  0.00     0.169 HD
HETATM   12  O   UNL     1      39.436 -14.458   4.852  1.00  0.00    -0.270 OA
BRANCH  10  13
HETATM   13  C   UNL     1      40.575 -11.785   5.403  1.00  0.00     0.035 A 
HETATM   14  C   UNL     1      41.630 -11.856   6.310  1.00  0.00     0.032 A 
HETATM   15  C   UNL     1      41.642 -11.023   7.437  1.00  0.00     0.039 A 
HETATM   16  C   UNL     1      40.613 -10.110   7.670  1.00  0.00     0.068 A 
HETATM   17  C   UNL     1      39.543 -10.057   6.782  1.00  0.00     0.039 A 
HETATM   18  C   UNL     1      39.527 -10.888   5.655  1.00  0.00     0.032 A 
BRANCH  16  19
HETATM   19  O   UNL     1      40.764  -9.338   8.787  1.00  0.00    -0.356 OA
HETATM   20  C   UNL     1      41.918  -9.582   9.582  1.00  0.00     0.210 C 
ENDBRANCH  16  19
ENDBRANCH  10  13
ENDBRANCH   3   9
ENDBRANCH   1   3
BRANCH   1  21
HETATM   21  C   UNL     1      41.668 -16.636   1.875  1.00  0.00     0.318 C 
BRANCH  21  22
HETATM   22  S   UNL     1      43.309 -17.076   1.288  1.00  0.00    -0.064 SA
BRANCH  22  23
HETATM   23  C   UNL     1      43.671 -18.479   2.206  1.00  0.00     0.169 A 
HETATM   24  N   UNL     1      44.086 -18.502   3.446  1.00  0.00    -0.223 NA
HETATM   25  C   UNL     1      44.316 -19.841   3.700  1.00  0.00     0.086 A 
HETATM   26  C   UNL     1      44.053 -20.617   2.573  1.00  0.00     0.063 A 
HETATM   27  C   UNL     1      44.773 -20.468   4.868  1.00  0.00     0.034 A 
HETATM   28  N   UNL     1      43.632 -19.714   1.631  1.00  0.00    -0.333 N 
HETATM   29  C   UNL     1      44.226 -22.000   2.533  1.00  0.00     0.032 A 
HETATM   30  H   UNL     1      43.362 -19.922   0.681  1.00  0.00     0.168 HD
HETATM   31  C   UNL     1      44.689 -22.607   3.705  1.00  0.00     0.002 A 
HETATM   32  C   UNL     1      44.958 -21.858   4.853  1.00  0.00     0.002 A 
ENDBRANCH  22  23
ENDBRANCH  21  22
ENDBRANCH   1  21
BRANCH   1  33
HETATM   33  C   UNL     1      42.993 -14.993   3.266  1.00  0.00     0.275 C 
BRANCH  33  34
HETATM   34  C   UNL     1      43.447 -14.976   4.704  1.00  0.00    -0.033 A 
HETATM   35  C   UNL     1      44.265 -13.960   5.217  1.00  0.00     0.009 A 
HETATM   36  C   UNL     1      44.675 -13.982   6.551  1.00  0.00     0.001 A 
HETATM   37  C   UNL     1      44.259 -15.007   7.396  1.00  0.00     0.000 A 
HETATM   38  C   UNL     1      43.419 -16.006   6.913  1.00  0.00     0.001 A 
HETATM   39  C   UNL     1      43.005 -15.985   5.580  1.00  0.00     0.009 A 
ENDBRANCH  33  34
ENDBRANCH   1  33
TORSDOF 9
ENDMDL
