MODEL 1
REMARK VINA RESULT:      -8.4      0.000      0.000
REMARK  6 active torsions:
REMARK  status: ('A' for Active; 'I' for Inactive)
REMARK    1  A    between atoms: C_2  and  C_3 
REMARK    2  A    between atoms: C_2  and  C_9 
REMARK    3  A    between atoms: C_9  and  C_10 
REMARK    4  A    between atoms: C_10  and  C_11 
REMARK       I    between atoms: C_11  and  N_12 
REMARK    5  A    between atoms: N_12  and  C_13 
REMARK    6  A    between atoms: C_20  and  C_21 
REMARK       I    between atoms: C_21  and  N_22 
ROOT
HETATM    1  C   UNL     1      41.247 -15.039   4.248  1.00  0.00     0.035 A 
HETATM    2  C   UNL     1      41.709 -15.892   5.254  1.00  0.00     0.046 A 
HETATM    3  C   UNL     1      42.880 -15.567   5.976  1.00  0.00     0.030 A 
HETATM    4  C   UNL     1      43.560 -14.398   5.669  1.00  0.00     0.063 A 
HETATM    5  N   UNL     1      44.625 -14.363   6.526  1.00  0.00    -0.277 N 
HETATM    6  H   UNL     1      45.339 -13.646   6.590  1.00  0.00     0.189 HD
HETATM    7  N   UNL     1      44.703 -15.416   7.359  1.00  0.00    -0.168 NA
HETATM    8  C   UNL     1      43.631 -16.170   7.029  1.00  0.00     0.156 A 
HETATM    9  C   UNL     1      43.142 -13.523   4.666  1.00  0.00     0.034 A 
HETATM   10  C   UNL     1      41.979 -13.874   3.965  1.00  0.00     0.032 A 
ENDROOT
BRANCH   1  11
HETATM   11  N   UNL     1      40.095 -15.248   3.463  1.00  0.00    -0.327 N 
HETATM   12  C   UNL     1      39.862 -15.731   2.208  1.00  0.00     0.222 C 
HETATM   13  O   UNL     1      38.688 -15.757   1.826  1.00  0.00    -0.273 OA
HETATM   14  H   UNL     1      39.212 -15.025   3.909  1.00  0.00     0.169 HD
BRANCH  12  15
HETATM   15  C   UNL     1      40.991 -16.233   1.338  1.00  0.00     0.103 C 
BRANCH  15  16
HETATM   16  C   UNL     1      41.602 -17.566   1.785  1.00  0.00     0.018 C 
BRANCH  16  17
HETATM   17  C   UNL     1      43.123 -17.728   1.568  1.00  0.00     0.015 C 
HETATM   18  C   UNL     1      43.934 -16.481   1.942  1.00  0.00     0.015 C 
BRANCH  17  19
HETATM   19  C   UNL     1      43.624 -18.945   2.337  1.00  0.00    -0.054 A 
HETATM   20  C   UNL     1      43.703 -20.213   1.738  1.00  0.00     0.007 A 
HETATM   21  C   UNL     1      44.176 -21.314   2.455  1.00  0.00     0.001 A 
HETATM   22  C   UNL     1      44.578 -21.162   3.779  1.00  0.00     0.000 A 
HETATM   23  C   UNL     1      44.508 -19.910   4.387  1.00  0.00     0.001 A 
HETATM   24  C   UNL     1      44.037 -18.808   3.671  1.00  0.00     0.007 A 
ENDBRANCH  17  19
ENDBRANCH  16  17
ENDBRANCH  15  16
ENDBRANCH  12  15
ENDBRANCH   1  11
BRANCH   8  25
HETATM   25  C   UNL     1      43.340 -17.438   7.713  1.00  0.00     0.270 C 
HETATM   26  N   UNL     1      43.458 -17.382   9.074  1.00  0.00    -0.365 N 
HETATM   27  H   UNL     1      43.729 -16.506   9.503  1.00  0.00     0.159 HD
HETATM   28  H   UNL     1      43.282 -18.206   9.628  1.00  0.00     0.159 HD
HETATM   29  O   UNL     1      43.018 -18.474   7.141  1.00  0.00    -0.266 OA
ENDBRANCH   8  25
TORSDOF 6
ENDMDL
MODEL 2
REMARK VINA RESULT:      -8.2      1.537      2.311
REMARK  6 active torsions:
REMARK  status: ('A' for Active; 'I' for Inactive)
REMARK    1  A    between atoms: C_2  and  C_3 
REMARK    2  A    between atoms: C_2  and  C_9 
REMARK    3  A    between atoms: C_9  and  C_10 
REMARK    4  A    between atoms: C_10  and  C_11 
REMARK       I    between atoms: C_11  and  N_12 
REMARK    5  A    between atoms: N_12  and  C_13 
REMARK    6  A    between atoms: C_20  and  C_21 
REMARK       I    between atoms: C_21  and  N_22 
ROOT
HETATM    1  C   UNL     1      41.215 -16.381   4.492  1.00  0.00     0.035 A 
HETATM    2  C   UNL     1      42.144 -15.512   5.070  1.00  0.00     0.046 A 
HETATM    3  C   UNL     1      43.075 -15.997   6.017  1.00  0.00     0.030 A 
HETATM    4  C   UNL     1      43.047 -17.339   6.365  1.00  0.00     0.063 A 
HETATM    5  N   UNL     1      44.052 -17.496   7.280  1.00  0.00    -0.277 N 
HETATM    6  H   UNL     1      44.327 -18.352   7.749  1.00  0.00     0.189 HD
HETATM    7  N   UNL     1      44.726 -16.368   7.566  1.00  0.00    -0.168 NA
HETATM    8  C   UNL     1      44.131 -15.431   6.794  1.00  0.00     0.156 A 
HETATM    9  C   UNL     1      42.131 -18.240   5.823  1.00  0.00     0.034 A 
HETATM   10  C   UNL     1      41.218 -17.730   4.889  1.00  0.00     0.032 A 
ENDROOT
BRANCH   1  11
HETATM   11  N   UNL     1      40.243 -16.023   3.537  1.00  0.00    -0.327 N 
HETATM   12  C   UNL     1      40.205 -15.981   2.173  1.00  0.00     0.222 C 
HETATM   13  O   UNL     1      39.157 -15.586   1.654  1.00  0.00    -0.273 OA
HETATM   14  H   UNL     1      39.339 -15.753   3.909  1.00  0.00     0.169 HD
BRANCH  12  15
HETATM   15  C   UNL     1      41.387 -16.421   1.341  1.00  0.00     0.103 C 
BRANCH  15  16
HETATM   16  C   UNL     1      41.837 -17.866   1.581  1.00  0.00     0.018 C 
BRANCH  16  17
HETATM   17  C   UNL     1      43.331 -18.169   1.325  1.00  0.00     0.015 C 
HETATM   18  C   UNL     1      44.256 -16.979   1.608  1.00  0.00     0.015 C 
BRANCH  17  19
HETATM   19  C   UNL     1      43.755 -19.385   2.142  1.00  0.00    -0.054 A 
HETATM   20  C   UNL     1      43.580 -20.692   1.660  1.00  0.00     0.007 A 
HETATM   21  C   UNL     1      43.985 -21.793   2.418  1.00  0.00     0.001 A 
HETATM   22  C   UNL     1      44.572 -21.602   3.665  1.00  0.00     0.000 A 
HETATM   23  C   UNL     1      44.756 -20.311   4.156  1.00  0.00     0.001 A 
HETATM   24  C   UNL     1      44.352 -19.209   3.399  1.00  0.00     0.007 A 
ENDBRANCH  17  19
ENDBRANCH  16  17
ENDBRANCH  15  16
ENDBRANCH  12  15
ENDBRANCH   1  11
BRANCH   8  25
HETATM   25  C   UNL     1      44.571 -14.030   6.805  1.00  0.00     0.270 C 
HETATM   26  N   UNL     1      43.870 -13.228   7.663  1.00  0.00    -0.365 N 
HETATM   27  H   UNL     1      43.124 -13.637   8.211  1.00  0.00     0.159 HD
HETATM   28  H   UNL     1      44.099 -12.248   7.736  1.00  0.00     0.159 HD
HETATM   29  O   UNL     1      45.482 -13.585   6.115  1.00  0.00    -0.266 OA
ENDBRANCH   8  25
TORSDOF 6
ENDMDL
MODEL 3
REMARK VINA RESULT:      -8.2      2.137      5.146
REMARK  6 active torsions:
REMARK  status: ('A' for Active; 'I' for Inactive)
REMARK    1  A    between atoms: C_2  and  C_3 
REMARK    2  A    between atoms: C_2  and  C_9 
REMARK    3  A    between atoms: C_9  and  C_10 
REMARK    4  A    between atoms: C_10  and  C_11 
REMARK       I    between atoms: C_11  and  N_12 
REMARK    5  A    between atoms: N_12  and  C_13 
REMARK    6  A    between atoms: C_20  and  C_21 
REMARK       I    between atoms: C_21  and  N_22 
ROOT
HETATM    1  C   UNL     1      42.552 -14.162   4.987  1.00  0.00     0.035 A 
HETATM    2  C   UNL     1      42.597 -14.667   3.685  1.00  0.00     0.046 A 
HETATM    3  C   UNL     1      41.397 -14.948   2.992  1.00  0.00     0.030 A 
HETATM    4  C   UNL     1      40.184 -14.720   3.624  1.00  0.00     0.063 A 
HETATM    5  N   UNL     1      39.229 -15.078   2.712  1.00  0.00    -0.277 N 
HETATM    6  H   UNL     1      38.223 -15.039   2.829  1.00  0.00     0.189 HD
HETATM    7  N   UNL     1      39.717 -15.529   1.543  1.00  0.00    -0.168 NA
HETATM    8  C   UNL     1      41.058 -15.456   1.702  1.00  0.00     0.156 A 
HETATM    9  C   UNL     1      40.091 -14.228   4.925  1.00  0.00     0.034 A 
HETATM   10  C   UNL     1      41.298 -13.962   5.588  1.00  0.00     0.032 A 
ENDROOT
BRANCH   1  11
HETATM   11  N   UNL     1      43.673 -13.838   5.778  1.00  0.00    -0.327 N 
HETATM   12  C   UNL     1      44.348 -14.460   6.789  1.00  0.00     0.222 C 
HETATM   13  O   UNL     1      45.307 -13.855   7.277  1.00  0.00    -0.273 OA
HETATM   14  H   UNL     1      44.128 -12.959   5.558  1.00  0.00     0.169 HD
BRANCH  12  15
HETATM   15  C   UNL     1      43.950 -15.838   7.267  1.00  0.00     0.103 C 
BRANCH  15  16
HETATM   16  C   UNL     1      44.363 -16.984   6.337  1.00  0.00     0.018 C 
BRANCH  16  17
HETATM   17  C   UNL     1      43.315 -18.098   6.117  1.00  0.00     0.015 C 
HETATM   18  C   UNL     1      41.888 -17.570   5.929  1.00  0.00     0.015 C 
BRANCH  17  19
HETATM   19  C   UNL     1      43.729 -18.965   4.932  1.00  0.00    -0.054 A 
HETATM   20  C   UNL     1      43.234 -18.727   3.640  1.00  0.00     0.007 A 
HETATM   21  C   UNL     1      43.634 -19.525   2.565  1.00  0.00     0.001 A 
HETATM   22  C   UNL     1      44.532 -20.568   2.768  1.00  0.00     0.000 A 
HETATM   23  C   UNL     1      45.034 -20.814   4.044  1.00  0.00     0.001 A 
HETATM   24  C   UNL     1      44.637 -20.017   5.119  1.00  0.00     0.007 A 
ENDBRANCH  17  19
ENDBRANCH  16  17
ENDBRANCH  15  16
ENDBRANCH  12  15
ENDBRANCH   1  11
BRANCH   8  25
HETATM   25  C   UNL     1      41.984 -15.866   0.638  1.00  0.00     0.270 C 
HETATM   26  N   UNL     1      41.833 -15.178  -0.534  1.00  0.00    -0.365 N 
HETATM   27  H   UNL     1      41.120 -14.461  -0.589  1.00  0.00     0.159 HD
HETATM   28  H   UNL     1      42.422 -15.394  -1.323  1.00  0.00     0.159 HD
HETATM   29  O   UNL     1      42.830 -16.747   0.758  1.00  0.00    -0.266 OA
ENDBRANCH   8  25
TORSDOF 6
ENDMDL
MODEL 4
REMARK VINA RESULT:      -8.1      4.206      6.730
REMARK  6 active torsions:
REMARK  status: ('A' for Active; 'I' for Inactive)
REMARK    1  A    between atoms: C_2  and  C_3 
REMARK    2  A    between atoms: C_2  and  C_9 
REMARK    3  A    between atoms: C_9  and  C_10 
REMARK    4  A    between atoms: C_10  and  C_11 
REMARK       I    between atoms: C_11  and  N_12 
REMARK    5  A    between atoms: N_12  and  C_13 
REMARK    6  A    between atoms: C_20  and  C_21 
REMARK       I    between atoms: C_21  and  N_22 
ROOT
HETATM    1  C   UNL     1      40.982 -14.968  -0.760  1.00  0.00     0.035 A 
HETATM    2  C   UNL     1      41.503 -13.675  -0.660  1.00  0.00     0.046 A 
HETATM    3  C   UNL     1      41.892 -12.976  -1.824  1.00  0.00     0.030 A 
HETATM    4  C   UNL     1      41.753 -13.590  -3.059  1.00  0.00     0.063 A 
HETATM    5  N   UNL     1      42.201 -12.675  -3.972  1.00  0.00    -0.277 N 
HETATM    6  H   UNL     1      42.242 -12.782  -4.979  1.00  0.00     0.189 HD
HETATM    7  N   UNL     1      42.631 -11.519  -3.435  1.00  0.00    -0.168 NA
HETATM    8  C   UNL     1      42.447 -11.691  -2.107  1.00  0.00     0.156 A 
HETATM    9  C   UNL     1      41.248 -14.882  -3.207  1.00  0.00     0.034 A 
HETATM   10  C   UNL     1      40.874 -15.553  -2.033  1.00  0.00     0.032 A 
ENDROOT
BRANCH   1  11
HETATM   11  N   UNL     1      40.556 -15.765   0.322  1.00  0.00    -0.327 N 
HETATM   12  C   UNL     1      41.153 -16.692   1.126  1.00  0.00     0.222 C 
HETATM   13  O   UNL     1      40.448 -17.220   1.991  1.00  0.00    -0.273 OA
HETATM   14  H   UNL     1      39.596 -15.627   0.619  1.00  0.00     0.169 HD
BRANCH  12  15
HETATM   15  C   UNL     1      42.617 -17.035   0.976  1.00  0.00     0.103 C 
BRANCH  15  16
HETATM   16  C   UNL     1      43.009 -18.419   1.504  1.00  0.00     0.018 C 
BRANCH  16  17
HETATM   17  C   UNL     1      43.992 -18.443   2.697  1.00  0.00     0.015 C 
HETATM   18  C   UNL     1      43.531 -17.598   3.890  1.00  0.00     0.015 C 
BRANCH  17  19
HETATM   19  C   UNL     1      44.244 -19.885   3.125  1.00  0.00    -0.054 A 
HETATM   20  C   UNL     1      44.108 -20.954   2.225  1.00  0.00     0.007 A 
HETATM   21  C   UNL     1      44.355 -22.267   2.634  1.00  0.00     0.001 A 
HETATM   22  C   UNL     1      44.742 -22.528   3.945  1.00  0.00     0.000 A 
HETATM   23  C   UNL     1      44.884 -21.477   4.849  1.00  0.00     0.001 A 
HETATM   24  C   UNL     1      44.639 -20.164   4.442  1.00  0.00     0.007 A 
ENDBRANCH  17  19
ENDBRANCH  16  17
ENDBRANCH  15  16
ENDBRANCH  12  15
ENDBRANCH   1  11
BRANCH   8  25
HETATM   25  C   UNL     1      42.798 -10.644  -1.138  1.00  0.00     0.270 C 
HETATM   26  N   UNL     1      41.730  -9.931  -0.669  1.00  0.00    -0.365 N 
HETATM   27  H   UNL     1      40.804 -10.164  -1.008  1.00  0.00     0.159 HD
HETATM   28  H   UNL     1      41.874  -9.189  -0.003  1.00  0.00     0.159 HD
HETATM   29  O   UNL     1      43.941 -10.402  -0.764  1.00  0.00    -0.266 OA
ENDBRANCH   8  25
TORSDOF 6
ENDMDL
MODEL 5
REMARK VINA RESULT:      -8.0      3.074      5.701
REMARK  6 active torsions:
REMARK  status: ('A' for Active; 'I' for Inactive)
REMARK    1  A    between atoms: C_2  and  C_3 
REMARK    2  A    between atoms: C_2  and  C_9 
REMARK    3  A    between atoms: C_9  and  C_10 
REMARK    4  A    between atoms: C_10  and  C_11 
REMARK       I    between atoms: C_11  and  N_12 
REMARK    5  A    between atoms: N_12  and  C_13 
REMARK    6  A    between atoms: C_20  and  C_21 
REMARK       I    between atoms: C_21  and  N_22 
ROOT
HETATM    1  C   UNL     1      40.958 -15.416   1.985  1.00  0.00     0.035 A 
HETATM    2  C   UNL     1      41.297 -14.144   1.516  1.00  0.00     0.046 A 
HETATM    3  C   UNL     1      41.563 -13.942   0.143  1.00  0.00     0.030 A 
HETATM    4  C   UNL     1      41.488 -15.021  -0.725  1.00  0.00     0.063 A 
HETATM    5  N   UNL     1      41.788 -14.514  -1.959  1.00  0.00    -0.277 N 
HETATM    6  H   UNL     1      41.825 -15.018  -2.838  1.00  0.00     0.189 HD
HETATM    7  N   UNL     1      42.063 -13.197  -1.968  1.00  0.00    -0.168 NA
HETATM    8  C   UNL     1      41.930 -12.830  -0.673  1.00  0.00     0.156 A 
HETATM    9  C   UNL     1      41.164 -16.309  -0.300  1.00  0.00     0.034 A 
HETATM   10  C   UNL     1      40.908 -16.479   1.068  1.00  0.00     0.032 A 
ENDROOT
BRANCH   1  11
HETATM   11  N   UNL     1      40.666 -15.743   3.324  1.00  0.00    -0.327 N 
HETATM   12  C   UNL     1      41.414 -16.076   4.418  1.00  0.00     0.222 C 
HETATM   13  O   UNL     1      40.802 -16.325   5.460  1.00  0.00    -0.273 OA
HETATM   14  H   UNL     1      39.686 -15.710   3.583  1.00  0.00     0.169 HD
BRANCH  12  15
HETATM   15  C   UNL     1      42.923 -16.114   4.354  1.00  0.00     0.103 C 
BRANCH  15  16
HETATM   16  C   UNL     1      43.524 -17.516   4.202  1.00  0.00     0.018 C 
BRANCH  16  17
HETATM   17  C   UNL     1      43.442 -18.146   2.793  1.00  0.00     0.015 C 
HETATM   18  C   UNL     1      44.299 -17.424   1.746  1.00  0.00     0.015 C 
BRANCH  17  19
HETATM   19  C   UNL     1      43.817 -19.622   2.869  1.00  0.00    -0.054 A 
HETATM   20  C   UNL     1      43.529 -20.509   1.818  1.00  0.00     0.007 A 
HETATM   21  C   UNL     1      43.891 -21.855   1.901  1.00  0.00     0.001 A 
HETATM   22  C   UNL     1      44.545 -22.332   3.033  1.00  0.00     0.000 A 
HETATM   23  C   UNL     1      44.841 -21.464   4.082  1.00  0.00     0.001 A 
HETATM   24  C   UNL     1      44.481 -20.118   4.000  1.00  0.00     0.007 A 
ENDBRANCH  17  19
ENDBRANCH  16  17
ENDBRANCH  15  16
ENDBRANCH  12  15
ENDBRANCH   1  11
BRANCH   8  25
HETATM   25  C   UNL     1      42.151 -11.444  -0.238  1.00  0.00     0.270 C 
HETATM   26  N   UNL     1      41.007 -10.767   0.081  1.00  0.00    -0.365 N 
HETATM   27  H   UNL     1      40.119 -11.247  -0.001  1.00  0.00     0.159 HD
HETATM   28  H   UNL     1      41.059  -9.807   0.386  1.00  0.00     0.159 HD
HETATM   29  O   UNL     1      43.253 -10.911  -0.161  1.00  0.00    -0.266 OA
ENDBRANCH   8  25
TORSDOF 6
ENDMDL
MODEL 6
REMARK VINA RESULT:      -8.0      2.309      5.006
REMARK  6 active torsions:
REMARK  status: ('A' for Active; 'I' for Inactive)
REMARK    1  A    between atoms: C_2  and  C_3 
REMARK    2  A    between atoms: C_2  and  C_9 
REMARK    3  A    between atoms: C_9  and  C_10 
REMARK    4  A    between atoms: C_10  and  C_11 
REMARK       I    between atoms: C_11  and  N_12 
REMARK    5  A    between atoms: N_12  and  C_13 
REMARK    6  A    between atoms: C_20  and  C_21 
REMARK       I    between atoms: C_21  and  N_22 
ROOT
HETATM    1  C   UNL     1      44.380 -19.891   5.372  1.00  0.00     0.035 A 
HETATM    2  C   UNL     1      44.356 -18.505   5.545  1.00  0.00     0.046 A 
HETATM    3  C   UNL     1      44.065 -17.954   6.814  1.00  0.00     0.030 A 
HETATM    4  C   UNL     1      43.801 -18.806   7.875  1.00  0.00     0.063 A 
HETATM    5  N   UNL     1      43.566 -17.987   8.946  1.00  0.00    -0.277 N 
HETATM    6  H   UNL     1      43.344 -18.266   9.895  1.00  0.00     0.189 HD
HETATM    7  N   UNL     1      43.644 -16.674   8.670  1.00  0.00    -0.168 NA
HETATM    8  C   UNL     1      43.950 -16.637   7.353  1.00  0.00     0.156 A 
HETATM    9  C   UNL     1      43.803 -20.194   7.747  1.00  0.00     0.034 A 
HETATM   10  C   UNL     1      44.092 -20.712   6.476  1.00  0.00     0.032 A 
ENDROOT
BRANCH   1  11
HETATM   11  N   UNL     1      44.660 -20.561   4.164  1.00  0.00    -0.327 N 
HETATM   12  C   UNL     1      44.546 -20.244   2.841  1.00  0.00     0.222 C 
HETATM   13  O   UNL     1      44.881 -21.110   2.027  1.00  0.00    -0.273 OA
HETATM   14  H   UNL     1      45.067 -21.485   4.257  1.00  0.00     0.169 HD
BRANCH  12  15
HETATM   15  C   UNL     1      44.054 -18.886   2.399  1.00  0.00     0.103 C 
BRANCH  15  16
HETATM   16  C   UNL     1      42.529 -18.739   2.353  1.00  0.00     0.018 C 
BRANCH  16  17
HETATM   17  C   UNL     1      41.985 -17.308   2.146  1.00  0.00     0.015 C 
HETATM   18  C   UNL     1      40.934 -17.205   1.034  1.00  0.00     0.015 C 
BRANCH  17  19
HETATM   19  C   UNL     1      41.429 -16.774   3.462  1.00  0.00    -0.054 A 
HETATM   20  C   UNL     1      41.256 -17.608   4.579  1.00  0.00     0.007 A 
HETATM   21  C   UNL     1      40.757 -17.098   5.780  1.00  0.00     0.001 A 
HETATM   22  C   UNL     1      40.425 -15.750   5.880  1.00  0.00     0.000 A 
HETATM   23  C   UNL     1      40.594 -14.910   4.781  1.00  0.00     0.001 A 
HETATM   24  C   UNL     1      41.095 -15.417   3.581  1.00  0.00     0.007 A 
ENDBRANCH  17  19
ENDBRANCH  16  17
ENDBRANCH  15  16
ENDBRANCH  12  15
ENDBRANCH   1  11
BRANCH   8  25
HETATM   25  C   UNL     1      44.127 -15.367   6.637  1.00  0.00     0.270 C 
HETATM   26  N   UNL     1      44.444 -14.308   7.442  1.00  0.00    -0.365 N 
HETATM   27  H   UNL     1      44.532 -14.464   8.439  1.00  0.00     0.159 HD
HETATM   28  H   UNL     1      44.580 -13.393   7.040  1.00  0.00     0.159 HD
HETATM   29  O   UNL     1      44.005 -15.233   5.424  1.00  0.00    -0.266 OA
ENDBRANCH   8  25
TORSDOF 6
ENDMDL
MODEL 7
REMARK VINA RESULT:      -8.0      3.427      6.403
REMARK  6 active torsions:
REMARK  status: ('A' for Active; 'I' for Inactive)
REMARK    1  A    between atoms: C_2  and  C_3 
REMARK    2  A    between atoms: C_2  and  C_9 
REMARK    3  A    between atoms: C_9  and  C_10 
REMARK    4  A    between atoms: C_10  and  C_11 
REMARK       I    between atoms: C_11  and  N_12 
REMARK    5  A    between atoms: N_12  and  C_13 
REMARK    6  A    between atoms: C_20  and  C_21 
REMARK       I    between atoms: C_21  and  N_22 
ROOT
HETATM    1  C   UNL     1      41.487 -13.551   1.560  1.00  0.00     0.035 A 
HETATM    2  C   UNL     1      41.654 -13.768   0.190  1.00  0.00     0.046 A 
HETATM    3  C   UNL     1      40.529 -13.997  -0.634  1.00  0.00     0.030 A 
HETATM    4  C   UNL     1      39.266 -14.008  -0.063  1.00  0.00     0.063 A 
HETATM    5  N   UNL     1      38.403 -14.245  -1.098  1.00  0.00    -0.277 N 
HETATM    6  H   UNL     1      37.393 -14.316  -1.051  1.00  0.00     0.189 HD
HETATM    7  N   UNL     1      38.998 -14.400  -2.294  1.00  0.00    -0.168 NA
HETATM    8  C   UNL     1      40.314 -14.251  -2.022  1.00  0.00     0.156 A 
HETATM    9  C   UNL     1      39.052 -13.809   1.301  1.00  0.00     0.034 A 
HETATM   10  C   UNL     1      40.188 -13.587   2.093  1.00  0.00     0.032 A 
ENDROOT
BRANCH   1  11
HETATM   11  N   UNL     1      42.525 -13.308   2.483  1.00  0.00    -0.327 N 
HETATM   12  C   UNL     1      43.463 -14.084   3.102  1.00  0.00     0.222 C 
HETATM   13  O   UNL     1      44.227 -13.519   3.889  1.00  0.00    -0.273 OA
HETATM   14  H   UNL     1      42.654 -12.340   2.755  1.00  0.00     0.169 HD
BRANCH  12  15
HETATM   15  C   UNL     1      43.571 -15.564   2.814  1.00  0.00     0.103 C 
BRANCH  15  16
HETATM   16  C   UNL     1      42.594 -16.444   3.601  1.00  0.00     0.018 C 
BRANCH  16  17
HETATM   17  C   UNL     1      41.973 -17.632   2.833  1.00  0.00     0.015 C 
HETATM   18  C   UNL     1      41.633 -17.310   1.373  1.00  0.00     0.015 C 
BRANCH  17  19
HETATM   19  C   UNL     1      42.902 -18.838   2.915  1.00  0.00    -0.054 A 
HETATM   20  C   UNL     1      42.978 -19.780   1.876  1.00  0.00     0.007 A 
HETATM   21  C   UNL     1      43.845 -20.872   1.964  1.00  0.00     0.001 A 
HETATM   22  C   UNL     1      44.646 -21.037   3.090  1.00  0.00     0.000 A 
HETATM   23  C   UNL     1      44.584 -20.109   4.128  1.00  0.00     0.001 A 
HETATM   24  C   UNL     1      43.720 -19.016   4.041  1.00  0.00     0.007 A 
ENDBRANCH  17  19
ENDBRANCH  16  17
ENDBRANCH  15  16
ENDBRANCH  12  15
ENDBRANCH   1  11
BRANCH   8  25
HETATM   25  C   UNL     1      41.335 -14.350  -3.074  1.00  0.00     0.270 C 
HETATM   26  N   UNL     1      41.935 -13.162  -3.388  1.00  0.00    -0.365 N 
HETATM   27  H   UNL     1      41.648 -12.326  -2.894  1.00  0.00     0.159 HD
HETATM   28  H   UNL     1      42.646 -13.132  -4.103  1.00  0.00     0.159 HD
HETATM   29  O   UNL     1      41.643 -15.392  -3.643  1.00  0.00    -0.266 OA
ENDBRANCH   8  25
TORSDOF 6
ENDMDL
MODEL 8
REMARK VINA RESULT:      -7.7      2.624      5.531
REMARK  6 active torsions:
REMARK  status: ('A' for Active; 'I' for Inactive)
REMARK    1  A    between atoms: C_2  and  C_3 
REMARK    2  A    between atoms: C_2  and  C_9 
REMARK    3  A    between atoms: C_9  and  C_10 
REMARK    4  A    between atoms: C_10  and  C_11 
REMARK       I    between atoms: C_11  and  N_12 
REMARK    5  A    between atoms: N_12  and  C_13 
REMARK    6  A    between atoms: C_20  and  C_21 
REMARK       I    between atoms: C_21  and  N_22 
ROOT
HETATM    1  C   UNL     1      40.896 -16.192   2.920  1.00  0.00     0.035 A 
HETATM    2  C   UNL     1      40.902 -14.881   2.438  1.00  0.00     0.046 A 
HETATM    3  C   UNL     1      41.182 -14.626   1.076  1.00  0.00     0.030 A 
HETATM    4  C   UNL     1      41.454 -15.693   0.233  1.00  0.00     0.063 A 
HETATM    5  N   UNL     1      41.675 -15.134  -0.996  1.00  0.00    -0.277 N 
HETATM    6  H   UNL     1      41.899 -15.617  -1.859  1.00  0.00     0.189 HD
HETATM    7  N   UNL     1      41.581 -13.793  -1.023  1.00  0.00    -0.168 NA
HETATM    8  C   UNL     1      41.278 -13.464   0.253  1.00  0.00     0.156 A 
HETATM    9  C   UNL     1      41.470 -17.017   0.671  1.00  0.00     0.034 A 
HETATM   10  C   UNL     1      41.192 -17.237   2.028  1.00  0.00     0.032 A 
ENDROOT
BRANCH   1  11
HETATM   11  N   UNL     1      40.628 -16.575   4.249  1.00  0.00    -0.327 N 
HETATM   12  C   UNL     1      41.394 -16.817   5.353  1.00  0.00     0.222 C 
HETATM   13  O   UNL     1      40.804 -17.161   6.381  1.00  0.00    -0.273 OA
HETATM   14  H   UNL     1      39.648 -16.679   4.489  1.00  0.00     0.169 HD
BRANCH  12  15
HETATM   15  C   UNL     1      42.896 -16.648   5.319  1.00  0.00     0.103 C 
BRANCH  15  16
HETATM   16  C   UNL     1      43.630 -17.621   4.390  1.00  0.00     0.018 C 
BRANCH  16  17
HETATM   17  C   UNL     1      44.580 -18.631   5.071  1.00  0.00     0.015 C 
HETATM   18  C   UNL     1      44.283 -18.846   6.560  1.00  0.00     0.015 C 
BRANCH  17  19
HETATM   19  C   UNL     1      44.545 -19.957   4.319  1.00  0.00    -0.054 A 
HETATM   20  C   UNL     1      44.800 -21.177   4.967  1.00  0.00     0.007 A 
HETATM   21  C   UNL     1      44.751 -22.382   4.263  1.00  0.00     0.001 A 
HETATM   22  C   UNL     1      44.446 -22.385   2.905  1.00  0.00     0.000 A 
HETATM   23  C   UNL     1      44.188 -21.183   2.249  1.00  0.00     0.001 A 
HETATM   24  C   UNL     1      44.235 -19.977   2.951  1.00  0.00     0.007 A 
ENDBRANCH  17  19
ENDBRANCH  16  17
ENDBRANCH  15  16
ENDBRANCH  12  15
ENDBRANCH   1  11
BRANCH   8  25
HETATM   25  C   UNL     1      41.086 -12.067   0.665  1.00  0.00     0.270 C 
HETATM   26  N   UNL     1      42.242 -11.414   0.992  1.00  0.00    -0.365 N 
HETATM   27  H   UNL     1      43.118 -11.917   0.932  1.00  0.00     0.159 HD
HETATM   28  H   UNL     1      42.208 -10.452   1.291  1.00  0.00     0.159 HD
HETATM   29  O   UNL     1      39.996 -11.506   0.723  1.00  0.00    -0.266 OA
ENDBRANCH   8  25
TORSDOF 6
ENDMDL
MODEL 9
REMARK VINA RESULT:      -7.5      2.607      3.809
REMARK  6 active torsions:
REMARK  status: ('A' for Active; 'I' for Inactive)
REMARK    1  A    between atoms: C_2  and  C_3 
REMARK    2  A    between atoms: C_2  and  C_9 
REMARK    3  A    between atoms: C_9  and  C_10 
REMARK    4  A    between atoms: C_10  and  C_11 
REMARK       I    between atoms: C_11  and  N_12 
REMARK    5  A    between atoms: N_12  and  C_13 
REMARK    6  A    between atoms: C_20  and  C_21 
REMARK       I    between atoms: C_21  and  N_22 
ROOT
HETATM    1  C   UNL     1      41.795 -14.439   2.437  1.00  0.00     0.035 A 
HETATM    2  C   UNL     1      40.939 -13.915   3.409  1.00  0.00     0.046 A 
HETATM    3  C   UNL     1      41.457 -13.481   4.650  1.00  0.00     0.030 A 
HETATM    4  C   UNL     1      42.818 -13.587   4.888  1.00  0.00     0.063 A 
HETATM    5  N   UNL     1      43.006 -13.090   6.149  1.00  0.00    -0.277 N 
HETATM    6  H   UNL     1      43.881 -13.007   6.653  1.00  0.00     0.189 HD
HETATM    7  N   UNL     1      41.879 -12.679   6.757  1.00  0.00    -0.168 NA
HETATM    8  C   UNL     1      40.912 -12.916   5.843  1.00  0.00     0.156 A 
HETATM    9  C   UNL     1      43.709 -14.113   3.952  1.00  0.00     0.034 A 
HETATM   10  C   UNL     1      43.166 -14.539   2.732  1.00  0.00     0.032 A 
ENDROOT
BRANCH   1  11
HETATM   11  N   UNL     1      41.404 -14.900   1.164  1.00  0.00    -0.327 N 
HETATM   12  C   UNL     1      41.708 -15.991   0.401  1.00  0.00     0.222 C 
HETATM   13  O   UNL     1      41.173 -16.065  -0.709  1.00  0.00    -0.273 OA
HETATM   14  H   UNL     1      40.718 -14.330   0.681  1.00  0.00     0.169 HD
BRANCH  12  15
HETATM   15  C   UNL     1      42.638 -17.068   0.908  1.00  0.00     0.103 C 
BRANCH  15  16
HETATM   16  C   UNL     1      41.966 -18.142   1.771  1.00  0.00     0.018 C 
BRANCH  16  17
HETATM   17  C   UNL     1      42.846 -18.790   2.865  1.00  0.00     0.015 C 
HETATM   18  C   UNL     1      44.331 -18.870   2.491  1.00  0.00     0.015 C 
BRANCH  17  19
HETATM   19  C   UNL     1      42.663 -18.041   4.181  1.00  0.00    -0.054 A 
HETATM   20  C   UNL     1      41.394 -17.633   4.624  1.00  0.00     0.007 A 
HETATM   21  C   UNL     1      41.245 -16.959   5.839  1.00  0.00     0.001 A 
HETATM   22  C   UNL     1      42.361 -16.684   6.624  1.00  0.00     0.000 A 
HETATM   23  C   UNL     1      43.626 -17.086   6.199  1.00  0.00     0.001 A 
HETATM   24  C   UNL     1      43.776 -17.761   4.986  1.00  0.00     0.007 A 
ENDBRANCH  17  19
ENDBRANCH  16  17
ENDBRANCH  15  16
ENDBRANCH  12  15
ENDBRANCH   1  11
BRANCH   8  25
HETATM   25  C   UNL     1      39.502 -12.606   6.114  1.00  0.00     0.270 C 
HETATM   26  N   UNL     1      39.096 -12.901   7.386  1.00  0.00    -0.365 N 
HETATM   27  H   UNL     1      39.768 -13.298   8.031  1.00  0.00     0.159 HD
HETATM   28  H   UNL     1      38.142 -12.726   7.663  1.00  0.00     0.159 HD
HETATM   29  O   UNL     1      38.728 -12.126   5.291  1.00  0.00    -0.266 OA
ENDBRANCH   8  25
TORSDOF 6
ENDMDL
MODEL 10
REMARK VINA RESULT:      -7.5      2.386      5.079
REMARK  6 active torsions:
REMARK  status: ('A' for Active; 'I' for Inactive)
REMARK    1  A    between atoms: C_2  and  C_3 
REMARK    2  A    between atoms: C_2  and  C_9 
REMARK    3  A    between atoms: C_9  and  C_10 
REMARK    4  A    between atoms: C_10  and  C_11 
REMARK       I    between atoms: C_11  and  N_12 
REMARK    5  A    between atoms: N_12  and  C_13 
REMARK    6  A    between atoms: C_20  and  C_21 
REMARK       I    between atoms: C_21  and  N_22 
ROOT
HETATM    1  C   UNL     1      40.767 -14.624   3.997  1.00  0.00     0.035 A 
HETATM    2  C   UNL     1      40.599 -14.759   2.616  1.00  0.00     0.046 A 
HETATM    3  C   UNL     1      41.057 -13.746   1.744  1.00  0.00     0.030 A 
HETATM    4  C   UNL     1      41.667 -12.621   2.277  1.00  0.00     0.063 A 
HETATM    5  N   UNL     1      41.996 -11.843   1.201  1.00  0.00    -0.277 N 
HETATM    6  H   UNL     1      42.462 -10.943   1.213  1.00  0.00     0.189 HD
HETATM    7  N   UNL     1      41.643 -12.361   0.011  1.00  0.00    -0.168 NA
HETATM    8  C   UNL     1      41.059 -13.538   0.331  1.00  0.00     0.156 A 
HETATM    9  C   UNL     1      41.845 -12.437   3.648  1.00  0.00     0.034 A 
HETATM   10  C   UNL     1      41.378 -13.458   4.489  1.00  0.00     0.032 A 
ENDROOT
BRANCH   1  11
HETATM   11  N   UNL     1      40.359 -15.562   4.966  1.00  0.00    -0.327 N 
HETATM   12  C   UNL     1      41.008 -16.364   5.861  1.00  0.00     0.222 C 
HETATM   13  O   UNL     1      40.309 -17.096   6.567  1.00  0.00    -0.273 OA
HETATM   14  H   UNL     1      39.358 -15.677   5.074  1.00  0.00     0.169 HD
BRANCH  12  15
HETATM   15  C   UNL     1      42.514 -16.334   5.993  1.00  0.00     0.103 C 
BRANCH  15  16
HETATM   16  C   UNL     1      43.237 -17.523   5.352  1.00  0.00     0.018 C 
BRANCH  16  17
HETATM   17  C   UNL     1      43.013 -17.723   3.836  1.00  0.00     0.015 C 
HETATM   18  C   UNL     1      43.649 -16.627   2.971  1.00  0.00     0.015 C 
BRANCH  17  19
HETATM   19  C   UNL     1      43.522 -19.099   3.419  1.00  0.00    -0.054 A 
HETATM   20  C   UNL     1      44.351 -19.861   4.257  1.00  0.00     0.007 A 
HETATM   21  C   UNL     1      44.797 -21.125   3.863  1.00  0.00     0.001 A 
HETATM   22  C   UNL     1      44.419 -21.643   2.627  1.00  0.00     0.000 A 
HETATM   23  C   UNL     1      43.594 -20.900   1.786  1.00  0.00     0.001 A 
HETATM   24  C   UNL     1      43.146 -19.637   2.180  1.00  0.00     0.007 A 
ENDBRANCH  17  19
ENDBRANCH  16  17
ENDBRANCH  15  16
ENDBRANCH  12  15
ENDBRANCH   1  11
BRANCH   8  25
HETATM   25  C   UNL     1      40.519 -14.436  -0.698  1.00  0.00     0.270 C 
HETATM   26  N   UNL     1      39.157 -14.400  -0.816  1.00  0.00    -0.365 N 
HETATM   27  H   UNL     1      38.632 -13.782  -0.210  1.00  0.00     0.159 HD
HETATM   28  H   UNL     1      38.696 -14.986  -1.495  1.00  0.00     0.159 HD
HETATM   29  O   UNL     1      41.203 -15.169  -1.405  1.00  0.00    -0.266 OA
ENDBRANCH   8  25
TORSDOF 6
ENDMDL
