MODEL 1
REMARK VINA RESULT:      -8.3      0.000      0.000
REMARK  5 active torsions:
REMARK  status: ('A' for Active; 'I' for Inactive)
REMARK    1  A    between atoms: C_2  and  C_3 
REMARK    2  A    between atoms: C_3  and  C_4 
REMARK    3  A    between atoms: C_3  and  C_29 
REMARK       I    between atoms: C_4  and  N_5 
REMARK    4  A    between atoms: N_5  and  C_6 
REMARK    5  A    between atoms: C_18  and  C_19 
ROOT
HETATM    1  C   UNL     1      41.411 -12.428   2.853  1.00  0.00     0.088 C 
HETATM    2  C   UNL     1      42.381 -12.597   4.008  1.00  0.00     0.060 C 
HETATM    3  C   UNL     1      42.574 -14.049   4.491  1.00  0.00     0.181 C 
HETATM    4  N   UNL     1      41.414 -14.941   4.344  1.00  0.00    -0.334 N 
HETATM    5  C   UNL     1      41.543 -16.329   4.486  1.00  0.00     0.256 C 
HETATM    6  O   UNL     1      40.645 -17.099   4.135  1.00  0.00    -0.267 OA
HETATM    7  C   UNL     1      42.787 -16.948   5.010  1.00  0.00     0.059 A 
HETATM    8  C   UNL     1      43.574 -16.420   6.034  1.00  0.00     0.050 A 
HETATM    9  N   UNL     1      43.436 -15.144   6.585  1.00  0.00    -0.324 N 
HETATM   10  C   UNL     1      43.000 -14.003   5.977  1.00  0.00     0.245 C 
HETATM   11  O   UNL     1      43.107 -12.956   6.621  1.00  0.00    -0.271 OA
HETATM   12  C   UNL     1      43.080 -18.236   4.513  1.00  0.00     0.031 A 
HETATM   13  C   UNL     1      44.135 -18.999   5.026  1.00  0.00    -0.024 A 
HETATM   14  C   UNL     1      44.879 -18.482   6.086  1.00  0.00     0.014 A 
HETATM   15  C   UNL     1      44.593 -17.211   6.591  1.00  0.00     0.031 A 
HETATM   16  C   UNL     1      40.280 -14.557   3.497  1.00  0.00     0.129 C 
HETATM   17  C   UNL     1      40.093 -13.075   3.248  1.00  0.00     0.045 C 
HETATM   18  H   UNL     1      43.882 -14.949   7.474  1.00  0.00     0.169 HD
ENDROOT
BRANCH   1  19
HETATM   19  N   UNL     1      41.945 -12.941   1.598  1.00  0.00    -0.356 N 
HETATM   20  C   UNL     1      41.628 -12.347   0.394  1.00  0.00     0.222 C 
HETATM   21  O   UNL     1      40.951 -11.327   0.310  1.00  0.00    -0.273 OA
HETATM   22  H   UNL     1      42.337 -13.872   1.578  1.00  0.00     0.162 HD
BRANCH  20  23
HETATM   23  C   UNL     1      42.175 -13.045  -0.853  1.00  0.00     0.077 C 
BRANCH  23  24
HETATM   24  C   UNL     1      42.839 -12.046  -1.817  1.00  0.00     0.009 C 
HETATM   25  C   UNL     1      42.442 -12.275  -3.270  1.00  0.00     0.006 C 
ENDBRANCH  23  24
BRANCH  23  26
HETATM   26  C   UNL     1      41.081 -13.849  -1.579  1.00  0.00     0.009 C 
HETATM   27  C   UNL     1      41.027 -15.304  -1.132  1.00  0.00     0.006 C 
ENDBRANCH  23  26
ENDBRANCH  20  23
ENDBRANCH   1  19
BRANCH  13  28
HETATM   28  C   UNL     1      44.421 -20.318   4.468  1.00  0.00    -0.019 A 
HETATM   29  C   UNL     1      44.386 -20.563   3.107  1.00  0.00     0.061 A 
HETATM   30  S   UNL     1      44.728 -22.195   2.719  1.00  0.00    -0.113 SA
HETATM   31  C   UNL     1      44.917 -22.603   4.367  1.00  0.00     0.050 A 
HETATM   32  C   UNL     1      44.727 -21.517   5.193  1.00  0.00     0.020 A 
ENDBRANCH  13  28
TORSDOF 5
ENDMDL
MODEL 2
REMARK VINA RESULT:      -8.2      1.848      2.411
REMARK  5 active torsions:
REMARK  status: ('A' for Active; 'I' for Inactive)
REMARK    1  A    between atoms: C_2  and  C_3 
REMARK    2  A    between atoms: C_3  and  C_4 
REMARK    3  A    between atoms: C_3  and  C_29 
REMARK       I    between atoms: C_4  and  N_5 
REMARK    4  A    between atoms: N_5  and  C_6 
REMARK    5  A    between atoms: C_18  and  C_19 
ROOT
HETATM    1  C   UNL     1      39.791 -11.775   1.781  1.00  0.00     0.088 C 
HETATM    2  C   UNL     1      39.965 -12.009   3.270  1.00  0.00     0.060 C 
HETATM    3  C   UNL     1      40.277 -13.465   3.671  1.00  0.00     0.181 C 
HETATM    4  N   UNL     1      39.713 -14.511   2.804  1.00  0.00    -0.334 N 
HETATM    5  C   UNL     1      40.144 -15.841   2.897  1.00  0.00     0.256 C 
HETATM    6  O   UNL     1      39.861 -16.672   2.030  1.00  0.00    -0.267 OA
HETATM    7  C   UNL     1      41.011 -16.305   4.010  1.00  0.00     0.059 A 
HETATM    8  C   UNL     1      40.909 -15.881   5.335  1.00  0.00     0.050 A 
HETATM    9  N   UNL     1      40.123 -14.817   5.786  1.00  0.00    -0.324 N 
HETATM   10  C   UNL     1      39.781 -13.677   5.120  1.00  0.00     0.245 C 
HETATM   11  O   UNL     1      39.203 -12.805   5.775  1.00  0.00    -0.271 OA
HETATM   12  C   UNL     1      41.892 -17.361   3.693  1.00  0.00     0.031 A 
HETATM   13  C   UNL     1      42.660 -17.998   4.674  1.00  0.00    -0.024 A 
HETATM   14  C   UNL     1      42.508 -17.600   6.002  1.00  0.00     0.014 A 
HETATM   15  C   UNL     1      41.633 -16.561   6.328  1.00  0.00     0.031 A 
HETATM   16  C   UNL     1      39.178 -14.175   1.481  1.00  0.00     0.129 C 
HETATM   17  C   UNL     1      38.733 -12.743   1.274  1.00  0.00     0.045 C 
HETATM   18  H   UNL     1      39.927 -14.747   6.778  1.00  0.00     0.169 HD
ENDROOT
BRANCH   1  19
HETATM   19  N   UNL     1      41.049 -11.872   1.052  1.00  0.00    -0.356 N 
HETATM   20  C   UNL     1      41.266 -11.133  -0.094  1.00  0.00     0.222 C 
HETATM   21  O   UNL     1      40.461 -10.312  -0.522  1.00  0.00    -0.273 OA
HETATM   22  H   UNL     1      41.659 -12.656   1.233  1.00  0.00     0.162 HD
BRANCH  20  23
HETATM   23  C   UNL     1      42.588 -11.404  -0.815  1.00  0.00     0.077 C 
BRANCH  23  24
HETATM   24  C   UNL     1      42.975 -10.241  -1.744  1.00  0.00     0.009 C 
HETATM   25  C   UNL     1      44.019  -9.317  -1.130  1.00  0.00     0.006 C 
ENDBRANCH  23  24
BRANCH  23  26
HETATM   26  C   UNL     1      42.546 -12.729  -1.599  1.00  0.00     0.009 C 
HETATM   27  C   UNL     1      42.477 -12.517  -3.106  1.00  0.00     0.006 C 
ENDBRANCH  23  26
ENDBRANCH  20  23
ENDBRANCH   1  19
BRANCH  13  28
HETATM   28  C   UNL     1      43.578 -19.070   4.302  1.00  0.00    -0.019 A 
HETATM   29  C   UNL     1      43.678 -19.533   3.003  1.00  0.00     0.061 A 
HETATM   30  S   UNL     1      44.802 -20.815   2.842  1.00  0.00    -0.113 SA
HETATM   31  C   UNL     1      45.163 -20.779   4.511  1.00  0.00     0.050 A 
HETATM   32  C   UNL     1      44.445 -19.809   5.174  1.00  0.00     0.020 A 
ENDBRANCH  13  28
TORSDOF 5
ENDMDL
MODEL 3
REMARK VINA RESULT:      -8.1      2.771      7.587
REMARK  5 active torsions:
REMARK  status: ('A' for Active; 'I' for Inactive)
REMARK    1  A    between atoms: C_2  and  C_3 
REMARK    2  A    between atoms: C_3  and  C_4 
REMARK    3  A    between atoms: C_3  and  C_29 
REMARK       I    between atoms: C_4  and  N_5 
REMARK    4  A    between atoms: N_5  and  C_6 
REMARK    5  A    between atoms: C_18  and  C_19 
ROOT
HETATM    1  C   UNL     1      43.625 -17.262   6.542  1.00  0.00     0.088 C 
HETATM    2  C   UNL     1      42.142 -17.014   6.338  1.00  0.00     0.060 C 
HETATM    3  C   UNL     1      41.789 -16.122   5.130  1.00  0.00     0.181 C 
HETATM    4  N   UNL     1      42.782 -15.098   4.769  1.00  0.00    -0.334 N 
HETATM    5  C   UNL     1      42.710 -14.418   3.545  1.00  0.00     0.256 C 
HETATM    6  O   UNL     1      43.654 -13.741   3.129  1.00  0.00    -0.267 OA
HETATM    7  C   UNL     1      41.523 -14.525   2.660  1.00  0.00     0.059 A 
HETATM    8  C   UNL     1      40.200 -14.587   3.100  1.00  0.00     0.050 A 
HETATM    9  N   UNL     1      39.795 -14.762   4.425  1.00  0.00    -0.324 N 
HETATM   10  C   UNL     1      40.433 -15.440   5.422  1.00  0.00     0.245 C 
HETATM   11  O   UNL     1      39.810 -15.590   6.477  1.00  0.00    -0.271 OA
HETATM   12  C   UNL     1      41.782 -14.404   1.278  1.00  0.00     0.031 A 
HETATM   13  C   UNL     1      40.748 -14.336   0.339  1.00  0.00    -0.024 A 
HETATM   14  C   UNL     1      39.430 -14.344   0.797  1.00  0.00     0.014 A 
HETATM   15  C   UNL     1      39.162 -14.457   2.163  1.00  0.00     0.031 A 
HETATM   16  C   UNL     1      44.142 -15.152   5.313  1.00  0.00     0.129 C 
HETATM   17  C   UNL     1      44.322 -15.911   6.611  1.00  0.00     0.045 C 
HETATM   18  H   UNL     1      38.835 -14.547   4.671  1.00  0.00     0.169 HD
ENDROOT
BRANCH   1  19
HETATM   19  N   UNL     1      44.188 -18.143   5.528  1.00  0.00    -0.356 N 
HETATM   20  C   UNL     1      44.134 -19.514   5.666  1.00  0.00     0.222 C 
HETATM   21  O   UNL     1      43.557 -20.070   6.596  1.00  0.00    -0.273 OA
HETATM   22  H   UNL     1      44.836 -17.760   4.853  1.00  0.00     0.162 HD
BRANCH  20  23
HETATM   23  C   UNL     1      44.849 -20.318   4.579  1.00  0.00     0.077 C 
BRANCH  23  24
HETATM   24  C   UNL     1      44.060 -20.315   3.258  1.00  0.00     0.009 C 
HETATM   25  C   UNL     1      44.423 -19.142   2.356  1.00  0.00     0.006 C 
ENDBRANCH  23  24
BRANCH  23  26
HETATM   26  C   UNL     1      45.132 -21.762   5.033  1.00  0.00     0.009 C 
HETATM   27  C   UNL     1      44.671 -22.798   4.017  1.00  0.00     0.006 C 
ENDBRANCH  23  26
ENDBRANCH  20  23
ENDBRANCH   1  19
BRANCH  13  28
HETATM   28  C   UNL     1      41.058 -14.235  -1.084  1.00  0.00    -0.019 A 
HETATM   29  C   UNL     1      41.517 -13.061  -1.654  1.00  0.00     0.061 A 
HETATM   30  S   UNL     1      41.772 -13.200  -3.341  1.00  0.00    -0.113 SA
HETATM   31  C   UNL     1      41.260 -14.829  -3.338  1.00  0.00     0.050 A 
HETATM   32  C   UNL     1      40.906 -15.258  -2.078  1.00  0.00     0.020 A 
ENDBRANCH  13  28
TORSDOF 5
ENDMDL
MODEL 4
REMARK VINA RESULT:      -8.1      1.764      2.634
REMARK  5 active torsions:
REMARK  status: ('A' for Active; 'I' for Inactive)
REMARK    1  A    between atoms: C_2  and  C_3 
REMARK    2  A    between atoms: C_3  and  C_4 
REMARK    3  A    between atoms: C_3  and  C_29 
REMARK       I    between atoms: C_4  and  N_5 
REMARK    4  A    between atoms: N_5  and  C_6 
REMARK    5  A    between atoms: C_18  and  C_19 
ROOT
HETATM    1  C   UNL     1      39.954 -12.254   0.456  1.00  0.00     0.088 C 
HETATM    2  C   UNL     1      40.806 -12.191   1.710  1.00  0.00     0.060 C 
HETATM    3  C   UNL     1      41.114 -13.556   2.359  1.00  0.00     0.181 C 
HETATM    4  N   UNL     1      40.090 -14.598   2.195  1.00  0.00    -0.334 N 
HETATM    5  C   UNL     1      40.365 -15.939   2.494  1.00  0.00     0.256 C 
HETATM    6  O   UNL     1      39.607 -16.846   2.140  1.00  0.00    -0.267 OA
HETATM    7  C   UNL     1      41.609 -16.344   3.196  1.00  0.00     0.059 A 
HETATM    8  C   UNL     1      42.213 -15.628   4.230  1.00  0.00     0.050 A 
HETATM    9  N   UNL     1      41.867 -14.335   4.629  1.00  0.00    -0.324 N 
HETATM   10  C   UNL     1      41.369 -13.320   3.866  1.00  0.00     0.245 C 
HETATM   11  O   UNL     1      41.282 -12.212   4.404  1.00  0.00    -0.271 OA
HETATM   12  C   UNL     1      42.103 -17.624   2.867  1.00  0.00     0.031 A 
HETATM   13  C   UNL     1      43.178 -18.197   3.555  1.00  0.00    -0.024 A 
HETATM   14  C   UNL     1      43.737 -17.493   4.622  1.00  0.00     0.014 A 
HETATM   15  C   UNL     1      43.251 -16.228   4.962  1.00  0.00     0.031 A 
HETATM   16  C   UNL     1      39.017 -14.441   1.208  1.00  0.00     0.129 C 
HETATM   17  C   UNL     1      38.685 -13.025   0.788  1.00  0.00     0.045 C 
HETATM   18  H   UNL     1      42.188 -14.004   5.531  1.00  0.00     0.169 HD
ENDROOT
BRANCH   1  19
HETATM   19  N   UNL     1      40.676 -12.808  -0.681  1.00  0.00    -0.356 N 
HETATM   20  C   UNL     1      40.351 -12.452  -1.974  1.00  0.00     0.222 C 
HETATM   21  O   UNL     1      39.499 -11.609  -2.240  1.00  0.00    -0.273 OA
HETATM   22  H   UNL     1      41.240 -13.636  -0.546  1.00  0.00     0.162 HD
BRANCH  20  23
HETATM   23  C   UNL     1      41.121 -13.182  -3.076  1.00  0.00     0.077 C 
BRANCH  23  24
HETATM   24  C   UNL     1      41.333 -14.666  -2.730  1.00  0.00     0.009 C 
HETATM   25  C   UNL     1      40.183 -15.551  -3.193  1.00  0.00     0.006 C 
ENDBRANCH  23  24
BRANCH  23  26
HETATM   26  C   UNL     1      42.469 -12.500  -3.375  1.00  0.00     0.009 C 
HETATM   27  C   UNL     1      42.345 -11.378  -4.398  1.00  0.00     0.006 C 
ENDBRANCH  23  26
ENDBRANCH  20  23
ENDBRANCH   1  19
BRANCH  13  28
HETATM   28  C   UNL     1      43.676 -19.513   3.169  1.00  0.00    -0.019 A 
HETATM   29  C   UNL     1      43.328 -20.106   1.969  1.00  0.00     0.061 A 
HETATM   30  S   UNL     1      44.020 -21.660   1.774  1.00  0.00    -0.113 SA
HETATM   31  C   UNL     1      44.786 -21.570   3.298  1.00  0.00     0.050 A 
HETATM   32  C   UNL     1      44.522 -20.379   3.938  1.00  0.00     0.020 A 
ENDBRANCH  13  28
TORSDOF 5
ENDMDL
MODEL 5
REMARK VINA RESULT:      -7.8      3.102      7.849
REMARK  5 active torsions:
REMARK  status: ('A' for Active; 'I' for Inactive)
REMARK    1  A    between atoms: C_2  and  C_3 
REMARK    2  A    between atoms: C_3  and  C_4 
REMARK    3  A    between atoms: C_3  and  C_29 
REMARK       I    between atoms: C_4  and  N_5 
REMARK    4  A    between atoms: N_5  and  C_6 
REMARK    5  A    between atoms: C_18  and  C_19 
ROOT
HETATM    1  C   UNL     1      42.613 -14.891   5.830  1.00  0.00     0.088 C 
HETATM    2  C   UNL     1      41.223 -14.287   5.759  1.00  0.00     0.060 C 
HETATM    3  C   UNL     1      40.771 -13.852   4.351  1.00  0.00     0.181 C 
HETATM    4  N   UNL     1      41.834 -13.405   3.438  1.00  0.00    -0.334 N 
HETATM    5  C   UNL     1      41.594 -13.249   2.066  1.00  0.00     0.256 C 
HETATM    6  O   UNL     1      42.520 -13.109   1.262  1.00  0.00    -0.267 OA
HETATM    7  C   UNL     1      40.222 -13.302   1.501  1.00  0.00     0.059 A 
HETATM    8  C   UNL     1      39.084 -12.777   2.114  1.00  0.00     0.050 A 
HETATM    9  N   UNL     1      39.016 -12.305   3.427  1.00  0.00    -0.324 N 
HETATM   10  C   UNL     1      39.727 -12.723   4.513  1.00  0.00     0.245 C 
HETATM   11  O   UNL     1      39.389 -12.263   5.608  1.00  0.00    -0.271 OA
HETATM   12  C   UNL     1      40.126 -13.796   0.183  1.00  0.00     0.031 A 
HETATM   13  C   UNL     1      38.922 -13.766  -0.528  1.00  0.00    -0.024 A 
HETATM   14  C   UNL     1      37.805 -13.189   0.076  1.00  0.00     0.014 A 
HETATM   15  C   UNL     1      37.890 -12.690   1.378  1.00  0.00     0.031 A 
HETATM   16  C   UNL     1      43.243 -13.674   3.744  1.00  0.00     0.129 C 
HETATM   17  C   UNL     1      43.586 -13.905   5.201  1.00  0.00     0.045 C 
HETATM   18  H   UNL     1      38.228 -11.726   3.693  1.00  0.00     0.169 HD
ENDROOT
BRANCH   1  19
HETATM   19  N   UNL     1      42.677 -16.216   5.229  1.00  0.00    -0.356 N 
HETATM   20  C   UNL     1      42.658 -17.354   6.009  1.00  0.00     0.222 C 
HETATM   21  O   UNL     1      42.518 -17.325   7.228  1.00  0.00    -0.273 OA
HETATM   22  H   UNL     1      42.986 -16.304   4.271  1.00  0.00     0.162 HD
BRANCH  20  23
HETATM   23  C   UNL     1      42.831 -18.675   5.258  1.00  0.00     0.077 C 
BRANCH  23  24
HETATM   24  C   UNL     1      44.091 -19.429   5.719  1.00  0.00     0.009 C 
HETATM   25  C   UNL     1      43.774 -20.610   6.627  1.00  0.00     0.006 C 
ENDBRANCH  23  24
BRANCH  23  26
HETATM   26  C   UNL     1      42.858 -18.463   3.734  1.00  0.00     0.009 C 
HETATM   27  C   UNL     1      43.876 -19.354   3.034  1.00  0.00     0.006 C 
ENDBRANCH  23  26
ENDBRANCH  20  23
ENDBRANCH   1  19
BRANCH  13  28
HETATM   28  C   UNL     1      38.858 -14.308  -1.882  1.00  0.00    -0.019 A 
HETATM   29  C   UNL     1      37.684 -14.321  -2.613  1.00  0.00     0.061 A 
HETATM   30  S   UNL     1      37.873 -15.041  -4.155  1.00  0.00    -0.113 SA
HETATM   31  C   UNL     1      39.526 -15.358  -3.864  1.00  0.00     0.050 A 
HETATM   32  C   UNL     1      39.924 -14.921  -2.620  1.00  0.00     0.020 A 
ENDBRANCH  13  28
TORSDOF 5
ENDMDL
MODEL 6
REMARK VINA RESULT:      -7.8      3.324      7.856
REMARK  5 active torsions:
REMARK  status: ('A' for Active; 'I' for Inactive)
REMARK    1  A    between atoms: C_2  and  C_3 
REMARK    2  A    between atoms: C_3  and  C_4 
REMARK    3  A    between atoms: C_3  and  C_29 
REMARK       I    between atoms: C_4  and  N_5 
REMARK    4  A    between atoms: N_5  and  C_6 
REMARK    5  A    between atoms: C_18  and  C_19 
ROOT
HETATM    1  C   UNL     1      42.478 -16.303   5.582  1.00  0.00     0.088 C 
HETATM    2  C   UNL     1      41.194 -15.514   5.762  1.00  0.00     0.060 C 
HETATM    3  C   UNL     1      40.873 -14.522   4.625  1.00  0.00     0.181 C 
HETATM    4  N   UNL     1      42.029 -13.933   3.933  1.00  0.00    -0.334 N 
HETATM    5  C   UNL     1      41.875 -13.242   2.723  1.00  0.00     0.256 C 
HETATM    6  O   UNL     1      42.846 -12.955   2.018  1.00  0.00    -0.267 OA
HETATM    7  C   UNL     1      40.536 -12.874   2.198  1.00  0.00     0.059 A 
HETATM    8  C   UNL     1      39.460 -12.450   2.979  1.00  0.00     0.050 A 
HETATM    9  N   UNL     1      39.403 -12.497   4.373  1.00  0.00    -0.324 N 
HETATM   10  C   UNL     1      39.998 -13.391   5.214  1.00  0.00     0.245 C 
HETATM   11  O   UNL     1      39.681 -13.327   6.405  1.00  0.00    -0.271 OA
HETATM   12  C   UNL     1      40.428 -12.820   0.792  1.00  0.00     0.031 A 
HETATM   13  C   UNL     1      39.274 -12.345   0.161  1.00  0.00    -0.024 A 
HETATM   14  C   UNL     1      38.227 -11.874   0.953  1.00  0.00     0.014 A 
HETATM   15  C   UNL     1      38.325 -11.915   2.345  1.00  0.00     0.031 A 
HETATM   16  C   UNL     1      43.369 -14.506   4.097  1.00  0.00     0.129 C 
HETATM   17  C   UNL     1      43.610 -15.313   5.355  1.00  0.00     0.045 C 
HETATM   18  H   UNL     1      38.697 -11.947   4.848  1.00  0.00     0.169 HD
ENDROOT
BRANCH   1  19
HETATM   19  N   UNL     1      42.375 -17.302   4.526  1.00  0.00    -0.356 N 
HETATM   20  C   UNL     1      43.335 -18.282   4.376  1.00  0.00     0.222 C 
HETATM   21  O   UNL     1      44.279 -18.415   5.149  1.00  0.00    -0.273 OA
HETATM   22  H   UNL     1      41.745 -17.133   3.754  1.00  0.00     0.162 HD
BRANCH  20  23
HETATM   23  C   UNL     1      43.157 -19.204   3.169  1.00  0.00     0.077 C 
BRANCH  23  24
HETATM   24  C   UNL     1      44.404 -20.072   2.930  1.00  0.00     0.009 C 
HETATM   25  C   UNL     1      44.106 -21.323   2.114  1.00  0.00     0.006 C 
ENDBRANCH  23  24
BRANCH  23  26
HETATM   26  C   UNL     1      42.799 -18.413   1.898  1.00  0.00     0.009 C 
HETATM   27  C   UNL     1      43.971 -17.598   1.364  1.00  0.00     0.006 C 
ENDBRANCH  23  26
ENDBRANCH  20  23
ENDBRANCH   1  19
BRANCH  13  28
HETATM   28  C   UNL     1      39.192 -12.328  -1.297  1.00  0.00    -0.019 A 
HETATM   29  C   UNL     1      39.693 -11.280  -2.048  1.00  0.00     0.061 A 
HETATM   30  S   UNL     1      39.441 -11.489  -3.728  1.00  0.00    -0.113 SA
HETATM   31  C   UNL     1      38.645 -12.980  -3.477  1.00  0.00     0.050 A 
HETATM   32  C   UNL     1      38.578 -13.311  -2.141  1.00  0.00     0.020 A 
ENDBRANCH  13  28
TORSDOF 5
ENDMDL
MODEL 7
REMARK VINA RESULT:      -7.5      1.719      2.625
REMARK  5 active torsions:
REMARK  status: ('A' for Active; 'I' for Inactive)
REMARK    1  A    between atoms: C_2  and  C_3 
REMARK    2  A    between atoms: C_3  and  C_4 
REMARK    3  A    between atoms: C_3  and  C_29 
REMARK       I    between atoms: C_4  and  N_5 
REMARK    4  A    between atoms: N_5  and  C_6 
REMARK    5  A    between atoms: C_18  and  C_19 
ROOT
HETATM    1  C   UNL     1      40.613 -10.553   2.623  1.00  0.00     0.088 C 
HETATM    2  C   UNL     1      41.367 -10.912   3.890  1.00  0.00     0.060 C 
HETATM    3  C   UNL     1      41.497 -12.423   4.166  1.00  0.00     0.181 C 
HETATM    4  N   UNL     1      40.396 -13.268   3.679  1.00  0.00    -0.334 N 
HETATM    5  C   UNL     1      40.521 -14.663   3.622  1.00  0.00     0.256 C 
HETATM    6  O   UNL     1      39.712 -15.357   3.002  1.00  0.00    -0.267 OA
HETATM    7  C   UNL     1      41.664 -15.371   4.254  1.00  0.00     0.059 A 
HETATM    8  C   UNL     1      42.249 -15.019   5.470  1.00  0.00     0.050 A 
HETATM    9  N   UNL     1      41.995 -13.844   6.181  1.00  0.00    -0.324 N 
HETATM   10  C   UNL     1      41.654 -12.617   5.692  1.00  0.00     0.245 C 
HETATM   11  O   UNL     1      41.628 -11.685   6.501  1.00  0.00    -0.271 OA
HETATM   12  C   UNL     1      42.061 -16.568   3.620  1.00  0.00     0.031 A 
HETATM   13  C   UNL     1      43.022 -17.414   4.185  1.00  0.00    -0.024 A 
HETATM   14  C   UNL     1      43.559 -17.078   5.427  1.00  0.00     0.014 A 
HETATM   15  C   UNL     1      43.167 -15.899   6.067  1.00  0.00     0.031 A 
HETATM   16  C   UNL     1      39.422 -12.743   2.716  1.00  0.00     0.129 C 
HETATM   17  C   UNL     1      39.257 -11.239   2.673  1.00  0.00     0.045 C 
HETATM   18  H   UNL     1      42.274 -13.796   7.154  1.00  0.00     0.169 HD
ENDROOT
BRANCH   1  19
HETATM   19  N   UNL     1      41.368 -10.868   1.417  1.00  0.00    -0.356 N 
HETATM   20  C   UNL     1      41.279 -10.072   0.293  1.00  0.00     0.222 C 
HETATM   21  O   UNL     1      40.630  -9.031   0.261  1.00  0.00    -0.273 OA
HETATM   22  H   UNL     1      41.755 -11.795   1.312  1.00  0.00     0.162 HD
BRANCH  20  23
HETATM   23  C   UNL     1      42.045 -10.572  -0.934  1.00  0.00     0.077 C 
BRANCH  23  24
HETATM   24  C   UNL     1      41.801 -12.071  -1.182  1.00  0.00     0.009 C 
HETATM   25  C   UNL     1      42.847 -12.696  -2.097  1.00  0.00     0.006 C 
ENDBRANCH  23  24
BRANCH  23  26
HETATM   26  C   UNL     1      43.552 -10.283  -0.819  1.00  0.00     0.009 C 
HETATM   27  C   UNL     1      43.913  -8.865  -1.244  1.00  0.00     0.006 C 
ENDBRANCH  23  26
ENDBRANCH  20  23
ENDBRANCH   1  19
BRANCH  13  28
HETATM   28  C   UNL     1      43.424 -18.631   3.487  1.00  0.00    -0.019 A 
HETATM   29  C   UNL     1      44.338 -19.519   4.026  1.00  0.00     0.061 A 
HETATM   30  S   UNL     1      44.661 -20.846   2.994  1.00  0.00    -0.113 SA
HETATM   31  C   UNL     1      43.593 -20.247   1.802  1.00  0.00     0.050 A 
HETATM   32  C   UNL     1      43.002 -19.064   2.186  1.00  0.00     0.020 A 
ENDBRANCH  13  28
TORSDOF 5
ENDMDL
MODEL 8
REMARK VINA RESULT:      -7.5      4.023      8.337
REMARK  5 active torsions:
REMARK  status: ('A' for Active; 'I' for Inactive)
REMARK    1  A    between atoms: C_2  and  C_3 
REMARK    2  A    between atoms: C_3  and  C_4 
REMARK    3  A    between atoms: C_3  and  C_29 
REMARK       I    between atoms: C_4  and  N_5 
REMARK    4  A    between atoms: N_5  and  C_6 
REMARK    5  A    between atoms: C_18  and  C_19 
ROOT
HETATM    1  C   UNL     1      42.882 -16.622   2.804  1.00  0.00     0.088 C 
HETATM    2  C   UNL     1      43.120 -15.171   2.428  1.00  0.00     0.060 C 
HETATM    3  C   UNL     1      42.331 -14.142   3.263  1.00  0.00     0.181 C 
HETATM    4  N   UNL     1      41.022 -14.585   3.769  1.00  0.00    -0.334 N 
HETATM    5  C   UNL     1      40.341 -13.857   4.753  1.00  0.00     0.256 C 
HETATM    6  O   UNL     1      39.373 -14.333   5.352  1.00  0.00    -0.267 OA
HETATM    7  C   UNL     1      40.783 -12.501   5.168  1.00  0.00     0.059 A 
HETATM    8  C   UNL     1      41.294 -11.528   4.309  1.00  0.00     0.050 A 
HETATM    9  N   UNL     1      41.658 -11.736   2.976  1.00  0.00    -0.324 N 
HETATM   10  C   UNL     1      42.143 -12.873   2.400  1.00  0.00     0.245 C 
HETATM   11  O   UNL     1      42.542 -12.778   1.236  1.00  0.00    -0.271 OA
HETATM   12  C   UNL     1      40.512 -12.158   6.510  1.00  0.00     0.031 A 
HETATM   13  C   UNL     1      40.736 -10.867   6.999  1.00  0.00    -0.024 A 
HETATM   14  C   UNL     1      41.196  -9.890   6.116  1.00  0.00     0.014 A 
HETATM   15  C   UNL     1      41.460 -10.216   4.783  1.00  0.00     0.031 A 
HETATM   16  C   UNL     1      40.659 -16.006   3.756  1.00  0.00     0.129 C 
HETATM   17  C   UNL     1      41.384 -16.880   2.755  1.00  0.00     0.045 C 
HETATM   18  H   UNL     1      41.781 -10.928   2.376  1.00  0.00     0.169 HD
ENDROOT
BRANCH   1  19
HETATM   19  N   UNL     1      43.479 -16.970   4.087  1.00  0.00    -0.356 N 
HETATM   20  C   UNL     1      43.935 -18.248   4.337  1.00  0.00     0.222 C 
HETATM   21  O   UNL     1      43.935 -19.135   3.489  1.00  0.00    -0.273 OA
HETATM   22  H   UNL     1      43.331 -16.357   4.877  1.00  0.00     0.162 HD
BRANCH  20  23
HETATM   23  C   UNL     1      44.447 -18.503   5.756  1.00  0.00     0.077 C 
BRANCH  23  24
HETATM   24  C   UNL     1      43.642 -19.610   6.458  1.00  0.00     0.009 C 
HETATM   25  C   UNL     1      44.211 -21.001   6.212  1.00  0.00     0.006 C 
ENDBRANCH  23  24
BRANCH  23  26
HETATM   26  C   UNL     1      44.443 -17.216   6.601  1.00  0.00     0.009 C 
HETATM   27  C   UNL     1      43.461 -17.279   7.764  1.00  0.00     0.006 C 
ENDBRANCH  23  26
ENDBRANCH  20  23
ENDBRANCH   1  19
BRANCH  13  28
HETATM   28  C   UNL     1      40.467 -10.558   8.400  1.00  0.00    -0.019 A 
HETATM   29  C   UNL     1      41.471 -10.523   9.350  1.00  0.00     0.061 A 
HETATM   30  S   UNL     1      40.886 -10.170  10.920  1.00  0.00    -0.113 SA
HETATM   31  C   UNL     1      39.277 -10.071  10.355  1.00  0.00     0.050 A 
HETATM   32  C   UNL     1      39.190 -10.298   8.999  1.00  0.00     0.020 A 
ENDBRANCH  13  28
TORSDOF 5
ENDMDL
MODEL 9
REMARK VINA RESULT:      -7.2      3.912      7.722
REMARK  5 active torsions:
REMARK  status: ('A' for Active; 'I' for Inactive)
REMARK    1  A    between atoms: C_2  and  C_3 
REMARK    2  A    between atoms: C_3  and  C_4 
REMARK    3  A    between atoms: C_3  and  C_29 
REMARK       I    between atoms: C_4  and  N_5 
REMARK    4  A    between atoms: N_5  and  C_6 
REMARK    5  A    between atoms: C_18  and  C_19 
ROOT
HETATM    1  C   UNL     1      41.680 -15.199   1.416  1.00  0.00     0.088 C 
HETATM    2  C   UNL     1      41.908 -13.702   1.321  1.00  0.00     0.060 C 
HETATM    3  C   UNL     1      41.491 -12.898   2.570  1.00  0.00     0.181 C 
HETATM    4  N   UNL     1      40.366 -13.442   3.346  1.00  0.00    -0.334 N 
HETATM    5  C   UNL     1      40.074 -12.966   4.631  1.00  0.00     0.256 C 
HETATM    6  O   UNL     1      39.298 -13.567   5.379  1.00  0.00    -0.267 OA
HETATM    7  C   UNL     1      40.726 -11.751   5.182  1.00  0.00     0.059 A 
HETATM    8  C   UNL     1      41.030 -10.604   4.448  1.00  0.00     0.050 A 
HETATM    9  N   UNL     1      40.957 -10.489   3.058  1.00  0.00    -0.324 N 
HETATM   10  C   UNL     1      41.153 -11.458   2.118  1.00  0.00     0.245 C 
HETATM   11  O   UNL     1      41.188 -11.090   0.941  1.00  0.00    -0.271 OA
HETATM   12  C   UNL     1      40.902 -11.738   6.582  1.00  0.00     0.031 A 
HETATM   13  C   UNL     1      41.365 -10.601   7.254  1.00  0.00    -0.024 A 
HETATM   14  C   UNL     1      41.613  -9.444   6.515  1.00  0.00     0.014 A 
HETATM   15  C   UNL     1      41.435  -9.444   5.129  1.00  0.00     0.031 A 
HETATM   16  C   UNL     1      39.904 -14.817   3.127  1.00  0.00     0.129 C 
HETATM   17  C   UNL     1      40.221 -15.431   1.780  1.00  0.00     0.045 C 
HETATM   18  H   UNL     1      40.956  -9.562   2.647  1.00  0.00     0.169 HD
ENDROOT
BRANCH   1  19
HETATM   19  N   UNL     1      42.607 -15.847   2.335  1.00  0.00    -0.356 N 
HETATM   20  C   UNL     1      42.842 -17.205   2.271  1.00  0.00     0.222 C 
HETATM   21  O   UNL     1      42.352 -17.927   1.408  1.00  0.00    -0.273 OA
HETATM   22  H   UNL     1      42.883 -15.357   3.175  1.00  0.00     0.162 HD
BRANCH  20  23
HETATM   23  C   UNL     1      43.759 -17.770   3.356  1.00  0.00     0.077 C 
BRANCH  23  24
HETATM   24  C   UNL     1      44.073 -19.257   3.115  1.00  0.00     0.009 C 
HETATM   25  C   UNL     1      44.796 -19.906   4.289  1.00  0.00     0.006 C 
ENDBRANCH  23  24
BRANCH  23  26
HETATM   26  C   UNL     1      43.167 -17.566   4.763  1.00  0.00     0.009 C 
HETATM   27  C   UNL     1      41.705 -17.984   4.851  1.00  0.00     0.006 C 
ENDBRANCH  23  26
ENDBRANCH  20  23
ENDBRANCH   1  19
BRANCH  13  28
HETATM   28  C   UNL     1      41.556 -10.635   8.701  1.00  0.00    -0.019 A 
HETATM   29  C   UNL     1      42.815 -10.674   9.274  1.00  0.00     0.061 A 
HETATM   30  S   UNL     1      42.761 -10.741  10.984  1.00  0.00    -0.113 SA
HETATM   31  C   UNL     1      41.053 -10.731  10.984  1.00  0.00     0.050 A 
HETATM   32  C   UNL     1      40.537 -10.674   9.708  1.00  0.00     0.020 A 
ENDBRANCH  13  28
TORSDOF 5
ENDMDL
MODEL 10
REMARK VINA RESULT:      -7.2      2.972      5.290
REMARK  5 active torsions:
REMARK  status: ('A' for Active; 'I' for Inactive)
REMARK    1  A    between atoms: C_2  and  C_3 
REMARK    2  A    between atoms: C_3  and  C_4 
REMARK    3  A    between atoms: C_3  and  C_29 
REMARK       I    between atoms: C_4  and  N_5 
REMARK    4  A    between atoms: N_5  and  C_6 
REMARK    5  A    between atoms: C_18  and  C_19 
ROOT
HETATM    1  C   UNL     1      39.841 -11.977   0.306  1.00  0.00     0.088 C 
HETATM    2  C   UNL     1      39.926 -13.410  -0.186  1.00  0.00     0.060 C 
HETATM    3  C   UNL     1      40.872 -14.322   0.622  1.00  0.00     0.181 C 
HETATM    4  N   UNL     1      42.035 -13.666   1.239  1.00  0.00    -0.334 N 
HETATM    5  C   UNL     1      42.806 -14.319   2.210  1.00  0.00     0.256 C 
HETATM    6  O   UNL     1      43.625 -13.707   2.900  1.00  0.00    -0.267 OA
HETATM    7  C   UNL     1      42.636 -15.765   2.500  1.00  0.00     0.059 A 
HETATM    8  C   UNL     1      42.378 -16.748   1.544  1.00  0.00     0.050 A 
HETATM    9  N   UNL     1      42.041 -16.510   0.209  1.00  0.00    -0.324 N 
HETATM   10  C   UNL     1      41.359 -15.452  -0.315  1.00  0.00     0.245 C 
HETATM   11  O   UNL     1      41.043 -15.530  -1.506  1.00  0.00    -0.271 OA
HETATM   12  C   UNL     1      42.908 -16.154   3.829  1.00  0.00     0.031 A 
HETATM   13  C   UNL     1      42.934 -17.500   4.210  1.00  0.00    -0.024 A 
HETATM   14  C   UNL     1      42.728 -18.474   3.233  1.00  0.00     0.014 A 
HETATM   15  C   UNL     1      42.465 -18.101   1.913  1.00  0.00     0.031 A 
HETATM   16  C   UNL     1      42.096 -12.205   1.348  1.00  0.00     0.129 C 
HETATM   17  C   UNL     1      41.253 -11.417   0.368  1.00  0.00     0.045 C 
HETATM   18  H   UNL     1      42.116 -17.274  -0.453  1.00  0.00     0.169 HD
ENDROOT
BRANCH   1  19
HETATM   19  N   UNL     1      39.126 -11.863   1.570  1.00  0.00    -0.356 N 
HETATM   20  C   UNL     1      38.506 -10.686   1.934  1.00  0.00     0.222 C 
HETATM   21  O   UNL     1      38.456  -9.703   1.201  1.00  0.00    -0.273 OA
HETATM   22  H   UNL     1      39.293 -12.553   2.289  1.00  0.00     0.162 HD
BRANCH  20  23
HETATM   23  C   UNL     1      37.877 -10.672   3.329  1.00  0.00     0.077 C 
BRANCH  23  24
HETATM   24  C   UNL     1      37.726  -9.239   3.868  1.00  0.00     0.009 C 
HETATM   25  C   UNL     1      36.270  -8.810   4.003  1.00  0.00     0.006 C 
ENDBRANCH  23  24
BRANCH  23  26
HETATM   26  C   UNL     1      38.675 -11.539   4.320  1.00  0.00     0.009 C 
HETATM   27  C   UNL     1      39.524 -10.710   5.275  1.00  0.00     0.006 C 
ENDBRANCH  23  26
ENDBRANCH  20  23
ENDBRANCH   1  19
BRANCH  13  28
HETATM   28  C   UNL     1      43.196 -17.861   5.600  1.00  0.00    -0.019 A 
HETATM   29  C   UNL     1      43.071 -16.949   6.632  1.00  0.00     0.061 A 
HETATM   30  S   UNL     1      43.466 -17.616   8.158  1.00  0.00    -0.113 SA
HETATM   31  C   UNL     1      43.823 -19.134   7.461  1.00  0.00     0.050 A 
HETATM   32  C   UNL     1      43.641 -19.132   6.095  1.00  0.00     0.020 A 
ENDBRANCH  13  28
TORSDOF 5
ENDMDL
