MODEL 1
REMARK VINA RESULT:      -8.0      0.000      0.000
REMARK  3 active torsions:
REMARK  status: ('A' for Active; 'I' for Inactive)
REMARK    1  A    between atoms: O_2  and  C_3 
REMARK       I    between atoms: N_13  and  C_14 
REMARK       I    between atoms: C_14  and  N_15 
REMARK    2  A    between atoms: N_15  and  C_16 
REMARK    3  A    between atoms: C_22  and  C_23 
ROOT
HETATM    1  C   UNL     1      38.975  -9.864   5.129  1.00  0.00     0.069 A 
HETATM    2  C   UNL     1      38.676 -10.957   4.306  1.00  0.00     0.051 A 
HETATM    3  C   UNL     1      39.711 -11.584   3.578  1.00  0.00     0.002 A 
HETATM    4  C   UNL     1      41.016 -11.103   3.710  1.00  0.00     0.043 A 
HETATM    5  N   UNL     1      41.829 -11.876   2.909  1.00  0.00    -0.356 N 
HETATM    6  H   UNL     1      42.826 -11.745   2.812  1.00  0.00     0.166 HD
HETATM    7  C   UNL     1      41.074 -12.803   2.241  1.00  0.00     0.045 A 
HETATM    8  C   UNL     1      39.764 -12.676   2.672  1.00  0.00    -0.019 A 
HETATM    9  C   UNL     1      38.696 -13.609   2.197  1.00  0.00     0.061 C 
HETATM   10  C   UNL     1      39.188 -14.382   0.955  1.00  0.00     0.133 C 
HETATM   11  N   UNL     1      40.578 -14.856   1.125  1.00  0.00    -0.320 N 
HETATM   12  C   UNL     1      40.753 -16.154   1.577  1.00  0.00     0.319 C 
HETATM   13  N   UNL     1      42.059 -16.544   1.742  1.00  0.00    -0.338 N 
HETATM   14  O   UNL     1      39.811 -16.908   1.801  1.00  0.00    -0.247 OA
HETATM   15  C   UNL     1      41.601 -13.790   1.233  1.00  0.00     0.172 C 
HETATM   16  C   UNL     1      41.339 -10.027   4.542  1.00  0.00     0.033 A 
HETATM   17  C   UNL     1      40.293  -9.420   5.246  1.00  0.00     0.039 A 
HETATM   18  H   UNL     1      42.703 -16.126   1.091  1.00  0.00     0.164 HD
ENDROOT
BRANCH  15  19
HETATM   19  C   UNL     1      41.914 -13.206  -0.150  1.00  0.00    -0.029 A 
HETATM   20  C   UNL     1      42.418 -11.905  -0.342  1.00  0.00     0.012 A 
HETATM   21  C   UNL     1      42.684 -11.418  -1.625  1.00  0.00     0.043 A 
HETATM   22  C   UNL     1      42.441 -12.222  -2.729  1.00  0.00     0.116 A 
HETATM   23  F   UNL     1      42.691 -11.751  -3.958  1.00  0.00    -0.206 F 
HETATM   24  C   UNL     1      41.935 -13.504  -2.576  1.00  0.00     0.043 A 
HETATM   25  C   UNL     1      41.674 -13.993  -1.294  1.00  0.00     0.012 A 
ENDBRANCH  15  19
BRANCH  13  26
HETATM   26  C   UNL     1      42.450 -17.865   2.202  1.00  0.00     0.086 C 
HETATM   27  C   UNL     1      43.734 -18.421   1.579  1.00  0.00     0.025 C 
HETATM   28  C   UNL     1      44.211 -19.431   2.610  1.00  0.00     0.002 C 
HETATM   29  C   UNL     1      43.942 -18.731   3.933  1.00  0.00     0.002 C 
HETATM   30  C   UNL     1      42.625 -17.985   3.723  1.00  0.00     0.025 C 
ENDBRANCH  13  26
BRANCH   1  31
HETATM   31  O   UNL     1      38.070  -9.155   5.873  1.00  0.00    -0.356 OA
HETATM   32  C   UNL     1      38.597  -8.323   6.899  1.00  0.00     0.210 C 
ENDBRANCH   1  31
TORSDOF 3
ENDMDL
MODEL 2
REMARK VINA RESULT:      -7.8      3.244      8.024
REMARK  3 active torsions:
REMARK  status: ('A' for Active; 'I' for Inactive)
REMARK    1  A    between atoms: O_2  and  C_3 
REMARK       I    between atoms: N_13  and  C_14 
REMARK       I    between atoms: C_14  and  N_15 
REMARK    2  A    between atoms: N_15  and  C_16 
REMARK    3  A    between atoms: C_22  and  C_23 
ROOT
HETATM    1  C   UNL     1      43.141 -19.738   2.098  1.00  0.00     0.069 A 
HETATM    2  C   UNL     1      42.143 -18.845   1.689  1.00  0.00     0.051 A 
HETATM    3  C   UNL     1      42.217 -17.491   2.085  1.00  0.00     0.002 A 
HETATM    4  C   UNL     1      43.297 -17.075   2.867  1.00  0.00     0.043 A 
HETATM    5  N   UNL     1      43.138 -15.727   3.114  1.00  0.00    -0.356 N 
HETATM    6  H   UNL     1      43.778 -15.167   3.660  1.00  0.00     0.166 HD
HETATM    7  C   UNL     1      41.971 -15.287   2.549  1.00  0.00     0.045 A 
HETATM    8  C   UNL     1      41.402 -16.348   1.865  1.00  0.00    -0.019 A 
HETATM    9  C   UNL     1      40.155 -16.175   1.059  1.00  0.00     0.061 C 
HETATM   10  C   UNL     1      39.467 -14.846   1.437  1.00  0.00     0.133 C 
HETATM   11  N   UNL     1      40.443 -13.742   1.556  1.00  0.00    -0.320 N 
HETATM   12  C   UNL     1      40.626 -12.935   0.445  1.00  0.00     0.319 C 
HETATM   13  N   UNL     1      41.558 -11.939   0.593  1.00  0.00    -0.338 N 
HETATM   14  O   UNL     1      39.990 -13.089  -0.595  1.00  0.00    -0.247 OA
HETATM   15  C   UNL     1      41.429 -13.886   2.653  1.00  0.00     0.172 C 
HETATM   16  C   UNL     1      44.314 -17.946   3.268  1.00  0.00     0.033 A 
HETATM   17  C   UNL     1      44.212 -19.282   2.868  1.00  0.00     0.039 A 
HETATM   18  H   UNL     1      41.624 -11.566   1.525  1.00  0.00     0.164 HD
ENDROOT
BRANCH  15  19
HETATM   19  C   UNL     1      40.786 -13.533   4.000  1.00  0.00    -0.029 A 
HETATM   20  C   UNL     1      40.434 -14.498   4.964  1.00  0.00     0.012 A 
HETATM   21  C   UNL     1      39.847 -14.124   6.176  1.00  0.00     0.043 A 
HETATM   22  C   UNL     1      39.598 -12.784   6.434  1.00  0.00     0.116 A 
HETATM   23  F   UNL     1      39.030 -12.427   7.594  1.00  0.00    -0.206 F 
HETATM   24  C   UNL     1      39.922 -11.809   5.503  1.00  0.00     0.043 A 
HETATM   25  C   UNL     1      40.514 -12.181   4.293  1.00  0.00     0.012 A 
ENDBRANCH  15  19
BRANCH  13  26
HETATM   26  C   UNL     1      41.889 -10.987  -0.453  1.00  0.00     0.086 C 
HETATM   27  C   UNL     1      42.007  -9.529   0.002  1.00  0.00     0.025 C 
HETATM   28  C   UNL     1      42.905  -8.907  -1.056  1.00  0.00     0.002 C 
HETATM   29  C   UNL     1      43.950  -9.984  -1.301  1.00  0.00     0.002 C 
HETATM   30  C   UNL     1      43.184 -11.303  -1.217  1.00  0.00     0.025 C 
ENDBRANCH  13  26
BRANCH   1  31
HETATM   31  O   UNL     1      43.184 -21.074   1.802  1.00  0.00    -0.356 OA
HETATM   32  C   UNL     1      44.332 -21.790   2.242  1.00  0.00     0.210 C 
ENDBRANCH   1  31
TORSDOF 3
ENDMDL
MODEL 3
REMARK VINA RESULT:      -7.7      3.511      6.085
REMARK  3 active torsions:
REMARK  status: ('A' for Active; 'I' for Inactive)
REMARK    1  A    between atoms: O_2  and  C_3 
REMARK       I    between atoms: N_13  and  C_14 
REMARK       I    between atoms: C_14  and  N_15 
REMARK    2  A    between atoms: N_15  and  C_16 
REMARK    3  A    between atoms: C_22  and  C_23 
ROOT
HETATM    1  C   UNL     1      39.079 -12.663  -2.685  1.00  0.00     0.069 A 
HETATM    2  C   UNL     1      40.169 -12.867  -1.830  1.00  0.00     0.051 A 
HETATM    3  C   UNL     1      39.974 -13.535  -0.601  1.00  0.00     0.002 A 
HETATM    4  C   UNL     1      38.693 -13.988  -0.276  1.00  0.00     0.043 A 
HETATM    5  N   UNL     1      38.768 -14.600   0.958  1.00  0.00    -0.356 N 
HETATM    6  H   UNL     1      37.982 -15.018   1.436  1.00  0.00     0.166 HD
HETATM    7  C   UNL     1      40.045 -14.511   1.442  1.00  0.00     0.045 A 
HETATM    8  C   UNL     1      40.825 -13.897   0.477  1.00  0.00    -0.019 A 
HETATM    9  C   UNL     1      42.299 -13.727   0.660  1.00  0.00     0.061 C 
HETATM   10  C   UNL     1      42.673 -13.956   2.140  1.00  0.00     0.133 C 
HETATM   11  N   UNL     1      41.977 -15.132   2.702  1.00  0.00    -0.320 N 
HETATM   12  C   UNL     1      42.665 -16.336   2.700  1.00  0.00     0.319 C 
HETATM   13  N   UNL     1      41.972 -17.405   3.209  1.00  0.00    -0.338 N 
HETATM   14  O   UNL     1      43.816 -16.438   2.285  1.00  0.00    -0.247 OA
HETATM   15  C   UNL     1      40.502 -15.014   2.786  1.00  0.00     0.172 C 
HETATM   16  C   UNL     1      37.596 -13.813  -1.124  1.00  0.00     0.033 A 
HETATM   17  C   UNL     1      37.817 -13.141  -2.331  1.00  0.00     0.039 A 
HETATM   18  H   UNL     1      41.331 -17.172   3.949  1.00  0.00     0.164 HD
ENDROOT
BRANCH  15  19
HETATM   19  C   UNL     1      40.102 -14.141   3.981  1.00  0.00    -0.029 A 
HETATM   20  C   UNL     1      39.487 -12.882   3.845  1.00  0.00     0.012 A 
HETATM   21  C   UNL     1      39.145 -12.123   4.967  1.00  0.00     0.043 A 
HETATM   22  C   UNL     1      39.420 -12.610   6.236  1.00  0.00     0.116 A 
HETATM   23  F   UNL     1      39.096 -11.879   7.311  1.00  0.00    -0.206 F 
HETATM   24  C   UNL     1      40.034 -13.842   6.406  1.00  0.00     0.043 A 
HETATM   25  C   UNL     1      40.373 -14.604   5.285  1.00  0.00     0.012 A 
ENDBRANCH  15  19
BRANCH  13  26
HETATM   26  C   UNL     1      42.519 -18.748   3.297  1.00  0.00     0.086 C 
HETATM   27  C   UNL     1      43.119 -19.296   1.999  1.00  0.00     0.025 C 
HETATM   28  C   UNL     1      44.098 -20.352   2.489  1.00  0.00     0.002 C 
HETATM   29  C   UNL     1      44.732 -19.699   3.707  1.00  0.00     0.002 C 
HETATM   30  C   UNL     1      43.596 -18.928   4.377  1.00  0.00     0.025 C 
ENDBRANCH  13  26
BRANCH   1  31
HETATM   31  O   UNL     1      39.123 -12.018  -3.892  1.00  0.00    -0.356 OA
HETATM   32  C   UNL     1      40.358 -11.406  -4.246  1.00  0.00     0.210 C 
ENDBRANCH   1  31
TORSDOF 3
ENDMDL
MODEL 4
REMARK VINA RESULT:      -7.7      3.105      6.914
REMARK  3 active torsions:
REMARK  status: ('A' for Active; 'I' for Inactive)
REMARK    1  A    between atoms: O_2  and  C_3 
REMARK       I    between atoms: N_13  and  C_14 
REMARK       I    between atoms: C_14  and  N_15 
REMARK    2  A    between atoms: N_15  and  C_16 
REMARK    3  A    between atoms: C_22  and  C_23 
ROOT
HETATM    1  C   UNL     1      38.563 -13.637  -2.997  1.00  0.00     0.069 A 
HETATM    2  C   UNL     1      38.425 -13.951  -1.640  1.00  0.00     0.051 A 
HETATM    3  C   UNL     1      39.572 -13.995  -0.817  1.00  0.00     0.002 A 
HETATM    4  C   UNL     1      40.818 -13.709  -1.380  1.00  0.00     0.043 A 
HETATM    5  N   UNL     1      41.762 -13.818  -0.380  1.00  0.00    -0.356 N 
HETATM    6  H   UNL     1      42.753 -13.665  -0.511  1.00  0.00     0.166 HD
HETATM    7  C   UNL     1      41.159 -14.204   0.787  1.00  0.00     0.045 A 
HETATM    8  C   UNL     1      39.796 -14.276   0.558  1.00  0.00    -0.019 A 
HETATM    9  C   UNL     1      38.837 -14.588   1.662  1.00  0.00     0.061 C 
HETATM   10  C   UNL     1      39.602 -15.165   2.872  1.00  0.00     0.133 C 
HETATM   11  N   UNL     1      40.841 -14.408   3.145  1.00  0.00    -0.320 N 
HETATM   12  C   UNL     1      40.775 -13.407   4.102  1.00  0.00     0.319 C 
HETATM   13  N   UNL     1      41.942 -12.715   4.305  1.00  0.00    -0.338 N 
HETATM   14  O   UNL     1      39.750 -13.164   4.733  1.00  0.00    -0.247 OA
HETATM   15  C   UNL     1      41.873 -14.480   2.084  1.00  0.00     0.172 C 
HETATM   16  C   UNL     1      40.974 -13.374  -2.728  1.00  0.00     0.033 A 
HETATM   17  C   UNL     1      39.823 -13.345  -3.521  1.00  0.00     0.039 A 
HETATM   18  H   UNL     1      42.777 -13.262   4.179  1.00  0.00     0.164 HD
ENDROOT
BRANCH  15  19
HETATM   19  C   UNL     1      42.615 -15.820   2.148  1.00  0.00    -0.029 A 
HETATM   20  C   UNL     1      42.868 -16.618   1.015  1.00  0.00     0.012 A 
HETATM   21  C   UNL     1      43.547 -17.834   1.129  1.00  0.00     0.043 A 
HETATM   22  C   UNL     1      43.973 -18.270   2.375  1.00  0.00     0.116 A 
HETATM   23  F   UNL     1      44.619 -19.439   2.482  1.00  0.00    -0.206 F 
HETATM   24  C   UNL     1      43.732 -17.514   3.512  1.00  0.00     0.043 A 
HETATM   25  C   UNL     1      43.057 -16.296   3.400  1.00  0.00     0.012 A 
ENDBRANCH  15  19
BRANCH  13  26
HETATM   26  C   UNL     1      42.077 -11.635   5.266  1.00  0.00     0.086 C 
HETATM   27  C   UNL     1      41.271 -10.372   4.948  1.00  0.00     0.025 C 
HETATM   28  C   UNL     1      41.106  -9.714   6.310  1.00  0.00     0.002 C 
HETATM   29  C   UNL     1      40.832 -10.891   7.232  1.00  0.00     0.002 C 
HETATM   30  C   UNL     1      41.723 -12.017   6.711  1.00  0.00     0.025 C 
ENDBRANCH  13  26
BRANCH   1  31
HETATM   31  O   UNL     1      37.542 -13.577  -3.908  1.00  0.00    -0.356 OA
HETATM   32  C   UNL     1      36.850 -14.791  -4.175  1.00  0.00     0.210 C 
ENDBRANCH   1  31
TORSDOF 3
ENDMDL
MODEL 5
REMARK VINA RESULT:      -7.6      3.120      5.511
REMARK  3 active torsions:
REMARK  status: ('A' for Active; 'I' for Inactive)
REMARK    1  A    between atoms: O_2  and  C_3 
REMARK       I    between atoms: N_13  and  C_14 
REMARK       I    between atoms: C_14  and  N_15 
REMARK    2  A    between atoms: N_15  and  C_16 
REMARK    3  A    between atoms: C_22  and  C_23 
ROOT
HETATM    1  C   UNL     1      40.079 -11.602   6.280  1.00  0.00     0.069 A 
HETATM    2  C   UNL     1      40.836 -11.724   5.109  1.00  0.00     0.051 A 
HETATM    3  C   UNL     1      40.657 -12.853   4.279  1.00  0.00     0.002 A 
HETATM    4  C   UNL     1      39.713 -13.816   4.645  1.00  0.00     0.043 A 
HETATM    5  N   UNL     1      39.728 -14.802   3.681  1.00  0.00    -0.356 N 
HETATM    6  H   UNL     1      39.142 -15.625   3.697  1.00  0.00     0.166 HD
HETATM    7  C   UNL     1      40.681 -14.516   2.740  1.00  0.00     0.045 A 
HETATM    8  C   UNL     1      41.240 -13.290   3.059  1.00  0.00    -0.019 A 
HETATM    9  C   UNL     1      42.257 -12.645   2.174  1.00  0.00     0.061 C 
HETATM   10  C   UNL     1      42.814 -13.681   1.174  1.00  0.00     0.133 C 
HETATM   11  N   UNL     1      41.738 -14.515   0.598  1.00  0.00    -0.320 N 
HETATM   12  C   UNL     1      41.220 -14.123  -0.626  1.00  0.00     0.319 C 
HETATM   13  N   UNL     1      40.207 -14.912  -1.111  1.00  0.00    -0.338 N 
HETATM   14  O   UNL     1      41.643 -13.148  -1.240  1.00  0.00    -0.247 OA
HETATM   15  C   UNL     1      41.030 -15.388   1.563  1.00  0.00     0.172 C 
HETATM   16  C   UNL     1      38.933 -13.702   5.799  1.00  0.00     0.033 A 
HETATM   17  C   UNL     1      39.137 -12.578   6.606  1.00  0.00     0.039 A 
HETATM   18  H   UNL     1      40.283 -15.884  -0.863  1.00  0.00     0.164 HD
ENDROOT
BRANCH  15  19
HETATM   19  C   UNL     1      41.880 -16.621   1.894  1.00  0.00    -0.029 A 
HETATM   20  C   UNL     1      41.883 -17.240   3.159  1.00  0.00     0.012 A 
HETATM   21  C   UNL     1      42.678 -18.361   3.411  1.00  0.00     0.043 A 
HETATM   22  C   UNL     1      43.485 -18.870   2.404  1.00  0.00     0.116 A 
HETATM   23  F   UNL     1      44.252 -19.942   2.648  1.00  0.00    -0.206 F 
HETATM   24  C   UNL     1      43.514 -18.280   1.150  1.00  0.00     0.043 A 
HETATM   25  C   UNL     1      42.716 -17.162   0.896  1.00  0.00     0.012 A 
ENDBRANCH  15  19
BRANCH  13  26
HETATM   26  C   UNL     1      39.538 -14.670  -2.377  1.00  0.00     0.086 C 
HETATM   27  C   UNL     1      39.629 -15.812  -3.393  1.00  0.00     0.025 C 
HETATM   28  C   UNL     1      38.420 -15.579  -4.286  1.00  0.00     0.002 C 
HETATM   29  C   UNL     1      37.334 -15.177  -3.301  1.00  0.00     0.002 C 
HETATM   30  C   UNL     1      38.047 -14.323  -2.254  1.00  0.00     0.025 C 
ENDBRANCH  13  26
BRANCH   1  31
HETATM   31  O   UNL     1      40.165 -10.574   7.181  1.00  0.00    -0.356 OA
HETATM   32  C   UNL     1      39.619 -10.808   8.473  1.00  0.00     0.210 C 
ENDBRANCH   1  31
TORSDOF 3
ENDMDL
MODEL 6
REMARK VINA RESULT:      -7.4      3.673      6.368
REMARK  3 active torsions:
REMARK  status: ('A' for Active; 'I' for Inactive)
REMARK    1  A    between atoms: O_2  and  C_3 
REMARK       I    between atoms: N_13  and  C_14 
REMARK       I    between atoms: C_14  and  N_15 
REMARK    2  A    between atoms: N_15  and  C_16 
REMARK    3  A    between atoms: C_22  and  C_23 
ROOT
HETATM    1  C   UNL     1      40.567  -9.829   8.830  1.00  0.00     0.069 A 
HETATM    2  C   UNL     1      41.050 -10.191   7.567  1.00  0.00     0.051 A 
HETATM    3  C   UNL     1      40.568 -11.366   6.948  1.00  0.00     0.002 A 
HETATM    4  C   UNL     1      39.606 -12.131   7.612  1.00  0.00     0.043 A 
HETATM    5  N   UNL     1      39.303 -13.210   6.808  1.00  0.00    -0.356 N 
HETATM    6  H   UNL     1      38.635 -13.930   7.046  1.00  0.00     0.166 HD
HETATM    7  C   UNL     1      40.073 -13.174   5.676  1.00  0.00     0.045 A 
HETATM    8  C   UNL     1      40.833 -12.017   5.714  1.00  0.00    -0.019 A 
HETATM    9  C   UNL     1      41.722 -11.633   4.575  1.00  0.00     0.061 C 
HETATM   10  C   UNL     1      41.932 -12.844   3.642  1.00  0.00     0.133 C 
HETATM   11  N   UNL     1      40.667 -13.568   3.396  1.00  0.00    -0.320 N 
HETATM   12  C   UNL     1      39.963 -13.241   2.247  1.00  0.00     0.319 C 
HETATM   13  N   UNL     1      38.784 -13.920   2.072  1.00  0.00    -0.338 N 
HETATM   14  O   UNL     1      40.371 -12.414   1.437  1.00  0.00    -0.247 OA
HETATM   15  C   UNL     1      40.066 -14.214   4.587  1.00  0.00     0.172 C 
HETATM   16  C   UNL     1      39.096 -11.776   8.864  1.00  0.00     0.033 A 
HETATM   17  C   UNL     1      39.597 -10.612   9.457  1.00  0.00     0.039 A 
HETATM   18  H   UNL     1      38.787 -14.860   2.433  1.00  0.00     0.164 HD
ENDROOT
BRANCH  15  19
HETATM   19  C   UNL     1      40.806 -15.515   4.921  1.00  0.00    -0.029 A 
HETATM   20  C   UNL     1      41.252 -15.838   6.217  1.00  0.00     0.012 A 
HETATM   21  C   UNL     1      41.925 -17.036   6.469  1.00  0.00     0.043 A 
HETATM   22  C   UNL     1      42.167 -17.920   5.427  1.00  0.00     0.116 A 
HETATM   23  F   UNL     1      42.818 -19.066   5.669  1.00  0.00    -0.206 F 
HETATM   24  C   UNL     1      41.751 -17.629   4.137  1.00  0.00     0.043 A 
HETATM   25  C   UNL     1      41.073 -16.433   3.885  1.00  0.00     0.012 A 
ENDBRANCH  15  19
BRANCH  13  26
HETATM   26  C   UNL     1      37.907 -13.724   0.931  1.00  0.00     0.086 C 
HETATM   27  C   UNL     1      37.291 -12.327   0.812  1.00  0.00     0.025 C 
HETATM   28  C   UNL     1      36.967 -12.216  -0.669  1.00  0.00     0.002 C 
HETATM   29  C   UNL     1      38.174 -12.857  -1.337  1.00  0.00     0.002 C 
HETATM   30  C   UNL     1      38.552 -14.026  -0.430  1.00  0.00     0.025 C 
ENDBRANCH  13  26
BRANCH   1  31
HETATM   31  O   UNL     1      40.960  -8.731   9.549  1.00  0.00    -0.356 OA
HETATM   32  C   UNL     1      41.351  -8.956  10.898  1.00  0.00     0.210 C 
ENDBRANCH   1  31
TORSDOF 3
ENDMDL
MODEL 7
REMARK VINA RESULT:      -7.4      3.245      6.514
REMARK  3 active torsions:
REMARK  status: ('A' for Active; 'I' for Inactive)
REMARK    1  A    between atoms: O_2  and  C_3 
REMARK       I    between atoms: N_13  and  C_14 
REMARK       I    between atoms: C_14  and  N_15 
REMARK    2  A    between atoms: N_15  and  C_16 
REMARK    3  A    between atoms: C_22  and  C_23 
ROOT
HETATM    1  C   UNL     1      43.808 -16.405   6.746  1.00  0.00     0.069 A 
HETATM    2  C   UNL     1      42.835 -16.453   5.739  1.00  0.00     0.051 A 
HETATM    3  C   UNL     1      42.573 -15.299   4.969  1.00  0.00     0.002 A 
HETATM    4  C   UNL     1      43.305 -14.137   5.225  1.00  0.00     0.043 A 
HETATM    5  N   UNL     1      42.866 -13.167   4.348  1.00  0.00    -0.356 N 
HETATM    6  H   UNL     1      43.226 -12.223   4.315  1.00  0.00     0.166 HD
HETATM    7  C   UNL     1      41.852 -13.665   3.576  1.00  0.00     0.045 A 
HETATM    8  C   UNL     1      41.680 -14.998   3.906  1.00  0.00    -0.019 A 
HETATM    9  C   UNL     1      40.701 -15.860   3.176  1.00  0.00     0.061 C 
HETATM   10  C   UNL     1      39.728 -14.978   2.365  1.00  0.00     0.133 C 
HETATM   11  N   UNL     1      40.439 -13.888   1.663  1.00  0.00    -0.320 N 
HETATM   12  C   UNL     1      40.795 -14.111   0.342  1.00  0.00     0.319 C 
HETATM   13  N   UNL     1      41.473 -13.082  -0.262  1.00  0.00    -0.338 N 
HETATM   14  O   UNL     1      40.513 -15.149  -0.251  1.00  0.00    -0.247 OA
HETATM   15  C   UNL     1      41.083 -12.884   2.542  1.00  0.00     0.172 C 
HETATM   16  C   UNL     1      44.294 -14.074   6.210  1.00  0.00     0.033 A 
HETATM   17  C   UNL     1      44.528 -15.229   6.963  1.00  0.00     0.039 A 
HETATM   18  H   UNL     1      41.210 -12.166   0.060  1.00  0.00     0.164 HD
ENDROOT
BRANCH  15  19
HETATM   19  C   UNL     1      40.037 -11.913   3.102  1.00  0.00    -0.029 A 
HETATM   20  C   UNL     1      39.860 -11.679   4.480  1.00  0.00     0.012 A 
HETATM   21  C   UNL     1      38.889 -10.785   4.939  1.00  0.00     0.043 A 
HETATM   22  C   UNL     1      38.080 -10.122   4.029  1.00  0.00     0.116 A 
HETATM   23  F   UNL     1      37.146  -9.270   4.472  1.00  0.00    -0.206 F 
HETATM   24  C   UNL     1      38.220 -10.337   2.666  1.00  0.00     0.043 A 
HETATM   25  C   UNL     1      39.193 -11.227   2.205  1.00  0.00     0.012 A 
ENDBRANCH  15  19
BRANCH  13  26
HETATM   26  C   UNL     1      41.927 -13.121  -1.641  1.00  0.00     0.086 C 
HETATM   27  C   UNL     1      40.822 -13.034  -2.697  1.00  0.00     0.025 C 
HETATM   28  C   UNL     1      41.551 -12.498  -3.919  1.00  0.00     0.002 C 
HETATM   29  C   UNL     1      42.485 -11.450  -3.334  1.00  0.00     0.002 C 
HETATM   30  C   UNL     1      42.954 -12.038  -2.005  1.00  0.00     0.025 C 
ENDBRANCH  13  26
BRANCH   1  31
HETATM   31  O   UNL     1      44.148 -17.440   7.575  1.00  0.00    -0.356 OA
HETATM   32  C   UNL     1      43.555 -18.703   7.299  1.00  0.00     0.210 C 
ENDBRANCH   1  31
TORSDOF 3
ENDMDL
MODEL 8
REMARK VINA RESULT:      -7.3      3.953      6.592
REMARK  3 active torsions:
REMARK  status: ('A' for Active; 'I' for Inactive)
REMARK    1  A    between atoms: O_2  and  C_3 
REMARK       I    between atoms: N_13  and  C_14 
REMARK       I    between atoms: C_14  and  N_15 
REMARK    2  A    between atoms: N_15  and  C_16 
REMARK    3  A    between atoms: C_22  and  C_23 
ROOT
HETATM    1  C   UNL     1      35.780 -13.948  -5.027  1.00  0.00     0.069 A 
HETATM    2  C   UNL     1      36.993 -14.517  -4.622  1.00  0.00     0.051 A 
HETATM    3  C   UNL     1      37.723 -13.923  -3.569  1.00  0.00     0.002 A 
HETATM    4  C   UNL     1      37.203 -12.786  -2.945  1.00  0.00     0.043 A 
HETATM    5  N   UNL     1      38.092 -12.407  -1.961  1.00  0.00    -0.356 N 
HETATM    6  H   UNL     1      37.965 -11.609  -1.354  1.00  0.00     0.166 HD
HETATM    7  C   UNL     1      39.177 -13.243  -1.970  1.00  0.00     0.045 A 
HETATM    8  C   UNL     1      38.954 -14.220  -2.925  1.00  0.00    -0.019 A 
HETATM    9  C   UNL     1      39.916 -15.346  -3.124  1.00  0.00     0.061 C 
HETATM   10  C   UNL     1      41.259 -15.016  -2.437  1.00  0.00     0.133 C 
HETATM   11  N   UNL     1      41.055 -14.431  -1.095  1.00  0.00    -0.320 N 
HETATM   12  C   UNL     1      41.108 -15.296  -0.013  1.00  0.00     0.319 C 
HETATM   13  N   UNL     1      40.889 -14.714   1.210  1.00  0.00    -0.338 N 
HETATM   14  O   UNL     1      41.346 -16.494  -0.136  1.00  0.00    -0.247 OA
HETATM   15  C   UNL     1      40.382 -13.111  -1.077  1.00  0.00     0.172 C 
HETATM   16  C   UNL     1      35.984 -12.215  -3.320  1.00  0.00     0.033 A 
HETATM   17  C   UNL     1      35.287 -12.818  -4.372  1.00  0.00     0.039 A 
HETATM   18  H   UNL     1      41.216 -13.765   1.284  1.00  0.00     0.164 HD
ENDROOT
BRANCH  15  19
HETATM   19  C   UNL     1      41.367 -12.003  -1.467  1.00  0.00    -0.029 A 
HETATM   20  C   UNL     1      41.409 -11.426  -2.751  1.00  0.00     0.012 A 
HETATM   21  C   UNL     1      42.329 -10.419  -3.058  1.00  0.00     0.043 A 
HETATM   22  C   UNL     1      43.221  -9.985  -2.088  1.00  0.00     0.116 A 
HETATM   23  F   UNL     1      44.106  -9.024  -2.386  1.00  0.00    -0.206 F 
HETATM   24  C   UNL     1      43.213 -10.538  -0.817  1.00  0.00     0.043 A 
HETATM   25  C   UNL     1      42.291 -11.541  -0.508  1.00  0.00     0.012 A 
ENDBRANCH  15  19
BRANCH  13  26
HETATM   26  C   UNL     1      40.907 -15.448   2.463  1.00  0.00     0.086 C 
HETATM   27  C   UNL     1      42.292 -15.642   3.087  1.00  0.00     0.025 C 
HETATM   28  C   UNL     1      41.982 -15.853   4.561  1.00  0.00     0.002 C 
HETATM   29  C   UNL     1      40.877 -14.845   4.831  1.00  0.00     0.002 C 
HETATM   30  C   UNL     1      40.020 -14.851   3.566  1.00  0.00     0.025 C 
ENDBRANCH  13  26
BRANCH   1  31
HETATM   31  O   UNL     1      34.983 -14.407  -6.042  1.00  0.00    -0.356 OA
HETATM   32  C   UNL     1      35.346 -14.024  -7.363  1.00  0.00     0.210 C 
ENDBRANCH   1  31
TORSDOF 3
ENDMDL
MODEL 9
REMARK VINA RESULT:      -7.3      3.529      6.433
REMARK  3 active torsions:
REMARK  status: ('A' for Active; 'I' for Inactive)
REMARK    1  A    between atoms: O_2  and  C_3 
REMARK       I    between atoms: N_13  and  C_14 
REMARK       I    between atoms: C_14  and  N_15 
REMARK    2  A    between atoms: N_15  and  C_16 
REMARK    3  A    between atoms: C_22  and  C_23 
ROOT
HETATM    1  C   UNL     1      39.497 -13.676  -1.595  1.00  0.00     0.069 A 
HETATM    2  C   UNL     1      40.523 -13.617  -0.645  1.00  0.00     0.051 A 
HETATM    3  C   UNL     1      40.208 -13.726   0.728  1.00  0.00     0.002 A 
HETATM    4  C   UNL     1      38.874 -13.906   1.101  1.00  0.00     0.043 A 
HETATM    5  N   UNL     1      38.833 -13.985   2.477  1.00  0.00    -0.356 N 
HETATM    6  H   UNL     1      37.988 -14.113   3.017  1.00  0.00     0.166 HD
HETATM    7  C   UNL     1      40.092 -13.819   2.988  1.00  0.00     0.045 A 
HETATM    8  C   UNL     1      40.971 -13.703   1.926  1.00  0.00    -0.019 A 
HETATM    9  C   UNL     1      42.447 -13.598   2.145  1.00  0.00     0.061 C 
HETATM   10  C   UNL     1      42.734 -13.254   3.622  1.00  0.00     0.133 C 
HETATM   11  N   UNL     1      41.893 -14.051   4.540  1.00  0.00    -0.320 N 
HETATM   12  C   UNL     1      42.446 -15.210   5.060  1.00  0.00     0.319 C 
HETATM   13  N   UNL     1      41.622 -15.930   5.888  1.00  0.00    -0.338 N 
HETATM   14  O   UNL     1      43.596 -15.563   4.810  1.00  0.00    -0.247 OA
HETATM   15  C   UNL     1      40.438 -13.787   4.454  1.00  0.00     0.172 C 
HETATM   16  C   UNL     1      37.837 -13.988   0.167  1.00  0.00     0.033 A 
HETATM   17  C   UNL     1      38.177 -13.869  -1.185  1.00  0.00     0.039 A 
HETATM   18  H   UNL     1      40.981 -15.371   6.426  1.00  0.00     0.164 HD
ENDROOT
BRANCH  15  19
HETATM   19  C   UNL     1      40.086 -12.483   5.180  1.00  0.00    -0.029 A 
HETATM   20  C   UNL     1      39.881 -11.260   4.513  1.00  0.00     0.012 A 
HETATM   21  C   UNL     1      39.565 -10.097   5.222  1.00  0.00     0.043 A 
HETATM   22  C   UNL     1      39.459 -10.143   6.604  1.00  0.00     0.116 A 
HETATM   23  F   UNL     1      39.162  -9.027   7.283  1.00  0.00    -0.206 F 
HETATM   24  C   UNL     1      39.666 -11.328   7.293  1.00  0.00     0.043 A 
HETATM   25  C   UNL     1      39.976 -12.492   6.585  1.00  0.00     0.012 A 
ENDBRANCH  15  19
BRANCH  13  26
HETATM   26  C   UNL     1      42.018 -17.169   6.535  1.00  0.00     0.086 C 
HETATM   27  C   UNL     1      42.582 -18.243   5.601  1.00  0.00     0.025 C 
HETATM   28  C   UNL     1      43.430 -19.099   6.529  1.00  0.00     0.002 C 
HETATM   29  C   UNL     1      44.104 -18.075   7.427  1.00  0.00     0.002 C 
HETATM   30  C   UNL     1      43.045 -17.001   7.665  1.00  0.00     0.025 C 
ENDBRANCH  13  26
BRANCH   1  31
HETATM   31  O   UNL     1      39.659 -13.566  -2.950  1.00  0.00    -0.356 OA
HETATM   32  C   UNL     1      40.993 -13.434  -3.427  1.00  0.00     0.210 C 
ENDBRANCH   1  31
TORSDOF 3
ENDMDL
MODEL 10
REMARK VINA RESULT:      -7.2      3.857      7.573
REMARK  3 active torsions:
REMARK  status: ('A' for Active; 'I' for Inactive)
REMARK    1  A    between atoms: O_2  and  C_3 
REMARK       I    between atoms: N_13  and  C_14 
REMARK       I    between atoms: C_14  and  N_15 
REMARK    2  A    between atoms: N_15  and  C_16 
REMARK    3  A    between atoms: C_22  and  C_23 
ROOT
HETATM    1  C   UNL     1      42.855 -17.833   2.018  1.00  0.00     0.069 A 
HETATM    2  C   UNL     1      42.488 -17.194   0.827  1.00  0.00     0.051 A 
HETATM    3  C   UNL     1      42.044 -15.854   0.864  1.00  0.00     0.002 A 
HETATM    4  C   UNL     1      41.997 -15.193   2.094  1.00  0.00     0.043 A 
HETATM    5  N   UNL     1      41.538 -13.914   1.862  1.00  0.00    -0.356 N 
HETATM    6  H   UNL     1      41.404 -13.216   2.581  1.00  0.00     0.166 HD
HETATM    7  C   UNL     1      41.253 -13.758   0.532  1.00  0.00     0.045 A 
HETATM    8  C   UNL     1      41.601 -14.929  -0.119  1.00  0.00    -0.019 A 
HETATM    9  C   UNL     1      41.497 -15.053  -1.605  1.00  0.00     0.061 C 
HETATM   10  C   UNL     1      40.626 -13.910  -2.167  1.00  0.00     0.133 C 
HETATM   11  N   UNL     1      40.963 -12.612  -1.544  1.00  0.00    -0.320 N 
HETATM   12  C   UNL     1      41.860 -11.799  -2.220  1.00  0.00     0.319 C 
HETATM   13  N   UNL     1      42.162 -10.616  -1.593  1.00  0.00    -0.338 N 
HETATM   14  O   UNL     1      42.341 -12.107  -3.307  1.00  0.00    -0.247 OA
HETATM   15  C   UNL     1      40.678 -12.514  -0.093  1.00  0.00     0.172 C 
HETATM   16  C   UNL     1      42.379 -15.806   3.291  1.00  0.00     0.033 A 
HETATM   17  C   UNL     1      42.807 -17.136   3.225  1.00  0.00     0.039 A 
HETATM   18  H   UNL     1      41.406 -10.226  -1.056  1.00  0.00     0.164 HD
ENDROOT
BRANCH  15  19
HETATM   19  C   UNL     1      39.178 -12.297   0.144  1.00  0.00    -0.029 A 
HETATM   20  C   UNL     1      38.303 -13.327   0.542  1.00  0.00     0.012 A 
HETATM   21  C   UNL     1      36.943 -13.078   0.742  1.00  0.00     0.043 A 
HETATM   22  C   UNL     1      36.441 -11.801   0.539  1.00  0.00     0.116 A 
HETATM   23  F   UNL     1      35.135 -11.566   0.726  1.00  0.00    -0.206 F 
HETATM   24  C   UNL     1      37.272 -10.767   0.137  1.00  0.00     0.043 A 
HETATM   25  C   UNL     1      38.633 -11.013  -0.059  1.00  0.00     0.012 A 
ENDBRANCH  15  19
BRANCH  13  26
HETATM   26  C   UNL     1      43.075  -9.629  -2.141  1.00  0.00     0.086 C 
HETATM   27  C   UNL     1      42.419  -8.340  -2.645  1.00  0.00     0.025 C 
HETATM   28  C   UNL     1      43.549  -7.325  -2.575  1.00  0.00     0.002 C 
HETATM   29  C   UNL     1      44.244  -7.669  -1.267  1.00  0.00     0.002 C 
HETATM   30  C   UNL     1      44.194  -9.193  -1.183  1.00  0.00     0.025 C 
ENDBRANCH  13  26
BRANCH   1  31
HETATM   31  O   UNL     1      43.284 -19.128   2.128  1.00  0.00    -0.356 OA
HETATM   32  C   UNL     1      44.036 -19.457   3.290  1.00  0.00     0.210 C 
ENDBRANCH   1  31
TORSDOF 3
ENDMDL
