MODEL 1
REMARK VINA RESULT:      -9.1      0.000      0.000
REMARK  3 active torsions:
REMARK  status: ('A' for Active; 'I' for Inactive)
REMARK    1  A    between atoms: C_8  and  C_9 
REMARK    2  A    between atoms: C_14  and  C_15 
REMARK    3  A    between atoms: C_17  and  O_18 
ROOT
HETATM    1  C   UNL     1      41.588 -14.672  -0.225  1.00  0.00     0.143 A 
HETATM    2  N   UNL     1      40.565 -14.517   0.589  1.00  0.00    -0.223 NA
HETATM    3  C   UNL     1      40.974 -14.956   1.832  1.00  0.00     0.149 A 
HETATM    4  C   UNL     1      42.284 -15.399   1.757  1.00  0.00     0.046 A 
HETATM    5  C   UNL     1      43.202 -15.866   2.830  1.00  0.00     0.070 C 
HETATM    6  C   UNL     1      42.633 -16.992   3.723  1.00  0.00     0.042 C 
HETATM    7  C   UNL     1      41.095 -17.084   3.800  1.00  0.00     0.132 C 
HETATM    8  N   UNL     1      40.427 -15.817   4.038  1.00  0.00    -0.355 N 
HETATM    9  C   UNL     1      40.138 -14.911   3.033  1.00  0.00     0.272 C 
HETATM   10  O   UNL     1      39.210 -14.121   3.192  1.00  0.00    -0.266 OA
HETATM   11  N   UNL     1      42.651 -15.218   0.448  1.00  0.00    -0.341 N 
HETATM   12  H   UNL     1      43.560 -15.403   0.050  1.00  0.00     0.167 HD
HETATM   13  H   UNL     1      39.734 -15.776   4.774  1.00  0.00     0.162 HD
ENDROOT
BRANCH   1  14
HETATM   14  C   UNL     1      41.566 -14.282  -1.660  1.00  0.00     0.059 A 
HETATM   15  C   UNL     1      42.103 -13.152  -2.247  1.00  0.00     0.040 A 
HETATM   16  C   UNL     1      42.845 -11.980  -1.733  1.00  0.00     0.071 C 
HETATM   17  N   UNL     1      41.805 -13.269  -3.581  1.00  0.00    -0.281 N 
HETATM   18  H   UNL     1      42.033 -12.626  -4.331  1.00  0.00     0.189 HD
HETATM   19  N   UNL     1      41.130 -14.380  -3.898  1.00  0.00    -0.179 NA
HETATM   20  C   UNL     1      40.970 -15.009  -2.725  1.00  0.00     0.067 A 
HETATM   21  C   UNL     1      40.236 -16.299  -2.665  1.00  0.00     0.073 C 
ENDBRANCH   1  14
BRANCH   6  22
HETATM   22  C   UNL     1      43.215 -18.356   3.364  1.00  0.00    -0.049 A 
HETATM   23  C   UNL     1      44.070 -19.048   4.243  1.00  0.00     0.044 A 
HETATM   24  C   UNL     1      44.602 -20.290   3.890  1.00  0.00     0.068 A 
HETATM   25  C   UNL     1      44.281 -20.846   2.650  1.00  0.00     0.037 A 
HETATM   26  C   UNL     1      43.440 -20.170   1.766  1.00  0.00     0.003 A 
HETATM   27  C   UNL     1      42.910 -18.932   2.121  1.00  0.00     0.007 A 
BRANCH  24  28
HETATM   28  O   UNL     1      45.436 -21.056   4.656  1.00  0.00    -0.356 OA
HETATM   29  C   UNL     1      44.954 -22.333   5.060  1.00  0.00     0.210 C 
ENDBRANCH  24  28
ENDBRANCH   6  22
TORSDOF 3
ENDMDL
MODEL 2
REMARK VINA RESULT:      -8.8      2.626      5.279
REMARK  3 active torsions:
REMARK  status: ('A' for Active; 'I' for Inactive)
REMARK    1  A    between atoms: C_8  and  C_9 
REMARK    2  A    between atoms: C_14  and  C_15 
REMARK    3  A    between atoms: C_17  and  O_18 
ROOT
HETATM    1  C   UNL     1      41.625 -14.171   4.122  1.00  0.00     0.143 A 
HETATM    2  N   UNL     1      41.860 -13.841   2.869  1.00  0.00    -0.223 NA
HETATM    3  C   UNL     1      41.758 -15.000   2.127  1.00  0.00     0.149 A 
HETATM    4  C   UNL     1      41.464 -16.062   2.965  1.00  0.00     0.046 A 
HETATM    5  C   UNL     1      41.158 -17.482   2.645  1.00  0.00     0.070 C 
HETATM    6  C   UNL     1      42.205 -18.183   1.750  1.00  0.00     0.042 C 
HETATM    7  C   UNL     1      43.061 -17.260   0.859  1.00  0.00     0.132 C 
HETATM    8  N   UNL     1      42.306 -16.262   0.123  1.00  0.00    -0.355 N 
HETATM    9  C   UNL     1      41.908 -15.056   0.671  1.00  0.00     0.272 C 
HETATM   10  O   UNL     1      41.699 -14.103  -0.076  1.00  0.00    -0.266 OA
HETATM   11  N   UNL     1      41.391 -15.518   4.223  1.00  0.00    -0.341 N 
HETATM   12  H   UNL     1      41.157 -16.007   5.073  1.00  0.00     0.167 HD
HETATM   13  H   UNL     1      42.480 -16.171  -0.870  1.00  0.00     0.162 HD
ENDROOT
BRANCH   1  14
HETATM   14  C   UNL     1      41.607 -13.192   5.242  1.00  0.00     0.059 A 
HETATM   15  C   UNL     1      42.551 -13.013   6.236  1.00  0.00     0.040 A 
HETATM   16  C   UNL     1      43.841 -13.662   6.558  1.00  0.00     0.071 C 
HETATM   17  N   UNL     1      42.058 -11.998   7.016  1.00  0.00    -0.281 N 
HETATM   18  H   UNL     1      42.472 -11.589   7.846  1.00  0.00     0.189 HD
HETATM   19  N   UNL     1      40.882 -11.509   6.602  1.00  0.00    -0.179 NA
HETATM   20  C   UNL     1      40.590 -12.239   5.517  1.00  0.00     0.067 A 
HETATM   21  C   UNL     1      39.327 -11.998   4.775  1.00  0.00     0.073 C 
ENDBRANCH   1  14
BRANCH   6  22
HETATM   22  C   UNL     1      43.112 -19.112   2.552  1.00  0.00    -0.049 A 
HETATM   23  C   UNL     1      43.475 -18.822   3.881  1.00  0.00     0.044 A 
HETATM   24  C   UNL     1      44.317 -19.678   4.595  1.00  0.00     0.068 A 
HETATM   25  C   UNL     1      44.802 -20.833   3.977  1.00  0.00     0.037 A 
HETATM   26  C   UNL     1      44.456 -21.131   2.660  1.00  0.00     0.003 A 
HETATM   27  C   UNL     1      43.616 -20.275   1.951  1.00  0.00     0.007 A 
BRANCH  24  28
HETATM   28  O   UNL     1      44.735 -19.507   5.885  1.00  0.00    -0.356 OA
HETATM   29  C   UNL     1      45.135 -18.196   6.267  1.00  0.00     0.210 C 
ENDBRANCH  24  28
ENDBRANCH   6  22
TORSDOF 3
ENDMDL
MODEL 3
REMARK VINA RESULT:      -8.7      2.580      4.802
REMARK  3 active torsions:
REMARK  status: ('A' for Active; 'I' for Inactive)
REMARK    1  A    between atoms: C_8  and  C_9 
REMARK    2  A    between atoms: C_14  and  C_15 
REMARK    3  A    between atoms: C_17  and  O_18 
ROOT
HETATM    1  C   UNL     1      39.763 -13.681   2.696  1.00  0.00     0.143 A 
HETATM    2  N   UNL     1      40.399 -13.538   1.552  1.00  0.00    -0.223 NA
HETATM    3  C   UNL     1      40.783 -14.801   1.150  1.00  0.00     0.149 A 
HETATM    4  C   UNL     1      40.372 -15.730   2.090  1.00  0.00     0.046 A 
HETATM    5  C   UNL     1      40.453 -17.216   2.070  1.00  0.00     0.070 C 
HETATM    6  C   UNL     1      41.863 -17.783   1.791  1.00  0.00     0.042 C 
HETATM    7  C   UNL     1      42.828 -16.854   1.025  1.00  0.00     0.132 C 
HETATM    8  N   UNL     1      42.255 -16.230  -0.153  1.00  0.00    -0.355 N 
HETATM    9  C   UNL     1      41.484 -15.083  -0.105  1.00  0.00     0.272 C 
HETATM   10  O   UNL     1      41.420 -14.365  -1.101  1.00  0.00    -0.266 OA
HETATM   11  N   UNL     1      39.736 -15.002   3.063  1.00  0.00    -0.341 N 
HETATM   12  H   UNL     1      39.280 -15.370   3.884  1.00  0.00     0.167 HD
HETATM   13  H   UNL     1      42.777 -16.281  -1.019  1.00  0.00     0.162 HD
ENDROOT
BRANCH   1  14
HETATM   14  C   UNL     1      39.156 -12.550   3.449  1.00  0.00     0.059 A 
HETATM   15  C   UNL     1      38.344 -11.541   2.967  1.00  0.00     0.040 A 
HETATM   16  C   UNL     1      37.802 -11.207   1.631  1.00  0.00     0.071 C 
HETATM   17  N   UNL     1      38.065 -10.758   4.057  1.00  0.00    -0.281 N 
HETATM   18  H   UNL     1      37.500  -9.917   4.095  1.00  0.00     0.189 HD
HETATM   19  N   UNL     1      38.624 -11.183   5.197  1.00  0.00    -0.179 NA
HETATM   20  C   UNL     1      39.303 -12.281   4.835  1.00  0.00     0.067 A 
HETATM   21  C   UNL     1      40.084 -13.039   5.845  1.00  0.00     0.073 C 
ENDBRANCH   1  14
BRANCH   6  22
HETATM   22  C   UNL     1      42.536 -18.293   3.062  1.00  0.00    -0.049 A 
HETATM   23  C   UNL     1      43.607 -19.205   3.014  1.00  0.00     0.044 A 
HETATM   24  C   UNL     1      44.203 -19.670   4.189  1.00  0.00     0.068 A 
HETATM   25  C   UNL     1      43.725 -19.222   5.422  1.00  0.00     0.037 A 
HETATM   26  C   UNL     1      42.661 -18.323   5.486  1.00  0.00     0.003 A 
HETATM   27  C   UNL     1      42.069 -17.861   4.313  1.00  0.00     0.007 A 
BRANCH  24  28
HETATM   28  O   UNL     1      45.247 -20.549   4.270  1.00  0.00    -0.356 OA
HETATM   29  C   UNL     1      45.009 -21.775   4.951  1.00  0.00     0.210 C 
ENDBRANCH  24  28
ENDBRANCH   6  22
TORSDOF 3
ENDMDL
MODEL 4
REMARK VINA RESULT:      -8.5      3.007      5.005
REMARK  3 active torsions:
REMARK  status: ('A' for Active; 'I' for Inactive)
REMARK    1  A    between atoms: C_8  and  C_9 
REMARK    2  A    between atoms: C_14  and  C_15 
REMARK    3  A    between atoms: C_17  and  O_18 
ROOT
HETATM    1  C   UNL     1      39.564 -13.522   2.400  1.00  0.00     0.143 A 
HETATM    2  N   UNL     1      40.248 -13.459   1.276  1.00  0.00    -0.223 NA
HETATM    3  C   UNL     1      40.670 -14.743   0.995  1.00  0.00     0.149 A 
HETATM    4  C   UNL     1      40.234 -15.601   1.990  1.00  0.00     0.046 A 
HETATM    5  C   UNL     1      40.339 -17.081   2.095  1.00  0.00     0.070 C 
HETATM    6  C   UNL     1      41.770 -17.642   1.924  1.00  0.00     0.042 C 
HETATM    7  C   UNL     1      42.752 -16.759   1.127  1.00  0.00     0.132 C 
HETATM    8  N   UNL     1      42.222 -16.243  -0.122  1.00  0.00    -0.355 N 
HETATM    9  C   UNL     1      41.431 -15.111  -0.201  1.00  0.00     0.272 C 
HETATM   10  O   UNL     1      41.399 -14.479  -1.254  1.00  0.00    -0.266 OA
HETATM   11  N   UNL     1      39.543 -14.809   2.872  1.00  0.00    -0.341 N 
HETATM   12  H   UNL     1      39.057 -15.119   3.700  1.00  0.00     0.167 HD
HETATM   13  H   UNL     1      42.783 -16.353  -0.958  1.00  0.00     0.162 HD
ENDROOT
BRANCH   1  14
HETATM   14  C   UNL     1      38.906 -12.347   3.030  1.00  0.00     0.059 A 
HETATM   15  C   UNL     1      38.001 -11.468   2.465  1.00  0.00     0.040 A 
HETATM   16  C   UNL     1      37.381 -11.351   1.126  1.00  0.00     0.071 C 
HETATM   17  N   UNL     1      37.710 -10.569   3.458  1.00  0.00    -0.281 N 
HETATM   18  H   UNL     1      37.085  -9.772   3.416  1.00  0.00     0.189 HD
HETATM   19  N   UNL     1      38.346 -10.801   4.613  1.00  0.00    -0.179 NA
HETATM   20  C   UNL     1      39.090 -11.887   4.361  1.00  0.00     0.067 A 
HETATM   21  C   UNL     1      39.967 -12.450   5.419  1.00  0.00     0.073 C 
ENDBRANCH   1  14
BRANCH   6  22
HETATM   22  C   UNL     1      42.394 -18.033   3.260  1.00  0.00    -0.049 A 
HETATM   23  C   UNL     1      41.912 -17.517   4.478  1.00  0.00     0.044 A 
HETATM   24  C   UNL     1      42.505 -17.877   5.690  1.00  0.00     0.068 A 
HETATM   25  C   UNL     1      43.590 -18.756   5.688  1.00  0.00     0.037 A 
HETATM   26  C   UNL     1      44.083 -19.271   4.489  1.00  0.00     0.003 A 
HETATM   27  C   UNL     1      43.488 -18.910   3.281  1.00  0.00     0.007 A 
BRANCH  24  28
HETATM   28  O   UNL     1      42.126 -17.448   6.932  1.00  0.00    -0.356 OA
HETATM   29  C   UNL     1      43.135 -17.390   7.933  1.00  0.00     0.210 C 
ENDBRANCH  24  28
ENDBRANCH   6  22
TORSDOF 3
ENDMDL
MODEL 5
REMARK VINA RESULT:      -8.2      3.757      7.547
REMARK  3 active torsions:
REMARK  status: ('A' for Active; 'I' for Inactive)
REMARK    1  A    between atoms: C_8  and  C_9 
REMARK    2  A    between atoms: C_14  and  C_15 
REMARK    3  A    between atoms: C_17  and  O_18 
ROOT
HETATM    1  C   UNL     1      43.251 -17.450   4.569  1.00  0.00     0.143 A 
HETATM    2  N   UNL     1      44.010 -16.607   5.239  1.00  0.00    -0.223 NA
HETATM    3  C   UNL     1      43.173 -15.630   5.739  1.00  0.00     0.149 A 
HETATM    4  C   UNL     1      41.871 -15.890   5.346  1.00  0.00     0.046 A 
HETATM    5  C   UNL     1      40.604 -15.200   5.706  1.00  0.00     0.070 C 
HETATM    6  C   UNL     1      40.610 -13.672   5.472  1.00  0.00     0.042 C 
HETATM    7  C   UNL     1      41.995 -12.992   5.471  1.00  0.00     0.132 C 
HETATM    8  N   UNL     1      42.853 -13.372   6.579  1.00  0.00    -0.355 N 
HETATM    9  C   UNL     1      43.622 -14.521   6.584  1.00  0.00     0.272 C 
HETATM   10  O   UNL     1      44.629 -14.561   7.288  1.00  0.00    -0.266 OA
HETATM   11  N   UNL     1      41.943 -17.040   4.601  1.00  0.00    -0.341 N 
HETATM   12  H   UNL     1      41.167 -17.534   4.188  1.00  0.00     0.167 HD
HETATM   13  H   UNL     1      43.299 -12.633   7.109  1.00  0.00     0.162 HD
ENDROOT
BRANCH   1  14
HETATM   14  C   UNL     1      43.770 -18.672   3.899  1.00  0.00     0.059 A 
HETATM   15  C   UNL     1      43.944 -18.897   2.547  1.00  0.00     0.040 A 
HETATM   16  C   UNL     1      43.705 -18.088   1.331  1.00  0.00     0.071 C 
HETATM   17  N   UNL     1      44.439 -20.173   2.459  1.00  0.00    -0.281 N 
HETATM   18  H   UNL     1      44.687 -20.691   1.624  1.00  0.00     0.189 HD
HETATM   19  N   UNL     1      44.602 -20.781   3.640  1.00  0.00    -0.179 NA
HETATM   20  C   UNL     1      44.188 -19.872   4.534  1.00  0.00     0.067 A 
HETATM   21  C   UNL     1      44.202 -20.193   5.984  1.00  0.00     0.073 C 
ENDBRANCH   1  14
BRANCH   6  22
HETATM   22  C   UNL     1      39.844 -13.283   4.210  1.00  0.00    -0.049 A 
HETATM   23  C   UNL     1      39.761 -14.148   3.103  1.00  0.00     0.044 A 
HETATM   24  C   UNL     1      39.066 -13.769   1.952  1.00  0.00     0.068 A 
HETATM   25  C   UNL     1      38.451 -12.517   1.905  1.00  0.00     0.037 A 
HETATM   26  C   UNL     1      38.529 -11.647   2.991  1.00  0.00     0.003 A 
HETATM   27  C   UNL     1      39.222 -12.028   4.138  1.00  0.00     0.007 A 
BRANCH  24  28
HETATM   28  O   UNL     1      38.912 -14.520   0.819  1.00  0.00    -0.356 OA
HETATM   29  C   UNL     1      39.438 -13.984  -0.389  1.00  0.00     0.210 C 
ENDBRANCH  24  28
ENDBRANCH   6  22
TORSDOF 3
ENDMDL
MODEL 6
REMARK VINA RESULT:      -8.1      1.499      1.694
REMARK  3 active torsions:
REMARK  status: ('A' for Active; 'I' for Inactive)
REMARK    1  A    between atoms: C_8  and  C_9 
REMARK    2  A    between atoms: C_14  and  C_15 
REMARK    3  A    between atoms: C_17  and  O_18 
ROOT
HETATM    1  C   UNL     1      41.340 -13.918   1.519  1.00  0.00     0.143 A 
HETATM    2  N   UNL     1      40.416 -13.945   2.457  1.00  0.00    -0.223 NA
HETATM    3  C   UNL     1      40.950 -14.643   3.521  1.00  0.00     0.149 A 
HETATM    4  C   UNL     1      42.233 -15.056   3.206  1.00  0.00     0.046 A 
HETATM    5  C   UNL     1      43.254 -15.743   4.043  1.00  0.00     0.070 C 
HETATM    6  C   UNL     1      42.761 -17.037   4.730  1.00  0.00     0.042 C 
HETATM    7  C   UNL     1      41.239 -17.146   4.958  1.00  0.00     0.132 C 
HETATM    8  N   UNL     1      40.630 -15.962   5.537  1.00  0.00    -0.355 N 
HETATM    9  C   UNL     1      40.253 -14.861   4.790  1.00  0.00     0.272 C 
HETATM   10  O   UNL     1      39.366 -14.126   5.219  1.00  0.00    -0.266 OA
HETATM   11  N   UNL     1      42.458 -14.595   1.934  1.00  0.00    -0.341 N 
HETATM   12  H   UNL     1      43.313 -14.688   1.406  1.00  0.00     0.167 HD
HETATM   13  H   UNL     1      40.023 -16.084   6.338  1.00  0.00     0.162 HD
ENDROOT
BRANCH   1  14
HETATM   14  C   UNL     1      41.168 -13.227   0.213  1.00  0.00     0.059 A 
HETATM   15  C   UNL     1      41.106 -11.868  -0.033  1.00  0.00     0.040 A 
HETATM   16  C   UNL     1      41.176 -10.664   0.824  1.00  0.00     0.071 C 
HETATM   17  N   UNL     1      40.935 -11.759  -1.389  1.00  0.00    -0.281 N 
HETATM   18  H   UNL     1      40.843 -10.915  -1.942  1.00  0.00     0.189 HD
HETATM   19  N   UNL     1      40.890 -12.932  -2.033  1.00  0.00    -0.179 NA
HETATM   20  C   UNL     1      41.025 -13.843  -1.058  1.00  0.00     0.067 A 
HETATM   21  C   UNL     1      41.006 -15.291  -1.385  1.00  0.00     0.073 C 
ENDBRANCH   1  14
BRANCH   6  22
HETATM   22  C   UNL     1      43.268 -18.290   4.021  1.00  0.00    -0.049 A 
HETATM   23  C   UNL     1      44.155 -19.184   4.650  1.00  0.00     0.044 A 
HETATM   24  C   UNL     1      44.618 -20.319   3.980  1.00  0.00     0.068 A 
HETATM   25  C   UNL     1      44.195 -20.563   2.672  1.00  0.00     0.037 A 
HETATM   26  C   UNL     1      43.321 -19.683   2.034  1.00  0.00     0.003 A 
HETATM   27  C   UNL     1      42.861 -18.553   2.705  1.00  0.00     0.007 A 
BRANCH  24  28
HETATM   28  O   UNL     1      45.474 -21.259   4.484  1.00  0.00    -0.356 OA
HETATM   29  C   UNL     1      44.894 -22.446   5.011  1.00  0.00     0.210 C 
ENDBRANCH  24  28
ENDBRANCH   6  22
TORSDOF 3
ENDMDL
MODEL 7
REMARK VINA RESULT:      -8.1      1.783      2.343
REMARK  3 active torsions:
REMARK  status: ('A' for Active; 'I' for Inactive)
REMARK    1  A    between atoms: C_8  and  C_9 
REMARK    2  A    between atoms: C_14  and  C_15 
REMARK    3  A    between atoms: C_17  and  O_18 
ROOT
HETATM    1  C   UNL     1      41.656 -14.254   1.826  1.00  0.00     0.143 A 
HETATM    2  N   UNL     1      40.686 -14.249   2.715  1.00  0.00    -0.223 NA
HETATM    3  C   UNL     1      41.192 -14.832   3.859  1.00  0.00     0.149 A 
HETATM    4  C   UNL     1      42.507 -15.209   3.644  1.00  0.00     0.046 A 
HETATM    5  C   UNL     1      43.509 -15.777   4.584  1.00  0.00     0.070 C 
HETATM    6  C   UNL     1      43.037 -17.033   5.352  1.00  0.00     0.042 C 
HETATM    7  C   UNL     1      41.511 -17.195   5.511  1.00  0.00     0.132 C 
HETATM    8  N   UNL     1      40.821 -15.999   5.959  1.00  0.00    -0.355 N 
HETATM    9  C   UNL     1      40.437 -14.980   5.106  1.00  0.00     0.272 C 
HETATM   10  O   UNL     1      39.498 -14.256   5.428  1.00  0.00    -0.266 OA
HETATM   11  N   UNL     1      42.779 -14.842   2.350  1.00  0.00    -0.341 N 
HETATM   12  H   UNL     1      43.663 -14.937   1.875  1.00  0.00     0.167 HD
HETATM   13  H   UNL     1      40.179 -16.084   6.737  1.00  0.00     0.162 HD
ENDROOT
BRANCH   1  14
HETATM   14  C   UNL     1      41.525 -13.679   0.460  1.00  0.00     0.059 A 
HETATM   15  C   UNL     1      41.559 -12.349   0.086  1.00  0.00     0.040 A 
HETATM   16  C   UNL     1      41.722 -11.077   0.824  1.00  0.00     0.071 C 
HETATM   17  N   UNL     1      41.386 -12.358  -1.274  1.00  0.00    -0.281 N 
HETATM   18  H   UNL     1      41.351 -11.565  -1.905  1.00  0.00     0.189 HD
HETATM   19  N   UNL     1      41.252 -13.580  -1.803  1.00  0.00    -0.179 NA
HETATM   20  C   UNL     1      41.328 -14.401  -0.747  1.00  0.00     0.067 A 
HETATM   21  C   UNL     1      41.202 -15.869  -0.934  1.00  0.00     0.073 C 
ENDBRANCH   1  14
BRANCH   6  22
HETATM   22  C   UNL     1      43.635 -18.314   4.776  1.00  0.00    -0.049 A 
HETATM   23  C   UNL     1      43.303 -18.766   3.484  1.00  0.00     0.044 A 
HETATM   24  C   UNL     1      43.850 -19.948   2.979  1.00  0.00     0.068 A 
HETATM   25  C   UNL     1      44.734 -20.685   3.769  1.00  0.00     0.037 A 
HETATM   26  C   UNL     1      45.068 -20.253   5.053  1.00  0.00     0.003 A 
HETATM   27  C   UNL     1      44.521 -19.074   5.553  1.00  0.00     0.007 A 
BRANCH  24  28
HETATM   28  O   UNL     1      43.609 -20.485   1.745  1.00  0.00    -0.356 OA
HETATM   29  C   UNL     1      43.977 -21.844   1.548  1.00  0.00     0.210 C 
ENDBRANCH  24  28
ENDBRANCH   6  22
TORSDOF 3
ENDMDL
MODEL 8
REMARK VINA RESULT:      -8.1      3.745      7.542
REMARK  3 active torsions:
REMARK  status: ('A' for Active; 'I' for Inactive)
REMARK    1  A    between atoms: C_8  and  C_9 
REMARK    2  A    between atoms: C_14  and  C_15 
REMARK    3  A    between atoms: C_17  and  O_18 
ROOT
HETATM    1  C   UNL     1      43.272 -17.620   4.587  1.00  0.00     0.143 A 
HETATM    2  N   UNL     1      44.029 -16.802   5.287  1.00  0.00    -0.223 NA
HETATM    3  C   UNL     1      43.196 -15.827   5.798  1.00  0.00     0.149 A 
HETATM    4  C   UNL     1      41.898 -16.063   5.380  1.00  0.00     0.046 A 
HETATM    5  C   UNL     1      40.633 -15.368   5.738  1.00  0.00     0.070 C 
HETATM    6  C   UNL     1      40.659 -13.835   5.541  1.00  0.00     0.042 C 
HETATM    7  C   UNL     1      42.051 -13.171   5.576  1.00  0.00     0.132 C 
HETATM    8  N   UNL     1      42.888 -13.586   6.687  1.00  0.00    -0.355 N 
HETATM    9  C   UNL     1      43.645 -14.744   6.676  1.00  0.00     0.272 C 
HETATM   10  O   UNL     1      44.641 -14.812   7.393  1.00  0.00    -0.266 OA
HETATM   11  N   UNL     1      41.968 -17.196   4.609  1.00  0.00    -0.341 N 
HETATM   12  H   UNL     1      41.193 -17.671   4.173  1.00  0.00     0.167 HD
HETATM   13  H   UNL     1      43.334 -12.866   7.242  1.00  0.00     0.162 HD
ENDROOT
BRANCH   1  14
HETATM   14  C   UNL     1      43.787 -18.832   3.896  1.00  0.00     0.059 A 
HETATM   15  C   UNL     1      44.223 -20.016   4.459  1.00  0.00     0.040 A 
HETATM   16  C   UNL     1      44.344 -20.511   5.848  1.00  0.00     0.071 C 
HETATM   17  N   UNL     1      44.597 -20.798   3.397  1.00  0.00    -0.281 N 
HETATM   18  H   UNL     1      44.974 -21.740   3.415  1.00  0.00     0.189 HD
HETATM   19  N   UNL     1      44.432 -20.218   2.202  1.00  0.00    -0.179 NA
HETATM   20  C   UNL     1      43.941 -19.006   2.495  1.00  0.00     0.067 A 
HETATM   21  C   UNL     1      43.639 -18.042   1.406  1.00  0.00     0.073 C 
ENDBRANCH   1  14
BRANCH   6  22
HETATM   22  C   UNL     1      39.916 -13.408   4.278  1.00  0.00    -0.049 A 
HETATM   23  C   UNL     1      39.829 -14.250   3.153  1.00  0.00     0.044 A 
HETATM   24  C   UNL     1      39.155 -13.836   2.002  1.00  0.00     0.068 A 
HETATM   25  C   UNL     1      38.566 -12.571   1.970  1.00  0.00     0.037 A 
HETATM   26  C   UNL     1      38.649 -11.723   3.074  1.00  0.00     0.003 A 
HETATM   27  C   UNL     1      39.321 -12.139   4.221  1.00  0.00     0.007 A 
BRANCH  24  28
HETATM   28  O   UNL     1      39.000 -14.563   0.854  1.00  0.00    -0.356 OA
HETATM   29  C   UNL     1      39.515 -13.996  -0.345  1.00  0.00     0.210 C 
ENDBRANCH  24  28
ENDBRANCH   6  22
TORSDOF 3
ENDMDL
MODEL 9
REMARK VINA RESULT:      -8.0      3.854      7.890
REMARK  3 active torsions:
REMARK  status: ('A' for Active; 'I' for Inactive)
REMARK    1  A    between atoms: C_8  and  C_9 
REMARK    2  A    between atoms: C_14  and  C_15 
REMARK    3  A    between atoms: C_17  and  O_18 
ROOT
HETATM    1  C   UNL     1      43.464 -18.327   5.372  1.00  0.00     0.143 A 
HETATM    2  N   UNL     1      44.117 -17.387   6.023  1.00  0.00    -0.223 NA
HETATM    3  C   UNL     1      43.303 -16.273   6.036  1.00  0.00     0.149 A 
HETATM    4  C   UNL     1      42.128 -16.550   5.360  1.00  0.00     0.046 A 
HETATM    5  C   UNL     1      40.903 -15.725   5.184  1.00  0.00     0.070 C 
HETATM    6  C   UNL     1      41.154 -14.305   4.628  1.00  0.00     0.042 C 
HETATM    7  C   UNL     1      42.563 -13.723   4.867  1.00  0.00     0.132 C 
HETATM    8  N   UNL     1      43.049 -13.863   6.227  1.00  0.00    -0.355 N 
HETATM    9  C   UNL     1      43.646 -15.015   6.705  1.00  0.00     0.272 C 
HETATM   10  O   UNL     1      44.422 -14.935   7.655  1.00  0.00    -0.266 OA
HETATM   11  N   UNL     1      42.252 -17.851   4.941  1.00  0.00    -0.341 N 
HETATM   12  H   UNL     1      41.557 -18.389   4.446  1.00  0.00     0.167 HD
HETATM   13  H   UNL     1      43.427 -13.042   6.683  1.00  0.00     0.162 HD
ENDROOT
BRANCH   1  14
HETATM   14  C   UNL     1      43.988 -19.703   5.165  1.00  0.00     0.059 A 
HETATM   15  C   UNL     1      44.456 -20.273   3.996  1.00  0.00     0.040 A 
HETATM   16  C   UNL     1      44.609 -19.789   2.606  1.00  0.00     0.071 C 
HETATM   17  N   UNL     1      44.811 -21.552   4.341  1.00  0.00    -0.281 N 
HETATM   18  H   UNL     1      45.193 -22.277   3.745  1.00  0.00     0.189 HD
HETATM   19  N   UNL     1      44.616 -21.847   5.632  1.00  0.00    -0.179 NA
HETATM   20  C   UNL     1      44.103 -20.721   6.149  1.00  0.00     0.067 A 
HETATM   21  C   UNL     1      43.733 -20.663   7.586  1.00  0.00     0.073 C 
ENDBRANCH   1  14
BRANCH   6  22
HETATM   22  C   UNL     1      40.796 -14.199   3.148  1.00  0.00    -0.049 A 
HETATM   23  C   UNL     1      41.673 -13.607   2.218  1.00  0.00     0.044 A 
HETATM   24  C   UNL     1      41.322 -13.508   0.870  1.00  0.00     0.068 A 
HETATM   25  C   UNL     1      40.087 -14.001   0.445  1.00  0.00     0.037 A 
HETATM   26  C   UNL     1      39.205 -14.585   1.355  1.00  0.00     0.003 A 
HETATM   27  C   UNL     1      39.558 -14.683   2.699  1.00  0.00     0.007 A 
BRANCH  24  28
HETATM   28  O   UNL     1      42.086 -12.961  -0.123  1.00  0.00    -0.356 OA
HETATM   29  C   UNL     1      41.704 -13.243  -1.464  1.00  0.00     0.210 C 
ENDBRANCH  24  28
ENDBRANCH   6  22
TORSDOF 3
ENDMDL
MODEL 10
REMARK VINA RESULT:      -8.0      2.144      3.236
REMARK  3 active torsions:
REMARK  status: ('A' for Active; 'I' for Inactive)
REMARK    1  A    between atoms: C_8  and  C_9 
REMARK    2  A    between atoms: C_14  and  C_15 
REMARK    3  A    between atoms: C_17  and  O_18 
ROOT
HETATM    1  C   UNL     1      41.685 -14.154   2.094  1.00  0.00     0.143 A 
HETATM    2  N   UNL     1      40.635 -13.895   2.847  1.00  0.00    -0.223 NA
HETATM    3  C   UNL     1      40.994 -14.194   4.146  1.00  0.00     0.149 A 
HETATM    4  C   UNL     1      42.298 -14.657   4.171  1.00  0.00     0.046 A 
HETATM    5  C   UNL     1      43.170 -15.008   5.323  1.00  0.00     0.070 C 
HETATM    6  C   UNL     1      42.553 -16.018   6.317  1.00  0.00     0.042 C 
HETATM    7  C   UNL     1      41.012 -16.083   6.347  1.00  0.00     0.132 C 
HETATM    8  N   UNL     1      40.355 -14.790   6.414  1.00  0.00    -0.355 N 
HETATM    9  C   UNL     1      40.116 -14.002   5.302  1.00  0.00     0.272 C 
HETATM   10  O   UNL     1      39.195 -13.189   5.336  1.00  0.00    -0.266 OA
HETATM   11  N   UNL     1      42.715 -14.631   2.864  1.00  0.00    -0.341 N 
HETATM   12  H   UNL     1      43.633 -14.871   2.524  1.00  0.00     0.167 HD
HETATM   13  H   UNL     1      39.637 -14.658   7.115  1.00  0.00     0.162 HD
ENDROOT
BRANCH   1  14
HETATM   14  C   UNL     1      41.720 -13.931   0.624  1.00  0.00     0.059 A 
HETATM   15  C   UNL     1      41.605 -14.869  -0.385  1.00  0.00     0.040 A 
HETATM   16  C   UNL     1      41.420 -16.337  -0.408  1.00  0.00     0.071 C 
HETATM   17  N   UNL     1      41.709 -14.152  -1.549  1.00  0.00    -0.281 N 
HETATM   18  H   UNL     1      41.675 -14.498  -2.502  1.00  0.00     0.189 HD
HETATM   19  N   UNL     1      41.873 -12.836  -1.372  1.00  0.00    -0.179 NA
HETATM   20  C   UNL     1      41.889 -12.687  -0.040  1.00  0.00     0.067 A 
HETATM   21  C   UNL     1      42.074 -11.340   0.558  1.00  0.00     0.073 C 
ENDBRANCH   1  14
BRANCH   6  22
HETATM   22  C   UNL     1      43.125 -17.421   6.137  1.00  0.00    -0.049 A 
HETATM   23  C   UNL     1      43.447 -17.928   4.864  1.00  0.00     0.044 A 
HETATM   24  C   UNL     1      43.958 -19.220   4.719  1.00  0.00     0.068 A 
HETATM   25  C   UNL     1      44.147 -20.013   5.852  1.00  0.00     0.037 A 
HETATM   26  C   UNL     1      43.827 -19.528   7.119  1.00  0.00     0.003 A 
HETATM   27  C   UNL     1      43.318 -18.239   7.261  1.00  0.00     0.007 A 
BRANCH  24  28
HETATM   28  O   UNL     1      44.311 -19.819   3.541  1.00  0.00    -0.356 OA
HETATM   29  C   UNL     1      43.591 -19.432   2.377  1.00  0.00     0.210 C 
ENDBRANCH  24  28
ENDBRANCH   6  22
TORSDOF 3
ENDMDL
