MODEL 1
REMARK VINA RESULT:      -8.7      0.000      0.000
REMARK  8 active torsions:
REMARK  status: ('A' for Active; 'I' for Inactive)
REMARK    1  A    between atoms: C_2  and  C_3 
REMARK    2  A    between atoms: C_3  and  C_4 
REMARK       I    between atoms: C_4  and  N_5 
REMARK    3  A    between atoms: N_8  and  C_9 
REMARK    4  A    between atoms: C_13  and  N_14 
REMARK    5  A    between atoms: N_14  and  C_15 
REMARK    6  A    between atoms: C_15  and  N_16 
REMARK       I    between atoms: N_16  and  C_17 
REMARK    7  A    between atoms: C_17  and  C_18 
REMARK    8  A    between atoms: C_19  and  O_20 
ROOT
HETATM    1  C   UNL     1      41.814 -14.436   2.326  1.00  0.00     0.052 A 
HETATM    2  C   UNL     1      40.822 -14.698   3.296  1.00  0.00     0.062 A 
HETATM    3 CL   UNL     1      39.123 -14.464   3.033  1.00  0.00    -0.082 Cl
HETATM    4  C   UNL     1      41.160 -15.131   4.591  1.00  0.00     0.055 A 
HETATM    5  C   UNL     1      42.490 -15.266   4.981  1.00  0.00     0.036 A 
HETATM    6  C   UNL     1      43.491 -14.934   4.073  1.00  0.00     0.032 A 
HETATM    7  C   UNL     1      43.151 -14.539   2.770  1.00  0.00     0.033 A 
ENDROOT
BRANCH   5   8
HETATM    8  N   UNL     1      42.745 -15.843   6.245  1.00  0.00    -0.333 N 
HETATM    9  H   UNL     1      42.314 -15.357   7.024  1.00  0.00     0.168 HD
BRANCH   8  10
HETATM   10  C   UNL     1      43.127 -17.116   6.510  1.00  0.00     0.179 C 
HETATM   11  S   UNL     1      43.295 -17.627   8.092  1.00  0.00    -0.040 SA
BRANCH  10  12
HETATM   12  N   UNL     1      43.454 -17.978   5.506  1.00  0.00    -0.299 N 
HETATM   13  C   UNL     1      44.658 -18.677   5.449  1.00  0.00     0.260 C 
HETATM   14  O   UNL     1      45.747 -18.276   5.835  1.00  0.00    -0.267 OA
HETATM   15  H   UNL     1      42.645 -18.495   5.187  1.00  0.00     0.171 HD
BRANCH  13  16
HETATM   16  C   UNL     1      44.549 -20.023   4.821  1.00  0.00     0.066 A 
HETATM   17  C   UNL     1      44.375 -20.206   3.438  1.00  0.00     0.089 A 
HETATM   18  C   UNL     1      44.372 -21.512   2.905  1.00  0.00    -0.028 A 
HETATM   19  C   UNL     1      44.238 -21.739   1.424  1.00  0.00     0.051 C 
HETATM   20  C   UNL     1      44.514 -22.615   3.761  1.00  0.00     0.009 A 
HETATM   21  C   UNL     1      44.682 -22.432   5.131  1.00  0.00     0.002 A 
HETATM   22  C   UNL     1      44.711 -21.143   5.658  1.00  0.00     0.020 A 
BRANCH  17  23
HETATM   23  O   UNL     1      44.276 -19.197   2.515  1.00  0.00    -0.354 OA
HETATM   24  C   UNL     1      42.949 -18.780   2.208  1.00  0.00     0.210 C 
ENDBRANCH  17  23
ENDBRANCH  13  16
ENDBRANCH  10  12
ENDBRANCH   8  10
ENDBRANCH   5   8
BRANCH   1  25
HETATM   25  N   UNL     1      41.620 -14.177   0.965  1.00  0.00    -0.376 N 
HETATM   26  C   UNL     1      41.864 -15.291   0.024  1.00  0.00     0.143 C 
HETATM   27  C   UNL     1      41.055 -15.076  -1.273  1.00  0.00     0.145 C 
HETATM   28  N   UNL     1      41.215 -13.735  -1.854  1.00  0.00    -0.349 N 
HETATM   29  C   UNL     1      40.931 -13.585  -3.210  1.00  0.00     0.219 C 
HETATM   30  C   UNL     1      41.121 -12.627  -0.893  1.00  0.00     0.145 C 
HETATM   31  O   UNL     1      40.700 -14.549  -3.940  1.00  0.00    -0.273 OA
HETATM   32  C   UNL     1      41.943 -12.864   0.386  1.00  0.00     0.143 C 
BRANCH  29  33
HETATM   33  C   UNL     1      40.951 -12.162  -3.755  1.00  0.00     0.103 C 
BRANCH  33  34
HETATM   34  C   UNL     1      42.337 -11.725  -4.223  1.00  0.00     0.005 C 
HETATM   35  C   UNL     1      42.400 -10.220  -4.438  1.00  0.00     0.005 C 
ENDBRANCH  33  34
ENDBRANCH  29  33
ENDBRANCH   1  25
TORSDOF 8
ENDMDL
MODEL 2
REMARK VINA RESULT:      -8.7      5.546      9.712
REMARK  8 active torsions:
REMARK  status: ('A' for Active; 'I' for Inactive)
REMARK    1  A    between atoms: C_2  and  C_3 
REMARK    2  A    between atoms: C_3  and  C_4 
REMARK       I    between atoms: C_4  and  N_5 
REMARK    3  A    between atoms: N_8  and  C_9 
REMARK    4  A    between atoms: C_13  and  N_14 
REMARK    5  A    between atoms: N_14  and  C_15 
REMARK    6  A    between atoms: C_15  and  N_16 
REMARK       I    between atoms: N_16  and  C_17 
REMARK    7  A    between atoms: C_17  and  C_18 
REMARK    8  A    between atoms: C_19  and  O_20 
ROOT
HETATM    1  C   UNL     1      42.380 -15.040   4.889  1.00  0.00     0.052 A 
HETATM    2  C   UNL     1      41.162 -14.582   4.342  1.00  0.00     0.062 A 
HETATM    3 CL   UNL     1      40.261 -15.436   3.130  1.00  0.00    -0.082 Cl
HETATM    4  C   UNL     1      40.609 -13.346   4.720  1.00  0.00     0.055 A 
HETATM    5  C   UNL     1      41.271 -12.502   5.609  1.00  0.00     0.036 A 
HETATM    6  C   UNL     1      42.514 -12.889   6.099  1.00  0.00     0.032 A 
HETATM    7  C   UNL     1      43.046 -14.139   5.751  1.00  0.00     0.033 A 
ENDROOT
BRANCH   5   8
HETATM    8  N   UNL     1      40.584 -11.347   6.049  1.00  0.00    -0.333 N 
HETATM    9  H   UNL     1      39.709 -11.535   6.526  1.00  0.00     0.168 HD
BRANCH   8  10
HETATM   10  C   UNL     1      41.099 -10.115   6.271  1.00  0.00     0.179 C 
HETATM   11  S   UNL     1      41.187  -9.007   5.022  1.00  0.00    -0.040 SA
BRANCH  10  12
HETATM   12  N   UNL     1      41.624  -9.776   7.483  1.00  0.00    -0.299 N 
HETATM   13  C   UNL     1      41.339 -10.456   8.666  1.00  0.00     0.260 C 
HETATM   14  O   UNL     1      40.274 -10.978   8.963  1.00  0.00    -0.267 OA
HETATM   15  H   UNL     1      42.580  -9.458   7.393  1.00  0.00     0.171 HD
BRANCH  13  16
HETATM   16  C   UNL     1      42.471 -10.488   9.634  1.00  0.00     0.066 A 
HETATM   17  C   UNL     1      42.385  -9.939  10.924  1.00  0.00     0.089 A 
HETATM   18  C   UNL     1      43.468 -10.090  11.816  1.00  0.00    -0.028 A 
HETATM   19  C   UNL     1      43.388  -9.556  13.221  1.00  0.00     0.051 C 
HETATM   20  C   UNL     1      44.627 -10.762  11.399  1.00  0.00     0.009 A 
HETATM   21  C   UNL     1      44.711 -11.301  10.119  1.00  0.00     0.002 A 
HETATM   22  C   UNL     1      43.635 -11.177   9.243  1.00  0.00     0.020 A 
BRANCH  17  23
HETATM   23  O   UNL     1      41.283  -9.309  11.442  1.00  0.00    -0.354 OA
HETATM   24  C   UNL     1      41.127  -7.945  11.064  1.00  0.00     0.210 C 
ENDBRANCH  17  23
ENDBRANCH  13  16
ENDBRANCH  10  12
ENDBRANCH   8  10
ENDBRANCH   5   8
BRANCH   1  25
HETATM   25  N   UNL     1      42.950 -16.310   4.743  1.00  0.00    -0.376 N 
HETATM   26  C   UNL     1      43.499 -16.947   5.959  1.00  0.00     0.143 C 
HETATM   27  C   UNL     1      43.508 -18.482   5.795  1.00  0.00     0.145 C 
HETATM   28  N   UNL     1      44.114 -18.938   4.536  1.00  0.00    -0.349 N 
HETATM   29  C   UNL     1      44.590 -20.246   4.490  1.00  0.00     0.219 C 
HETATM   30  C   UNL     1      43.681 -18.205   3.338  1.00  0.00     0.145 C 
HETATM   31  O   UNL     1      44.647 -20.957   5.494  1.00  0.00    -0.273 OA
HETATM   32  C   UNL     1      43.689 -16.678   3.527  1.00  0.00     0.143 C 
BRANCH  29  33
HETATM   33  C   UNL     1      45.070 -20.748   3.133  1.00  0.00     0.103 C 
BRANCH  33  34
HETATM   34  C   UNL     1      44.380 -22.040   2.701  1.00  0.00     0.005 C 
HETATM   35  C   UNL     1      43.705 -21.882   1.347  1.00  0.00     0.005 C 
ENDBRANCH  33  34
ENDBRANCH  29  33
ENDBRANCH   1  25
TORSDOF 8
ENDMDL
MODEL 3
REMARK VINA RESULT:      -8.6      5.651      9.905
REMARK  8 active torsions:
REMARK  status: ('A' for Active; 'I' for Inactive)
REMARK    1  A    between atoms: C_2  and  C_3 
REMARK    2  A    between atoms: C_3  and  C_4 
REMARK       I    between atoms: C_4  and  N_5 
REMARK    3  A    between atoms: N_8  and  C_9 
REMARK    4  A    between atoms: C_13  and  N_14 
REMARK    5  A    between atoms: N_14  and  C_15 
REMARK    6  A    between atoms: C_15  and  N_16 
REMARK       I    between atoms: N_16  and  C_17 
REMARK    7  A    between atoms: C_17  and  C_18 
REMARK    8  A    between atoms: C_19  and  O_20 
ROOT
HETATM    1  C   UNL     1      42.240 -15.169   5.521  1.00  0.00     0.052 A 
HETATM    2  C   UNL     1      42.970 -14.024   5.908  1.00  0.00     0.062 A 
HETATM    3 CL   UNL     1      44.683 -14.011   6.183  1.00  0.00    -0.082 Cl
HETATM    4  C   UNL     1      42.329 -12.795   6.149  1.00  0.00     0.055 A 
HETATM    5  C   UNL     1      40.944 -12.676   6.067  1.00  0.00     0.036 A 
HETATM    6  C   UNL     1      40.192 -13.808   5.771  1.00  0.00     0.032 A 
HETATM    7  C   UNL     1      40.835 -15.023   5.493  1.00  0.00     0.033 A 
ENDROOT
BRANCH   5   8
HETATM    8  N   UNL     1      40.391 -11.380   6.180  1.00  0.00    -0.333 N 
HETATM    9  H   UNL     1      39.430 -11.359   6.504  1.00  0.00     0.168 HD
BRANCH   8  10
HETATM   10  C   UNL     1      41.057 -10.207   6.300  1.00  0.00     0.179 C 
HETATM   11  S   UNL     1      41.286  -9.234   4.960  1.00  0.00    -0.040 SA
BRANCH  10  12
HETATM   12  N   UNL     1      41.618  -9.831   7.484  1.00  0.00    -0.299 N 
HETATM   13  C   UNL     1      41.305 -10.418   8.709  1.00  0.00     0.260 C 
HETATM   14  O   UNL     1      40.211 -10.850   9.046  1.00  0.00    -0.267 OA
HETATM   15  H   UNL     1      42.591  -9.581   7.367  1.00  0.00     0.171 HD
BRANCH  13  16
HETATM   16  C   UNL     1      42.444 -10.466   9.667  1.00  0.00     0.066 A 
HETATM   17  C   UNL     1      42.374  -9.922  10.961  1.00  0.00     0.089 A 
HETATM   18  C   UNL     1      43.462 -10.088  11.843  1.00  0.00    -0.028 A 
HETATM   19  C   UNL     1      43.399  -9.560  13.252  1.00  0.00     0.051 C 
HETATM   20  C   UNL     1      44.612 -10.767  11.413  1.00  0.00     0.009 A 
HETATM   21  C   UNL     1      44.681 -11.302  10.130  1.00  0.00     0.002 A 
HETATM   22  C   UNL     1      43.599 -11.162   9.264  1.00  0.00     0.020 A 
BRANCH  17  23
HETATM   23  O   UNL     1      41.282  -9.285  11.491  1.00  0.00    -0.354 OA
HETATM   24  C   UNL     1      41.138  -7.916  11.126  1.00  0.00     0.210 C 
ENDBRANCH  17  23
ENDBRANCH  13  16
ENDBRANCH  10  12
ENDBRANCH   8  10
ENDBRANCH   5   8
BRANCH   1  25
HETATM   25  N   UNL     1      42.756 -16.392   5.080  1.00  0.00    -0.376 N 
HETATM   26  C   UNL     1      41.951 -17.151   4.100  1.00  0.00     0.143 C 
HETATM   27  C   UNL     1      42.861 -18.087   3.276  1.00  0.00     0.145 C 
HETATM   28  N   UNL     1      43.761 -18.909   4.099  1.00  0.00    -0.349 N 
HETATM   29  C   UNL     1      44.264 -20.076   3.528  1.00  0.00     0.219 C 
HETATM   30  C   UNL     1      44.454 -18.185   5.174  1.00  0.00     0.145 C 
HETATM   31  O   UNL     1      43.867 -20.496   2.441  1.00  0.00    -0.273 OA
HETATM   32  C   UNL     1      43.521 -17.266   5.983  1.00  0.00     0.143 C 
BRANCH  29  33
HETATM   33  C   UNL     1      45.315 -20.829   4.335  1.00  0.00     0.103 C 
BRANCH  33  34
HETATM   34  C   UNL     1      44.731 -21.998   5.126  1.00  0.00     0.005 C 
HETATM   35  C   UNL     1      44.075 -21.523   6.413  1.00  0.00     0.005 C 
ENDBRANCH  33  34
ENDBRANCH  29  33
ENDBRANCH   1  25
TORSDOF 8
ENDMDL
MODEL 4
REMARK VINA RESULT:      -8.5      3.395      4.550
REMARK  8 active torsions:
REMARK  status: ('A' for Active; 'I' for Inactive)
REMARK    1  A    between atoms: C_2  and  C_3 
REMARK    2  A    between atoms: C_3  and  C_4 
REMARK       I    between atoms: C_4  and  N_5 
REMARK    3  A    between atoms: N_8  and  C_9 
REMARK    4  A    between atoms: C_13  and  N_14 
REMARK    5  A    between atoms: N_14  and  C_15 
REMARK    6  A    between atoms: C_15  and  N_16 
REMARK       I    between atoms: N_16  and  C_17 
REMARK    7  A    between atoms: C_17  and  C_18 
REMARK    8  A    between atoms: C_19  and  O_20 
ROOT
HETATM    1  C   UNL     1      39.337 -14.111  -0.952  1.00  0.00     0.052 A 
HETATM    2  C   UNL     1      38.973 -14.363   0.388  1.00  0.00     0.062 A 
HETATM    3 CL   UNL     1      37.365 -14.171   1.010  1.00  0.00    -0.082 Cl
HETATM    4  C   UNL     1      39.928 -14.751   1.345  1.00  0.00     0.055 A 
HETATM    5  C   UNL     1      41.279 -14.849   1.017  1.00  0.00     0.036 A 
HETATM    6  C   UNL     1      41.678 -14.524  -0.276  1.00  0.00     0.032 A 
HETATM    7  C   UNL     1      40.719 -14.175  -1.238  1.00  0.00     0.033 A 
ENDROOT
BRANCH   5   8
HETATM    8  N   UNL     1      42.151 -15.383   1.992  1.00  0.00    -0.333 N 
HETATM    9  H   UNL     1      42.850 -14.733   2.333  1.00  0.00     0.168 HD
BRANCH   8  10
HETATM   10  C   UNL     1      41.941 -16.460   2.786  1.00  0.00     0.179 C 
HETATM   11  S   UNL     1      41.312 -16.257   4.321  1.00  0.00    -0.040 SA
BRANCH  10  12
HETATM   12  N   UNL     1      42.304 -17.713   2.389  1.00  0.00    -0.299 N 
HETATM   13  C   UNL     1      43.615 -18.079   2.090  1.00  0.00     0.260 C 
HETATM   14  O   UNL     1      44.466 -17.368   1.573  1.00  0.00    -0.267 OA
HETATM   15  H   UNL     1      41.761 -18.421   2.865  1.00  0.00     0.171 HD
BRANCH  13  16
HETATM   16  C   UNL     1      43.941 -19.492   2.426  1.00  0.00     0.066 A 
HETATM   17  C   UNL     1      44.391 -19.889   3.697  1.00  0.00     0.089 A 
HETATM   18  C   UNL     1      44.591 -21.259   3.967  1.00  0.00    -0.028 A 
HETATM   19  C   UNL     1      45.026 -21.719   5.333  1.00  0.00     0.051 C 
HETATM   20  C   UNL     1      44.365 -22.208   2.960  1.00  0.00     0.009 A 
HETATM   21  C   UNL     1      43.923 -21.814   1.700  1.00  0.00     0.002 A 
HETATM   22  C   UNL     1      43.701 -20.464   1.437  1.00  0.00     0.020 A 
BRANCH  17  23
HETATM   23  O   UNL     1      44.594 -19.047   4.760  1.00  0.00    -0.354 OA
HETATM   24  C   UNL     1      43.471 -18.864   5.617  1.00  0.00     0.210 C 
ENDBRANCH  17  23
ENDBRANCH  13  16
ENDBRANCH  10  12
ENDBRANCH   8  10
ENDBRANCH   5   8
BRANCH   1  25
HETATM   25  N   UNL     1      38.479 -13.896  -2.036  1.00  0.00    -0.376 N 
HETATM   26  C   UNL     1      38.516 -14.886  -3.134  1.00  0.00     0.143 C 
HETATM   27  C   UNL     1      37.173 -14.884  -3.895  1.00  0.00     0.145 C 
HETATM   28  N   UNL     1      36.721 -13.542  -4.293  1.00  0.00    -0.349 N 
HETATM   29  C   UNL     1      35.815 -13.457  -5.348  1.00  0.00     0.219 C 
HETATM   30  C   UNL     1      36.823 -12.517  -3.245  1.00  0.00     0.145 C 
HETATM   31  O   UNL     1      35.508 -14.437  -6.027  1.00  0.00    -0.273 OA
HETATM   32  C   UNL     1      38.174 -12.537  -2.508  1.00  0.00     0.143 C 
BRANCH  29  33
HETATM   33  C   UNL     1      35.240 -12.076  -5.641  1.00  0.00     0.103 C 
BRANCH  33  34
HETATM   34  C   UNL     1      33.714 -12.061  -5.662  1.00  0.00     0.005 C 
HETATM   35  C   UNL     1      33.138 -12.372  -4.289  1.00  0.00     0.005 C 
ENDBRANCH  33  34
ENDBRANCH  29  33
ENDBRANCH   1  25
TORSDOF 8
ENDMDL
MODEL 5
REMARK VINA RESULT:      -8.5      1.686      1.959
REMARK  8 active torsions:
REMARK  status: ('A' for Active; 'I' for Inactive)
REMARK    1  A    between atoms: C_2  and  C_3 
REMARK    2  A    between atoms: C_3  and  C_4 
REMARK       I    between atoms: C_4  and  N_5 
REMARK    3  A    between atoms: N_8  and  C_9 
REMARK    4  A    between atoms: C_13  and  N_14 
REMARK    5  A    between atoms: N_14  and  C_15 
REMARK    6  A    between atoms: C_15  and  N_16 
REMARK       I    between atoms: N_16  and  C_17 
REMARK    7  A    between atoms: C_17  and  C_18 
REMARK    8  A    between atoms: C_19  and  O_20 
ROOT
HETATM    1  C   UNL     1      41.670 -13.214   2.257  1.00  0.00     0.052 A 
HETATM    2  C   UNL     1      40.730 -13.184   3.311  1.00  0.00     0.062 A 
HETATM    3 CL   UNL     1      39.075 -12.699   3.122  1.00  0.00    -0.082 Cl
HETATM    4  C   UNL     1      41.099 -13.510   4.628  1.00  0.00     0.055 A 
HETATM    5  C   UNL     1      42.417 -13.822   4.952  1.00  0.00     0.036 A 
HETATM    6  C   UNL     1      43.381 -13.776   3.949  1.00  0.00     0.032 A 
HETATM    7  C   UNL     1      43.004 -13.489   2.629  1.00  0.00     0.033 A 
ENDROOT
BRANCH   5   8
HETATM    8  N   UNL     1      42.678 -14.277   6.264  1.00  0.00    -0.333 N 
HETATM    9  H   UNL     1      41.852 -14.545   6.789  1.00  0.00     0.168 HD
BRANCH   8  10
HETATM   10  C   UNL     1      43.844 -14.765   6.752  1.00  0.00     0.179 C 
HETATM   11  S   UNL     1      44.901 -13.754   7.559  1.00  0.00    -0.040 SA
BRANCH  10  12
HETATM   12  N   UNL     1      44.215 -16.058   6.532  1.00  0.00    -0.299 N 
HETATM   13  C   UNL     1      43.332 -17.135   6.580  1.00  0.00     0.260 C 
HETATM   14  O   UNL     1      42.367 -17.248   7.323  1.00  0.00    -0.267 OA
HETATM   15  H   UNL     1      44.924 -16.120   5.814  1.00  0.00     0.171 HD
BRANCH  13  16
HETATM   16  C   UNL     1      43.666 -18.236   5.635  1.00  0.00     0.066 A 
HETATM   17  C   UNL     1      43.429 -18.151   4.252  1.00  0.00     0.089 A 
HETATM   18  C   UNL     1      43.858 -19.197   3.408  1.00  0.00    -0.028 A 
HETATM   19  C   UNL     1      43.662 -19.113   1.918  1.00  0.00     0.051 C 
HETATM   20  C   UNL     1      44.491 -20.322   3.958  1.00  0.00     0.009 A 
HETATM   21  C   UNL     1      44.722 -20.406   5.328  1.00  0.00     0.002 A 
HETATM   22  C   UNL     1      44.322 -19.364   6.162  1.00  0.00     0.020 A 
BRANCH  17  23
HETATM   23  O   UNL     1      42.864 -17.078   3.613  1.00  0.00    -0.354 OA
HETATM   24  C   UNL     1      41.440 -17.073   3.572  1.00  0.00     0.210 C 
ENDBRANCH  17  23
ENDBRANCH  13  16
ENDBRANCH  10  12
ENDBRANCH   8  10
ENDBRANCH   5   8
BRANCH   1  25
HETATM   25  N   UNL     1      41.410 -13.091   0.888  1.00  0.00    -0.376 N 
HETATM   26  C   UNL     1      41.272 -14.342   0.111  1.00  0.00     0.143 C 
HETATM   27  C   UNL     1      40.415 -14.092  -1.148  1.00  0.00     0.145 C 
HETATM   28  N   UNL     1      40.845 -12.926  -1.934  1.00  0.00    -0.349 N 
HETATM   29  C   UNL     1      40.472 -12.884  -3.276  1.00  0.00     0.219 C 
HETATM   30  C   UNL     1      41.127 -11.717  -1.147  1.00  0.00     0.145 C 
HETATM   31  O   UNL     1      39.935 -13.840  -3.835  1.00  0.00    -0.273 OA
HETATM   32  C   UNL     1      41.989 -11.994   0.098  1.00  0.00     0.143 C 
BRANCH  29  33
HETATM   33  C   UNL     1      40.790 -11.598  -4.029  1.00  0.00     0.103 C 
BRANCH  33  34
HETATM   34  C   UNL     1      42.274 -11.452  -4.354  1.00  0.00     0.005 C 
HETATM   35  C   UNL     1      42.567 -10.118  -5.024  1.00  0.00     0.005 C 
ENDBRANCH  33  34
ENDBRANCH  29  33
ENDBRANCH   1  25
TORSDOF 8
ENDMDL
MODEL 6
REMARK VINA RESULT:      -8.5      5.417      9.623
REMARK  8 active torsions:
REMARK  status: ('A' for Active; 'I' for Inactive)
REMARK    1  A    between atoms: C_2  and  C_3 
REMARK    2  A    between atoms: C_3  and  C_4 
REMARK       I    between atoms: C_4  and  N_5 
REMARK    3  A    between atoms: N_8  and  C_9 
REMARK    4  A    between atoms: C_13  and  N_14 
REMARK    5  A    between atoms: N_14  and  C_15 
REMARK    6  A    between atoms: C_15  and  N_16 
REMARK       I    between atoms: N_16  and  C_17 
REMARK    7  A    between atoms: C_17  and  C_18 
REMARK    8  A    between atoms: C_19  and  O_20 
ROOT
HETATM    1  C   UNL     1      42.226 -15.148   5.600  1.00  0.00     0.052 A 
HETATM    2  C   UNL     1      42.892 -13.933   5.872  1.00  0.00     0.062 A 
HETATM    3 CL   UNL     1      44.609 -13.792   6.079  1.00  0.00    -0.082 Cl
HETATM    4  C   UNL     1      42.182 -12.732   6.045  1.00  0.00     0.055 A 
HETATM    5  C   UNL     1      40.789 -12.706   6.008  1.00  0.00     0.036 A 
HETATM    6  C   UNL     1      40.103 -13.903   5.826  1.00  0.00     0.032 A 
HETATM    7  C   UNL     1      40.815 -15.093   5.615  1.00  0.00     0.033 A 
ENDROOT
BRANCH   5   8
HETATM    8  N   UNL     1      40.158 -11.443   6.046  1.00  0.00    -0.333 N 
HETATM    9  H   UNL     1      39.149 -11.473   5.947  1.00  0.00     0.168 HD
BRANCH   8  10
HETATM   10  C   UNL     1      40.642 -10.293   6.574  1.00  0.00     0.179 C 
HETATM   11  S   UNL     1      41.397  -9.173   5.590  1.00  0.00    -0.040 SA
BRANCH  10  12
HETATM   12  N   UNL     1      40.596 -10.058   7.916  1.00  0.00    -0.299 N 
HETATM   13  C   UNL     1      40.071 -10.959   8.841  1.00  0.00     0.260 C 
HETATM   14  O   UNL     1      39.127 -11.715   8.660  1.00  0.00    -0.267 OA
HETATM   15  H   UNL     1      41.415  -9.553   8.229  1.00  0.00     0.171 HD
BRANCH  13  16
HETATM   16  C   UNL     1      40.748 -10.929  10.167  1.00  0.00     0.066 A 
HETATM   17  C   UNL     1      42.119 -10.658  10.316  1.00  0.00     0.089 A 
HETATM   18  C   UNL     1      42.670 -10.556  11.611  1.00  0.00    -0.028 A 
HETATM   19  C   UNL     1      44.124 -10.218  11.805  1.00  0.00     0.051 C 
HETATM   20  C   UNL     1      41.853 -10.752  12.734  1.00  0.00     0.009 A 
HETATM   21  C   UNL     1      40.496 -11.025  12.585  1.00  0.00     0.002 A 
HETATM   22  C   UNL     1      39.943 -11.102  11.308  1.00  0.00     0.020 A 
BRANCH  17  23
HETATM   23  O   UNL     1      42.989 -10.403   9.288  1.00  0.00    -0.354 OA
HETATM   24  C   UNL     1      43.757 -11.520   8.848  1.00  0.00     0.210 C 
ENDBRANCH  17  23
ENDBRANCH  13  16
ENDBRANCH  10  12
ENDBRANCH   8  10
ENDBRANCH   5   8
BRANCH   1  25
HETATM   25  N   UNL     1      42.806 -16.367   5.232  1.00  0.00    -0.376 N 
HETATM   26  C   UNL     1      43.455 -17.156   6.300  1.00  0.00     0.143 C 
HETATM   27  C   UNL     1      43.479 -18.650   5.916  1.00  0.00     0.145 C 
HETATM   28  N   UNL     1      43.999 -18.904   4.563  1.00  0.00    -0.349 N 
HETATM   29  C   UNL     1      44.493 -20.179   4.295  1.00  0.00     0.219 C 
HETATM   30  C   UNL     1      43.465 -18.020   3.518  1.00  0.00     0.145 C 
HETATM   31  O   UNL     1      44.637 -21.024   5.178  1.00  0.00    -0.273 OA
HETATM   32  C   UNL     1      43.459 -16.536   3.925  1.00  0.00     0.143 C 
BRANCH  29  33
HETATM   33  C   UNL     1      44.879 -20.467   2.849  1.00  0.00     0.103 C 
BRANCH  33  34
HETATM   34  C   UNL     1      44.490 -21.874   2.400  1.00  0.00     0.005 C 
HETATM   35  C   UNL     1      43.219 -21.857   1.564  1.00  0.00     0.005 C 
ENDBRANCH  33  34
ENDBRANCH  29  33
ENDBRANCH   1  25
TORSDOF 8
ENDMDL
MODEL 7
REMARK VINA RESULT:      -8.4      2.198      2.786
REMARK  8 active torsions:
REMARK  status: ('A' for Active; 'I' for Inactive)
REMARK    1  A    between atoms: C_2  and  C_3 
REMARK    2  A    between atoms: C_3  and  C_4 
REMARK       I    between atoms: C_4  and  N_5 
REMARK    3  A    between atoms: N_8  and  C_9 
REMARK    4  A    between atoms: C_13  and  N_14 
REMARK    5  A    between atoms: N_14  and  C_15 
REMARK    6  A    between atoms: C_15  and  N_16 
REMARK       I    between atoms: N_16  and  C_17 
REMARK    7  A    between atoms: C_17  and  C_18 
REMARK    8  A    between atoms: C_19  and  O_20 
ROOT
HETATM    1  C   UNL     1      41.349 -13.647   2.255  1.00  0.00     0.052 A 
HETATM    2  C   UNL     1      40.581 -13.353   3.403  1.00  0.00     0.062 A 
HETATM    3 CL   UNL     1      38.925 -12.836   3.356  1.00  0.00    -0.082 Cl
HETATM    4  C   UNL     1      41.138 -13.417   4.692  1.00  0.00     0.055 A 
HETATM    5  C   UNL     1      42.484 -13.720   4.882  1.00  0.00     0.036 A 
HETATM    6  C   UNL     1      43.286 -13.931   3.765  1.00  0.00     0.032 A 
HETATM    7  C   UNL     1      42.720 -13.905   2.482  1.00  0.00     0.033 A 
ENDROOT
BRANCH   5   8
HETATM    8  N   UNL     1      42.931 -13.907   6.209  1.00  0.00    -0.333 N 
HETATM    9  H   UNL     1      42.192 -13.938   6.903  1.00  0.00     0.168 HD
BRANCH   8  10
HETATM   10  C   UNL     1      44.113 -14.429   6.616  1.00  0.00     0.179 C 
HETATM   11  S   UNL     1      45.284 -13.435   7.277  1.00  0.00    -0.040 SA
BRANCH  10  12
HETATM   12  N   UNL     1      44.406 -15.748   6.428  1.00  0.00    -0.299 N 
HETATM   13  C   UNL     1      43.452 -16.763   6.466  1.00  0.00     0.260 C 
HETATM   14  O   UNL     1      42.460 -16.799   7.180  1.00  0.00    -0.267 OA
HETATM   15  H   UNL     1      45.130 -15.868   5.733  1.00  0.00     0.171 HD
BRANCH  13  16
HETATM   16  C   UNL     1      43.741 -17.900   5.549  1.00  0.00     0.066 A 
HETATM   17  C   UNL     1      43.232 -17.972   4.241  1.00  0.00     0.089 A 
HETATM   18  C   UNL     1      43.625 -19.034   3.400  1.00  0.00    -0.028 A 
HETATM   19  C   UNL     1      43.136 -19.113   1.979  1.00  0.00     0.051 C 
HETATM   20  C   UNL     1      44.497 -20.021   3.884  1.00  0.00     0.009 A 
HETATM   21  C   UNL     1      44.997 -19.951   5.181  1.00  0.00     0.002 A 
HETATM   22  C   UNL     1      44.631 -18.890   6.007  1.00  0.00     0.020 A 
BRANCH  17  23
HETATM   23  O   UNL     1      42.416 -17.036   3.659  1.00  0.00    -0.354 OA
HETATM   24  C   UNL     1      41.037 -17.131   4.005  1.00  0.00     0.210 C 
ENDBRANCH  17  23
ENDBRANCH  13  16
ENDBRANCH  10  12
ENDBRANCH   8  10
ENDBRANCH   5   8
BRANCH   1  25
HETATM   25  N   UNL     1      40.888 -13.797   0.943  1.00  0.00    -0.376 N 
HETATM   26  C   UNL     1      41.878 -14.200  -0.079  1.00  0.00     0.143 C 
HETATM   27  C   UNL     1      41.168 -14.902  -1.256  1.00  0.00     0.145 C 
HETATM   28  N   UNL     1      40.014 -14.156  -1.780  1.00  0.00    -0.349 N 
HETATM   29  C   UNL     1      39.606 -14.438  -3.082  1.00  0.00     0.219 C 
HETATM   30  C   UNL     1      39.103 -13.624  -0.757  1.00  0.00     0.145 C 
HETATM   31  O   UNL     1      40.260 -15.165  -3.829  1.00  0.00    -0.273 OA
HETATM   32  C   UNL     1      39.836 -12.923   0.400  1.00  0.00     0.143 C 
BRANCH  29  33
HETATM   33  C   UNL     1      38.317 -13.772  -3.549  1.00  0.00     0.103 C 
BRANCH  33  34
HETATM   34  C   UNL     1      37.209 -14.775  -3.860  1.00  0.00     0.005 C 
HETATM   35  C   UNL     1      36.121 -14.151  -4.720  1.00  0.00     0.005 C 
ENDBRANCH  33  34
ENDBRANCH  29  33
ENDBRANCH   1  25
TORSDOF 8
ENDMDL
MODEL 8
REMARK VINA RESULT:      -8.3      4.806      7.523
REMARK  8 active torsions:
REMARK  status: ('A' for Active; 'I' for Inactive)
REMARK    1  A    between atoms: C_2  and  C_3 
REMARK    2  A    between atoms: C_3  and  C_4 
REMARK       I    between atoms: C_4  and  N_5 
REMARK    3  A    between atoms: N_8  and  C_9 
REMARK    4  A    between atoms: C_13  and  N_14 
REMARK    5  A    between atoms: N_14  and  C_15 
REMARK    6  A    between atoms: C_15  and  N_16 
REMARK       I    between atoms: N_16  and  C_17 
REMARK    7  A    between atoms: C_17  and  C_18 
REMARK    8  A    between atoms: C_19  and  O_20 
ROOT
HETATM    1  C   UNL     1      40.919 -13.380   5.434  1.00  0.00     0.052 A 
HETATM    2  C   UNL     1      41.998 -14.285   5.324  1.00  0.00     0.062 A 
HETATM    3 CL   UNL     1      43.473 -14.150   6.228  1.00  0.00    -0.082 Cl
HETATM    4  C   UNL     1      41.964 -15.357   4.415  1.00  0.00     0.055 A 
HETATM    5  C   UNL     1      40.887 -15.534   3.550  1.00  0.00     0.036 A 
HETATM    6  C   UNL     1      39.848 -14.609   3.576  1.00  0.00     0.032 A 
HETATM    7  C   UNL     1      39.866 -13.563   4.510  1.00  0.00     0.033 A 
ENDROOT
BRANCH   5   8
HETATM    8  N   UNL     1      40.862 -16.714   2.771  1.00  0.00    -0.333 N 
HETATM    9  H   UNL     1      40.046 -17.298   2.918  1.00  0.00     0.168 HD
BRANCH   8  10
HETATM   10  C   UNL     1      41.536 -16.958   1.622  1.00  0.00     0.179 C 
HETATM   11  S   UNL     1      41.383 -15.918   0.323  1.00  0.00    -0.040 SA
BRANCH  10  12
HETATM   12  N   UNL     1      42.287 -18.087   1.470  1.00  0.00    -0.299 N 
HETATM   13  C   UNL     1      43.594 -18.215   1.938  1.00  0.00     0.260 C 
HETATM   14  O   UNL     1      44.435 -17.328   1.987  1.00  0.00    -0.267 OA
HETATM   15  H   UNL     1      41.719 -18.919   1.557  1.00  0.00     0.171 HD
BRANCH  13  16
HETATM   16  C   UNL     1      43.949 -19.593   2.375  1.00  0.00     0.066 A 
HETATM   17  C   UNL     1      44.274 -19.910   3.704  1.00  0.00     0.089 A 
HETATM   18  C   UNL     1      44.509 -21.255   4.060  1.00  0.00    -0.028 A 
HETATM   19  C   UNL     1      44.812 -21.634   5.485  1.00  0.00     0.051 C 
HETATM   20  C   UNL     1      44.443 -22.257   3.080  1.00  0.00     0.009 A 
HETATM   21  C   UNL     1      44.124 -21.941   1.762  1.00  0.00     0.002 A 
HETATM   22  C   UNL     1      43.867 -20.618   1.412  1.00  0.00     0.020 A 
BRANCH  17  23
HETATM   23  O   UNL     1      44.318 -19.015   4.741  1.00  0.00    -0.354 OA
HETATM   24  C   UNL     1      43.054 -18.667   5.299  1.00  0.00     0.210 C 
ENDBRANCH  17  23
ENDBRANCH  13  16
ENDBRANCH  10  12
ENDBRANCH   8  10
ENDBRANCH   5   8
BRANCH   1  25
HETATM   25  N   UNL     1      40.741 -12.389   6.405  1.00  0.00    -0.376 N 
HETATM   26  C   UNL     1      39.372 -12.198   6.932  1.00  0.00     0.143 C 
HETATM   27  C   UNL     1      39.430 -11.576   8.343  1.00  0.00     0.145 C 
HETATM   28  N   UNL     1      40.292 -10.387   8.430  1.00  0.00    -0.349 N 
HETATM   29  C   UNL     1      40.060  -9.502   9.480  1.00  0.00     0.219 C 
HETATM   30  C   UNL     1      41.601 -10.522   7.776  1.00  0.00     0.145 C 
HETATM   31  O   UNL     1      39.086  -9.612  10.224  1.00  0.00    -0.273 OA
HETATM   32  C   UNL     1      41.514 -11.138   6.369  1.00  0.00     0.143 C 
BRANCH  29  33
HETATM   33  C   UNL     1      41.061  -8.365   9.644  1.00  0.00     0.103 C 
BRANCH  33  34
HETATM   34  C   UNL     1      41.178  -7.880  11.087  1.00  0.00     0.005 C 
HETATM   35  C   UNL     1      42.386  -8.490  11.781  1.00  0.00     0.005 C 
ENDBRANCH  33  34
ENDBRANCH  29  33
ENDBRANCH   1  25
TORSDOF 8
ENDMDL
MODEL 9
REMARK VINA RESULT:      -8.3      1.006      1.797
REMARK  8 active torsions:
REMARK  status: ('A' for Active; 'I' for Inactive)
REMARK    1  A    between atoms: C_2  and  C_3 
REMARK    2  A    between atoms: C_3  and  C_4 
REMARK       I    between atoms: C_4  and  N_5 
REMARK    3  A    between atoms: N_8  and  C_9 
REMARK    4  A    between atoms: C_13  and  N_14 
REMARK    5  A    between atoms: N_14  and  C_15 
REMARK    6  A    between atoms: C_15  and  N_16 
REMARK       I    between atoms: N_16  and  C_17 
REMARK    7  A    between atoms: C_17  and  C_18 
REMARK    8  A    between atoms: C_19  and  O_20 
ROOT
HETATM    1  C   UNL     1      41.686 -14.235   2.389  1.00  0.00     0.052 A 
HETATM    2  C   UNL     1      40.954 -15.142   3.186  1.00  0.00     0.062 A 
HETATM    3 CL   UNL     1      39.507 -15.944   2.662  1.00  0.00    -0.082 Cl
HETATM    4  C   UNL     1      41.333 -15.425   4.510  1.00  0.00     0.055 A 
HETATM    5  C   UNL     1      42.416 -14.780   5.103  1.00  0.00     0.036 A 
HETATM    6  C   UNL     1      43.105 -13.819   4.370  1.00  0.00     0.032 A 
HETATM    7  C   UNL     1      42.749 -13.566   3.037  1.00  0.00     0.033 A 
ENDROOT
BRANCH   5   8
HETATM    8  N   UNL     1      42.821 -15.224   6.382  1.00  0.00    -0.333 N 
HETATM    9  H   UNL     1      42.386 -14.733   7.155  1.00  0.00     0.168 HD
BRANCH   8  10
HETATM   10  C   UNL     1      43.371 -16.420   6.704  1.00  0.00     0.179 C 
HETATM   11  S   UNL     1      43.488 -16.882   8.306  1.00  0.00    -0.040 SA
BRANCH  10  12
HETATM   12  N   UNL     1      43.907 -17.231   5.748  1.00  0.00    -0.299 N 
HETATM   13  C   UNL     1      43.635 -18.595   5.651  1.00  0.00     0.260 C 
HETATM   14  O   UNL     1      43.432 -19.361   6.582  1.00  0.00    -0.267 OA
HETATM   15  H   UNL     1      43.995 -16.749   4.864  1.00  0.00     0.171 HD
BRANCH  13  16
HETATM   16  C   UNL     1      43.636 -19.114   4.255  1.00  0.00     0.066 A 
HETATM   17  C   UNL     1      44.413 -20.213   3.852  1.00  0.00     0.089 A 
HETATM   18  C   UNL     1      44.291 -20.705   2.535  1.00  0.00    -0.028 A 
HETATM   19  C   UNL     1      45.072 -21.911   2.088  1.00  0.00     0.051 C 
HETATM   20  C   UNL     1      43.418 -20.076   1.635  1.00  0.00     0.009 A 
HETATM   21  C   UNL     1      42.652 -18.985   2.034  1.00  0.00     0.002 A 
HETATM   22  C   UNL     1      42.751 -18.512   3.341  1.00  0.00     0.020 A 
BRANCH  17  23
HETATM   23  O   UNL     1      45.256 -20.924   4.666  1.00  0.00    -0.354 OA
HETATM   24  C   UNL     1      44.665 -22.036   5.334  1.00  0.00     0.210 C 
ENDBRANCH  17  23
ENDBRANCH  13  16
ENDBRANCH  10  12
ENDBRANCH   8  10
ENDBRANCH   5   8
BRANCH   1  25
HETATM   25  N   UNL     1      41.533 -13.996   1.019  1.00  0.00    -0.376 N 
HETATM   26  C   UNL     1      41.823 -15.119   0.102  1.00  0.00     0.143 C 
HETATM   27  C   UNL     1      41.053 -14.933  -1.223  1.00  0.00     0.145 C 
HETATM   28  N   UNL     1      41.214 -13.597  -1.817  1.00  0.00    -0.349 N 
HETATM   29  C   UNL     1      40.972 -13.469  -3.183  1.00  0.00     0.219 C 
HETATM   30  C   UNL     1      41.073 -12.478  -0.875  1.00  0.00     0.145 C 
HETATM   31  O   UNL     1      40.778 -14.445  -3.907  1.00  0.00    -0.273 OA
HETATM   32  C   UNL     1      41.856 -12.686   0.434  1.00  0.00     0.143 C 
BRANCH  29  33
HETATM   33  C   UNL     1      40.989 -12.053  -3.747  1.00  0.00     0.103 C 
BRANCH  33  34
HETATM   34  C   UNL     1      42.360 -11.642  -4.279  1.00  0.00     0.005 C 
HETATM   35  C   UNL     1      42.463 -10.133  -4.438  1.00  0.00     0.005 C 
ENDBRANCH  33  34
ENDBRANCH  29  33
ENDBRANCH   1  25
TORSDOF 8
ENDMDL
MODEL 10
REMARK VINA RESULT:      -8.2      5.337      8.583
REMARK  8 active torsions:
REMARK  status: ('A' for Active; 'I' for Inactive)
REMARK    1  A    between atoms: C_2  and  C_3 
REMARK    2  A    between atoms: C_3  and  C_4 
REMARK       I    between atoms: C_4  and  N_5 
REMARK    3  A    between atoms: N_8  and  C_9 
REMARK    4  A    between atoms: C_13  and  N_14 
REMARK    5  A    between atoms: N_14  and  C_15 
REMARK    6  A    between atoms: C_15  and  N_16 
REMARK       I    between atoms: N_16  and  C_17 
REMARK    7  A    between atoms: C_17  and  C_18 
REMARK    8  A    between atoms: C_19  and  O_20 
ROOT
HETATM    1  C   UNL     1      40.487 -11.912   6.192  1.00  0.00     0.052 A 
HETATM    2  C   UNL     1      40.742 -11.397   4.902  1.00  0.00     0.062 A 
HETATM    3 CL   UNL     1      41.188  -9.750   4.586  1.00  0.00    -0.082 Cl
HETATM    4  C   UNL     1      40.600 -12.196   3.754  1.00  0.00     0.055 A 
HETATM    5  C   UNL     1      40.150 -13.511   3.842  1.00  0.00     0.036 A 
HETATM    6  C   UNL     1      39.810 -14.019   5.092  1.00  0.00     0.032 A 
HETATM    7  C   UNL     1      39.989 -13.233   6.240  1.00  0.00     0.033 A 
ENDROOT
BRANCH   5   8
HETATM    8  N   UNL     1      40.173 -14.290   2.663  1.00  0.00    -0.333 N 
HETATM    9  H   UNL     1      39.352 -14.189   2.076  1.00  0.00     0.168 HD
BRANCH   8  10
HETATM   10  C   UNL     1      41.256 -14.814   2.041  1.00  0.00     0.179 C 
HETATM   11  S   UNL     1      41.563 -14.443   0.441  1.00  0.00    -0.040 SA
BRANCH  10  12
HETATM   12  N   UNL     1      42.071 -15.706   2.673  1.00  0.00    -0.299 N 
HETATM   13  C   UNL     1      41.625 -16.911   3.215  1.00  0.00     0.260 C 
HETATM   14  O   UNL     1      40.538 -17.111   3.737  1.00  0.00    -0.267 OA
HETATM   15  H   UNL     1      42.982 -15.746   2.235  1.00  0.00     0.171 HD
BRANCH  13  16
HETATM   16  C   UNL     1      42.626 -18.011   3.149  1.00  0.00     0.066 A 
HETATM   17  C   UNL     1      43.263 -18.531   4.289  1.00  0.00     0.089 A 
HETATM   18  C   UNL     1      44.131 -19.635   4.157  1.00  0.00    -0.028 A 
HETATM   19  C   UNL     1      44.790 -20.245   5.364  1.00  0.00     0.051 C 
HETATM   20  C   UNL     1      44.370 -20.187   2.889  1.00  0.00     0.009 A 
HETATM   21  C   UNL     1      43.741 -19.669   1.760  1.00  0.00     0.002 A 
HETATM   22  C   UNL     1      42.864 -18.594   1.890  1.00  0.00     0.020 A 
BRANCH  17  23
HETATM   23  O   UNL     1      43.061 -18.096   5.573  1.00  0.00    -0.354 OA
HETATM   24  C   UNL     1      43.803 -16.939   5.949  1.00  0.00     0.210 C 
ENDBRANCH  17  23
ENDBRANCH  13  16
ENDBRANCH  10  12
ENDBRANCH   8  10
ENDBRANCH   5   8
BRANCH   1  25
HETATM   25  N   UNL     1      40.756 -11.295   7.419  1.00  0.00    -0.376 N 
HETATM   26  C   UNL     1      39.642 -10.574   8.070  1.00  0.00     0.143 C 
HETATM   27  C   UNL     1      39.877 -10.501   9.594  1.00  0.00     0.145 C 
HETATM   28  N   UNL     1      41.218 -10.021   9.962  1.00  0.00    -0.349 N 
HETATM   29  C   UNL     1      41.379  -9.483  11.237  1.00  0.00     0.219 C 
HETATM   30  C   UNL     1      42.323 -10.631   9.209  1.00  0.00     0.145 C 
HETATM   31  O   UNL     1      40.423  -9.271  11.983  1.00  0.00    -0.273 OA
HETATM   32  C   UNL     1      42.065 -10.684   7.693  1.00  0.00     0.143 C 
BRANCH  29  33
HETATM   33  C   UNL     1      42.804  -9.140  11.655  1.00  0.00     0.103 C 
BRANCH  33  34
HETATM   34  C   UNL     1      43.306  -9.997  12.814  1.00  0.00     0.005 C 
HETATM   35  C   UNL     1      43.246  -9.239  14.131  1.00  0.00     0.005 C 
ENDBRANCH  33  34
ENDBRANCH  29  33
ENDBRANCH   1  25
TORSDOF 8
ENDMDL
