MODEL 1
REMARK VINA RESULT:      -8.3      0.000      0.000
REMARK  5 active torsions:
REMARK  status: ('A' for Active; 'I' for Inactive)
REMARK    1  A    between atoms: C_7  and  C_8 
REMARK       I    between atoms: C_8  and  N_9 
REMARK    2  A    between atoms: N_9  and  C_10 
REMARK    3  A    between atoms: C_10  and  C_11 
REMARK    4  A    between atoms: C_11  and  O_12 
REMARK    5  A    between atoms: C_11  and  C_13 
ROOT
HETATM    1  C   UNL     1      43.454 -17.132   3.704  1.00  0.00     0.254 C 
HETATM    2  N   UNL     1      42.373 -16.666   4.415  1.00  0.00    -0.354 N 
HETATM    3  O   UNL     1      43.895 -16.526   2.732  1.00  0.00    -0.268 OA
HETATM    4  H   UNL     1      41.939 -17.265   5.102  1.00  0.00     0.162 HD
ENDROOT
BRANCH   2   5
HETATM    5  C   UNL     1      41.732 -15.398   4.101  1.00  0.00     0.159 C 
BRANCH   5   6
HETATM    6  C   UNL     1      40.523 -15.559   3.157  1.00  0.00     0.175 C 
BRANCH   6   7
HETATM    7  O   UNL     1      39.445 -14.732   3.613  1.00  0.00    -0.389 OA
HETATM    8  H   UNL     1      39.833 -14.145   4.284  1.00  0.00     0.210 HD
ENDBRANCH   6   7
BRANCH   6   9
HETATM    9  C   UNL     1      40.835 -15.187   1.732  1.00  0.00     0.049 A 
HETATM   10  C   UNL     1      41.006 -16.180   0.765  1.00  0.00     0.128 A 
HETATM   11  F   UNL     1      40.897 -17.473   1.103  1.00  0.00    -0.205 F 
HETATM   12  C   UNL     1      41.298 -15.870  -0.565  1.00  0.00     0.043 A 
HETATM   13  C   UNL     1      41.425 -14.539  -0.955  1.00  0.00     0.006 A 
HETATM   14  C   UNL     1      41.256 -13.531  -0.010  1.00  0.00     0.043 A 
HETATM   15  C   UNL     1      40.962 -13.859   1.315  1.00  0.00     0.128 A 
HETATM   16  F   UNL     1      40.816 -12.858   2.194  1.00  0.00    -0.205 F 
ENDBRANCH   6   9
ENDBRANCH   5   6
ENDBRANCH   2   5
BRANCH   1  17
HETATM   17  C   UNL     1      44.001 -18.415   4.157  1.00  0.00     0.066 A 
HETATM   18  C   UNL     1      44.661 -18.700   5.354  1.00  0.00     0.022 A 
HETATM   19  C   UNL     1      45.066 -17.855   6.510  1.00  0.00     0.069 C 
HETATM   20  N   UNL     1      44.991 -20.035   5.339  1.00  0.00    -0.358 N 
HETATM   21  H   UNL     1      45.481 -20.522   6.077  1.00  0.00     0.166 HD
HETATM   22  C   UNL     1      44.615 -20.621   4.157  1.00  0.00     0.043 A 
HETATM   23  C   UNL     1      43.997 -19.635   3.391  1.00  0.00     0.008 A 
HETATM   24  C   UNL     1      44.784 -21.939   3.713  1.00  0.00     0.030 A 
HETATM   25  C   UNL     1      43.521 -19.992   2.111  1.00  0.00     0.015 A 
HETATM   26  C   UNL     1      43.681 -21.302   1.648  1.00  0.00     0.001 A 
HETATM   27  C   UNL     1      44.305 -22.261   2.441  1.00  0.00     0.002 A 
ENDBRANCH   1  17
TORSDOF 5
ENDMDL
MODEL 2
REMARK VINA RESULT:      -8.2      0.950      1.843
REMARK  5 active torsions:
REMARK  status: ('A' for Active; 'I' for Inactive)
REMARK    1  A    between atoms: C_7  and  C_8 
REMARK       I    between atoms: C_8  and  N_9 
REMARK    2  A    between atoms: N_9  and  C_10 
REMARK    3  A    between atoms: C_10  and  C_11 
REMARK    4  A    between atoms: C_11  and  O_12 
REMARK    5  A    between atoms: C_11  and  C_13 
ROOT
HETATM    1  C   UNL     1      43.065 -17.016   3.426  1.00  0.00     0.254 C 
HETATM    2  N   UNL     1      41.729 -16.867   3.719  1.00  0.00    -0.354 N 
HETATM    3  O   UNL     1      43.657 -16.221   2.701  1.00  0.00    -0.268 OA
HETATM    4  H   UNL     1      41.239 -17.619   4.179  1.00  0.00     0.162 HD
ENDROOT
BRANCH   2   5
HETATM    5  C   UNL     1      40.959 -15.726   3.248  1.00  0.00     0.159 C 
BRANCH   5   6
HETATM    6  C   UNL     1      40.248 -16.000   1.906  1.00  0.00     0.175 C 
BRANCH   6   7
HETATM    7  O   UNL     1      38.833 -16.072   2.120  1.00  0.00    -0.389 OA
HETATM    8  H   UNL     1      38.440 -16.164   1.235  1.00  0.00     0.210 HD
ENDBRANCH   6   7
BRANCH   6   9
HETATM    9  C   UNL     1      40.517 -14.942   0.870  1.00  0.00     0.049 A 
HETATM   10  C   UNL     1      40.026 -13.645   1.043  1.00  0.00     0.128 A 
HETATM   11  F   UNL     1      39.308 -13.338   2.132  1.00  0.00    -0.205 F 
HETATM   12  C   UNL     1      40.256 -12.641   0.101  1.00  0.00     0.043 A 
HETATM   13  C   UNL     1      40.992 -12.921  -1.047  1.00  0.00     0.006 A 
HETATM   14  C   UNL     1      41.494 -14.205  -1.240  1.00  0.00     0.043 A 
HETATM   15  C   UNL     1      41.257 -15.197  -0.287  1.00  0.00     0.128 A 
HETATM   16  F   UNL     1      41.751 -16.422  -0.517  1.00  0.00    -0.205 F 
ENDBRANCH   6   9
ENDBRANCH   5   6
ENDBRANCH   2   5
BRANCH   1  17
HETATM   17  C   UNL     1      43.706 -18.207   3.992  1.00  0.00     0.066 A 
HETATM   18  C   UNL     1      44.349 -18.340   5.223  1.00  0.00     0.022 A 
HETATM   19  C   UNL     1      44.644 -17.376   6.318  1.00  0.00     0.069 C 
HETATM   20  N   UNL     1      44.793 -19.638   5.322  1.00  0.00    -0.358 N 
HETATM   21  H   UNL     1      45.300 -20.021   6.109  1.00  0.00     0.166 HD
HETATM   22  C   UNL     1      44.506 -20.344   4.182  1.00  0.00     0.043 A 
HETATM   23  C   UNL     1      43.831 -19.478   3.325  1.00  0.00     0.008 A 
HETATM   24  C   UNL     1      44.802 -21.672   3.848  1.00  0.00     0.030 A 
HETATM   25  C   UNL     1      43.427 -19.973   2.066  1.00  0.00     0.015 A 
HETATM   26  C   UNL     1      43.714 -21.296   1.713  1.00  0.00     0.001 A 
HETATM   27  C   UNL     1      44.393 -22.132   2.594  1.00  0.00     0.002 A 
ENDBRANCH   1  17
TORSDOF 5
ENDMDL
MODEL 3
REMARK VINA RESULT:      -8.0      1.969      2.300
REMARK  5 active torsions:
REMARK  status: ('A' for Active; 'I' for Inactive)
REMARK    1  A    between atoms: C_7  and  C_8 
REMARK       I    between atoms: C_8  and  N_9 
REMARK    2  A    between atoms: N_9  and  C_10 
REMARK    3  A    between atoms: C_10  and  C_11 
REMARK    4  A    between atoms: C_11  and  O_12 
REMARK    5  A    between atoms: C_11  and  C_13 
ROOT
HETATM    1  C   UNL     1      42.447 -17.059   3.540  1.00  0.00     0.254 C 
HETATM    2  N   UNL     1      42.937 -16.327   2.483  1.00  0.00    -0.354 N 
HETATM    3  O   UNL     1      41.362 -16.800   4.053  1.00  0.00    -0.268 OA
HETATM    4  H   UNL     1      43.894 -16.461   2.194  1.00  0.00     0.162 HD
ENDROOT
BRANCH   2   5
HETATM    5  C   UNL     1      42.174 -15.251   1.870  1.00  0.00     0.159 C 
BRANCH   5   6
HETATM    6  C   UNL     1      41.373 -15.718   0.636  1.00  0.00     0.175 C 
BRANCH   6   7
HETATM    7  O   UNL     1      40.937 -17.069   0.831  1.00  0.00    -0.389 OA
HETATM    8  H   UNL     1      41.693 -17.626   0.575  1.00  0.00     0.210 HD
ENDBRANCH   6   7
BRANCH   6   9
HETATM    9  C   UNL     1      40.163 -14.866   0.362  1.00  0.00     0.049 A 
HETATM   10  C   UNL     1      40.073 -14.127  -0.820  1.00  0.00     0.128 A 
HETATM   11  F   UNL     1      41.069 -14.172  -1.717  1.00  0.00    -0.205 F 
HETATM   12  C   UNL     1      38.966 -13.326  -1.104  1.00  0.00     0.043 A 
HETATM   13  C   UNL     1      37.914 -13.248  -0.195  1.00  0.00     0.006 A 
HETATM   14  C   UNL     1      37.979 -13.977   0.989  1.00  0.00     0.043 A 
HETATM   15  C   UNL     1      39.092 -14.776   1.256  1.00  0.00     0.128 A 
HETATM   16  F   UNL     1      39.118 -15.453   2.412  1.00  0.00    -0.205 F 
ENDBRANCH   6   9
ENDBRANCH   5   6
ENDBRANCH   2   5
BRANCH   1  17
HETATM   17  C   UNL     1      43.327 -18.123   4.033  1.00  0.00     0.066 A 
HETATM   18  C   UNL     1      44.099 -18.138   5.195  1.00  0.00     0.022 A 
HETATM   19  C   UNL     1      44.333 -17.131   6.265  1.00  0.00     0.069 C 
HETATM   20  N   UNL     1      44.758 -19.345   5.240  1.00  0.00    -0.358 N 
HETATM   21  H   UNL     1      45.394 -19.633   5.971  1.00  0.00     0.166 HD
HETATM   22  C   UNL     1      44.484 -20.097   4.127  1.00  0.00     0.043 A 
HETATM   23  C   UNL     1      43.595 -19.361   3.346  1.00  0.00     0.008 A 
HETATM   24  C   UNL     1      44.961 -21.360   3.755  1.00  0.00     0.030 A 
HETATM   25  C   UNL     1      43.160 -19.925   2.127  1.00  0.00     0.015 A 
HETATM   26  C   UNL     1      43.626 -21.185   1.737  1.00  0.00     0.001 A 
HETATM   27  C   UNL     1      44.515 -21.891   2.542  1.00  0.00     0.002 A 
ENDBRANCH   1  17
TORSDOF 5
ENDMDL
MODEL 4
REMARK VINA RESULT:      -8.0      1.701      2.982
REMARK  5 active torsions:
REMARK  status: ('A' for Active; 'I' for Inactive)
REMARK    1  A    between atoms: C_7  and  C_8 
REMARK       I    between atoms: C_8  and  N_9 
REMARK    2  A    between atoms: N_9  and  C_10 
REMARK    3  A    between atoms: C_10  and  C_11 
REMARK    4  A    between atoms: C_11  and  O_12 
REMARK    5  A    between atoms: C_11  and  C_13 
ROOT
HETATM    1  C   UNL     1      43.537 -17.580   2.409  1.00  0.00     0.254 C 
HETATM    2  N   UNL     1      42.191 -17.314   2.299  1.00  0.00    -0.354 N 
HETATM    3  O   UNL     1      44.352 -17.108   1.620  1.00  0.00    -0.268 OA
HETATM    4  H   UNL     1      41.538 -17.842   2.858  1.00  0.00     0.162 HD
ENDROOT
BRANCH   2   5
HETATM    5  C   UNL     1      41.663 -16.408   1.290  1.00  0.00     0.159 C 
BRANCH   5   6
HETATM    6  C   UNL     1      41.955 -14.927   1.608  1.00  0.00     0.175 C 
BRANCH   6   7
HETATM    7  O   UNL     1      41.223 -14.089   0.705  1.00  0.00    -0.389 OA
HETATM    8  H   UNL     1      40.371 -13.916   1.142  1.00  0.00     0.210 HD
ENDBRANCH   6   7
BRANCH   6   9
HETATM    9  C   UNL     1      41.585 -14.543   3.016  1.00  0.00     0.049 A 
HETATM   10  C   UNL     1      42.561 -14.077   3.900  1.00  0.00     0.128 A 
HETATM   11  F   UNL     1      43.836 -13.974   3.499  1.00  0.00    -0.205 F 
HETATM   12  C   UNL     1      42.251 -13.714   5.212  1.00  0.00     0.043 A 
HETATM   13  C   UNL     1      40.939 -13.812   5.668  1.00  0.00     0.006 A 
HETATM   14  C   UNL     1      39.948 -14.271   4.805  1.00  0.00     0.043 A 
HETATM   15  C   UNL     1      40.275 -14.627   3.495  1.00  0.00     0.128 A 
HETATM   16  F   UNL     1      39.291 -15.073   2.700  1.00  0.00    -0.205 F 
ENDBRANCH   6   9
ENDBRANCH   5   6
ENDBRANCH   2   5
BRANCH   1  17
HETATM   17  C   UNL     1      43.913 -18.496   3.490  1.00  0.00     0.066 A 
HETATM   18  C   UNL     1      44.160 -18.196   4.830  1.00  0.00     0.022 A 
HETATM   19  C   UNL     1      44.178 -16.919   5.593  1.00  0.00     0.069 C 
HETATM   20  N   UNL     1      44.479 -19.373   5.467  1.00  0.00    -0.358 N 
HETATM   21  H   UNL     1      44.710 -19.460   6.447  1.00  0.00     0.166 HD
HETATM   22  C   UNL     1      44.497 -20.422   4.583  1.00  0.00     0.043 A 
HETATM   23  C   UNL     1      44.153 -19.908   3.335  1.00  0.00     0.008 A 
HETATM   24  C   UNL     1      44.799 -21.773   4.796  1.00  0.00     0.030 A 
HETATM   25  C   UNL     1      44.106 -20.800   2.241  1.00  0.00     0.015 A 
HETATM   26  C   UNL     1      44.406 -22.153   2.432  1.00  0.00     0.001 A 
HETATM   27  C   UNL     1      44.747 -22.631   3.694  1.00  0.00     0.002 A 
ENDBRANCH   1  17
TORSDOF 5
ENDMDL
MODEL 5
REMARK VINA RESULT:      -7.9      1.835      2.173
REMARK  5 active torsions:
REMARK  status: ('A' for Active; 'I' for Inactive)
REMARK    1  A    between atoms: C_7  and  C_8 
REMARK       I    between atoms: C_8  and  N_9 
REMARK    2  A    between atoms: N_9  and  C_10 
REMARK    3  A    between atoms: C_10  and  C_11 
REMARK    4  A    between atoms: C_11  and  O_12 
REMARK    5  A    between atoms: C_11  and  C_13 
ROOT
HETATM    1  C   UNL     1      42.508 -17.296   3.146  1.00  0.00     0.254 C 
HETATM    2  N   UNL     1      43.057 -16.696   2.037  1.00  0.00    -0.354 N 
HETATM    3  O   UNL     1      41.421 -16.947   3.595  1.00  0.00    -0.268 OA
HETATM    4  H   UNL     1      44.016 -16.893   1.793  1.00  0.00     0.162 HD
ENDROOT
BRANCH   2   5
HETATM    5  C   UNL     1      42.354 -15.662   1.292  1.00  0.00     0.159 C 
BRANCH   5   6
HETATM    6  C   UNL     1      41.508 -16.233   0.135  1.00  0.00     0.175 C 
BRANCH   6   7
HETATM    7  O   UNL     1      40.619 -17.237   0.641  1.00  0.00    -0.389 OA
HETATM    8  H   UNL     1      41.146 -18.054   0.685  1.00  0.00     0.210 HD
ENDBRANCH   6   7
BRANCH   6   9
HETATM    9  C   UNL     1      40.687 -15.185  -0.567  1.00  0.00     0.049 A 
HETATM   10  C   UNL     1      40.721 -15.079  -1.960  1.00  0.00     0.128 A 
HETATM   11  F   UNL     1      41.489 -15.910  -2.678  1.00  0.00    -0.205 F 
HETATM   12  C   UNL     1      39.973 -14.117  -2.642  1.00  0.00     0.043 A 
HETATM   13  C   UNL     1      39.167 -13.232  -1.931  1.00  0.00     0.006 A 
HETATM   14  C   UNL     1      39.114 -13.320  -0.543  1.00  0.00     0.043 A 
HETATM   15  C   UNL     1      39.866 -14.289   0.123  1.00  0.00     0.128 A 
HETATM   16  F   UNL     1      39.793 -14.332   1.461  1.00  0.00    -0.205 F 
ENDBRANCH   6   9
ENDBRANCH   5   6
ENDBRANCH   2   5
BRANCH   1  17
HETATM   17  C   UNL     1      43.332 -18.335   3.773  1.00  0.00     0.066 A 
HETATM   18  C   UNL     1      44.020 -18.279   4.985  1.00  0.00     0.022 A 
HETATM   19  C   UNL     1      44.198 -17.201   5.996  1.00  0.00     0.069 C 
HETATM   20  N   UNL     1      44.652 -19.488   5.161  1.00  0.00    -0.358 N 
HETATM   21  H   UNL     1      45.230 -19.732   5.954  1.00  0.00     0.166 HD
HETATM   22  C   UNL     1      44.443 -20.313   4.086  1.00  0.00     0.043 A 
HETATM   23  C   UNL     1      43.625 -19.622   3.195  1.00  0.00     0.008 A 
HETATM   24  C   UNL     1      44.921 -21.606   3.838  1.00  0.00     0.030 A 
HETATM   25  C   UNL     1      43.265 -20.265   1.990  1.00  0.00     0.015 A 
HETATM   26  C   UNL     1      43.734 -21.555   1.723  1.00  0.00     0.001 A 
HETATM   27  C   UNL     1      44.552 -22.215   2.636  1.00  0.00     0.002 A 
ENDBRANCH   1  17
TORSDOF 5
ENDMDL
MODEL 6
REMARK VINA RESULT:      -7.8      2.278      3.382
REMARK  5 active torsions:
REMARK  status: ('A' for Active; 'I' for Inactive)
REMARK    1  A    between atoms: C_7  and  C_8 
REMARK       I    between atoms: C_8  and  N_9 
REMARK    2  A    between atoms: N_9  and  C_10 
REMARK    3  A    between atoms: C_10  and  C_11 
REMARK    4  A    between atoms: C_11  and  O_12 
REMARK    5  A    between atoms: C_11  and  C_13 
ROOT
HETATM    1  C   UNL     1      42.480 -16.720   3.708  1.00  0.00     0.254 C 
HETATM    2  N   UNL     1      43.007 -15.955   2.693  1.00  0.00    -0.354 N 
HETATM    3  O   UNL     1      41.387 -16.464   4.205  1.00  0.00    -0.268 OA
HETATM    4  H   UNL     1      43.969 -16.093   2.421  1.00  0.00     0.162 HD
ENDROOT
BRANCH   2   5
HETATM    5  C   UNL     1      42.274 -14.845   2.103  1.00  0.00     0.159 C 
BRANCH   5   6
HETATM    6  C   UNL     1      42.629 -13.488   2.747  1.00  0.00     0.175 C 
BRANCH   6   7
HETATM    7  O   UNL     1      42.729 -12.486   1.727  1.00  0.00    -0.389 OA
HETATM    8  H   UNL     1      42.410 -12.911   0.912  1.00  0.00     0.210 HD
ENDBRANCH   6   7
BRANCH   6   9
HETATM    9  C   UNL     1      41.613 -13.033   3.760  1.00  0.00     0.049 A 
HETATM   10  C   UNL     1      41.952 -12.955   5.113  1.00  0.00     0.128 A 
HETATM   11  F   UNL     1      43.186 -13.290   5.516  1.00  0.00    -0.205 F 
HETATM   12  C   UNL     1      41.034 -12.539   6.078  1.00  0.00     0.043 A 
HETATM   13  C   UNL     1      39.741 -12.188   5.700  1.00  0.00     0.006 A 
HETATM   14  C   UNL     1      39.379 -12.255   4.357  1.00  0.00     0.043 A 
HETATM   15  C   UNL     1      40.311 -12.671   3.404  1.00  0.00     0.128 A 
HETATM   16  F   UNL     1      39.919 -12.730   2.124  1.00  0.00    -0.205 F 
ENDBRANCH   6   9
ENDBRANCH   5   6
ENDBRANCH   2   5
BRANCH   1  17
HETATM   17  C   UNL     1      43.333 -17.816   4.180  1.00  0.00     0.066 A 
HETATM   18  C   UNL     1      44.097 -17.876   5.346  1.00  0.00     0.022 A 
HETATM   19  C   UNL     1      44.348 -16.900   6.441  1.00  0.00     0.069 C 
HETATM   20  N   UNL     1      44.728 -19.098   5.366  1.00  0.00    -0.358 N 
HETATM   21  H   UNL     1      45.353 -19.419   6.094  1.00  0.00     0.166 HD
HETATM   22  C   UNL     1      44.444 -19.818   4.234  1.00  0.00     0.043 A 
HETATM   23  C   UNL     1      43.577 -19.043   3.466  1.00  0.00     0.008 A 
HETATM   24  C   UNL     1      44.894 -21.082   3.834  1.00  0.00     0.030 A 
HETATM   25  C   UNL     1      43.136 -19.567   2.231  1.00  0.00     0.015 A 
HETATM   26  C   UNL     1      43.576 -20.828   1.814  1.00  0.00     0.001 A 
HETATM   27  C   UNL     1      44.444 -21.574   2.606  1.00  0.00     0.002 A 
ENDBRANCH   1  17
TORSDOF 5
ENDMDL
MODEL 7
REMARK VINA RESULT:      -7.7      1.886      3.924
REMARK  5 active torsions:
REMARK  status: ('A' for Active; 'I' for Inactive)
REMARK    1  A    between atoms: C_7  and  C_8 
REMARK       I    between atoms: C_8  and  N_9 
REMARK    2  A    between atoms: N_9  and  C_10 
REMARK    3  A    between atoms: C_10  and  C_11 
REMARK    4  A    between atoms: C_11  and  O_12 
REMARK    5  A    between atoms: C_11  and  C_13 
ROOT
HETATM    1  C   UNL     1      43.532 -17.778   2.415  1.00  0.00     0.254 C 
HETATM    2  N   UNL     1      42.208 -17.448   2.234  1.00  0.00    -0.354 N 
HETATM    3  O   UNL     1      44.393 -17.449   1.604  1.00  0.00    -0.268 OA
HETATM    4  H   UNL     1      41.511 -17.869   2.829  1.00  0.00     0.162 HD
ENDROOT
BRANCH   2   5
HETATM    5  C   UNL     1      41.762 -16.636   1.113  1.00  0.00     0.159 C 
BRANCH   5   6
HETATM    6  C   UNL     1      42.016 -15.129   1.330  1.00  0.00     0.175 C 
BRANCH   6   7
HETATM    7  O   UNL     1      41.263 -14.373   0.373  1.00  0.00    -0.389 OA
HETATM    8  H   UNL     1      40.790 -13.698   0.889  1.00  0.00     0.210 HD
ENDBRANCH   6   7
BRANCH   6   9
HETATM    9  C   UNL     1      41.635 -14.661   2.709  1.00  0.00     0.049 A 
HETATM   10  C   UNL     1      42.588 -14.068   3.541  1.00  0.00     0.128 A 
HETATM   11  F   UNL     1      43.850 -13.918   3.116  1.00  0.00    -0.205 F 
HETATM   12  C   UNL     1      42.268 -13.624   4.826  1.00  0.00     0.043 A 
HETATM   13  C   UNL     1      40.969 -13.768   5.306  1.00  0.00     0.006 A 
HETATM   14  C   UNL     1      40.001 -14.352   4.494  1.00  0.00     0.043 A 
HETATM   15  C   UNL     1      40.337 -14.788   3.212  1.00  0.00     0.128 A 
HETATM   16  F   UNL     1      39.376 -15.354   2.467  1.00  0.00    -0.205 F 
ENDBRANCH   6   9
ENDBRANCH   5   6
ENDBRANCH   2   5
BRANCH   1  17
HETATM   17  C   UNL     1      43.825 -18.583   3.604  1.00  0.00     0.066 A 
HETATM   18  C   UNL     1      44.324 -19.885   3.666  1.00  0.00     0.022 A 
HETATM   19  C   UNL     1      44.675 -20.883   2.619  1.00  0.00     0.069 C 
HETATM   20  N   UNL     1      44.436 -20.224   4.994  1.00  0.00    -0.358 N 
HETATM   21  H   UNL     1      44.769 -21.114   5.341  1.00  0.00     0.166 HD
HETATM   22  C   UNL     1      43.983 -19.212   5.801  1.00  0.00     0.043 A 
HETATM   23  C   UNL     1      43.587 -18.171   4.964  1.00  0.00     0.008 A 
HETATM   24  C   UNL     1      43.888 -19.148   7.197  1.00  0.00     0.030 A 
HETATM   25  C   UNL     1      43.070 -17.000   5.562  1.00  0.00     0.015 A 
HETATM   26  C   UNL     1      42.966 -16.918   6.954  1.00  0.00     0.001 A 
HETATM   27  C   UNL     1      43.370 -17.979   7.759  1.00  0.00     0.002 A 
ENDBRANCH   1  17
TORSDOF 5
ENDMDL
MODEL 8
REMARK VINA RESULT:      -7.6      2.097      3.589
REMARK  5 active torsions:
REMARK  status: ('A' for Active; 'I' for Inactive)
REMARK    1  A    between atoms: C_7  and  C_8 
REMARK       I    between atoms: C_8  and  N_9 
REMARK    2  A    between atoms: N_9  and  C_10 
REMARK    3  A    between atoms: C_10  and  C_11 
REMARK    4  A    between atoms: C_11  and  O_12 
REMARK    5  A    between atoms: C_11  and  C_13 
ROOT
HETATM    1  C   UNL     1      43.140 -18.110   1.652  1.00  0.00     0.254 C 
HETATM    2  N   UNL     1      41.793 -17.838   1.714  1.00  0.00    -0.354 N 
HETATM    3  O   UNL     1      43.822 -17.770   0.690  1.00  0.00    -0.268 OA
HETATM    4  H   UNL     1      41.236 -18.270   2.436  1.00  0.00     0.162 HD
ENDROOT
BRANCH   2   5
HETATM    5  C   UNL     1      41.112 -17.074   0.680  1.00  0.00     0.159 C 
BRANCH   5   6
HETATM    6  C   UNL     1      41.214 -15.550   0.900  1.00  0.00     0.175 C 
BRANCH   6   7
HETATM    7  O   UNL     1      42.338 -15.035   0.175  1.00  0.00    -0.389 OA
HETATM    8  H   UNL     1      42.611 -14.233   0.654  1.00  0.00     0.210 HD
ENDBRANCH   6   7
BRANCH   6   9
HETATM    9  C   UNL     1      39.983 -14.807   0.456  1.00  0.00     0.049 A 
HETATM   10  C   UNL     1      38.960 -14.527   1.366  1.00  0.00     0.128 A 
HETATM   11  F   UNL     1      39.070 -14.925   2.641  1.00  0.00    -0.205 F 
HETATM   12  C   UNL     1      37.805 -13.842   0.986  1.00  0.00     0.043 A 
HETATM   13  C   UNL     1      37.651 -13.418  -0.332  1.00  0.00     0.006 A 
HETATM   14  C   UNL     1      38.657 -13.682  -1.256  1.00  0.00     0.043 A 
HETATM   15  C   UNL     1      39.808 -14.366  -0.859  1.00  0.00     0.128 A 
HETATM   16  F   UNL     1      40.748 -14.608  -1.784  1.00  0.00    -0.205 F 
ENDBRANCH   6   9
ENDBRANCH   5   6
ENDBRANCH   2   5
BRANCH   1  17
HETATM   17  C   UNL     1      43.682 -18.871   2.782  1.00  0.00     0.066 A 
HETATM   18  C   UNL     1      44.062 -20.213   2.818  1.00  0.00     0.022 A 
HETATM   19  C   UNL     1      44.016 -21.303   1.806  1.00  0.00     0.069 C 
HETATM   20  N   UNL     1      44.511 -20.484   4.090  1.00  0.00    -0.358 N 
HETATM   21  H   UNL     1      44.848 -21.383   4.409  1.00  0.00     0.166 HD
HETATM   22  C   UNL     1      44.393 -19.383   4.898  1.00  0.00     0.043 A 
HETATM   23  C   UNL     1      43.872 -18.356   4.115  1.00  0.00     0.008 A 
HETATM   24  C   UNL     1      44.698 -19.227   6.257  1.00  0.00     0.030 A 
HETATM   25  C   UNL     1      43.648 -17.103   4.726  1.00  0.00     0.015 A 
HETATM   26  C   UNL     1      43.945 -16.928   6.082  1.00  0.00     0.001 A 
HETATM   27  C   UNL     1      44.463 -17.978   6.835  1.00  0.00     0.002 A 
ENDBRANCH   1  17
TORSDOF 5
ENDMDL
MODEL 9
REMARK VINA RESULT:      -7.6      2.262      6.613
REMARK  5 active torsions:
REMARK  status: ('A' for Active; 'I' for Inactive)
REMARK    1  A    between atoms: C_7  and  C_8 
REMARK       I    between atoms: C_8  and  N_9 
REMARK    2  A    between atoms: N_9  and  C_10 
REMARK    3  A    between atoms: C_10  and  C_11 
REMARK    4  A    between atoms: C_11  and  O_12 
REMARK    5  A    between atoms: C_11  and  C_13 
ROOT
HETATM    1  C   UNL     1      42.290 -16.147   4.541  1.00  0.00     0.254 C 
HETATM    2  N   UNL     1      42.069 -17.503   4.619  1.00  0.00    -0.354 N 
HETATM    3  O   UNL     1      43.210 -15.609   5.151  1.00  0.00    -0.268 OA
HETATM    4  H   UNL     1      41.215 -17.885   4.240  1.00  0.00     0.162 HD
ENDROOT
BRANCH   2   5
HETATM    5  C   UNL     1      42.948 -18.386   5.370  1.00  0.00     0.159 C 
BRANCH   5   6
HETATM    6  C   UNL     1      44.297 -18.627   4.662  1.00  0.00     0.175 C 
BRANCH   6   7
HETATM    7  O   UNL     1      45.348 -18.669   5.636  1.00  0.00    -0.389 OA
HETATM    8  H   UNL     1      45.527 -19.614   5.785  1.00  0.00     0.210 HD
ENDBRANCH   6   7
BRANCH   6   9
HETATM    9  C   UNL     1      44.329 -19.909   3.875  1.00  0.00     0.049 A 
HETATM   10  C   UNL     1      44.081 -19.900   2.500  1.00  0.00     0.128 A 
HETATM   11  F   UNL     1      43.810 -18.745   1.875  1.00  0.00    -0.205 F 
HETATM   12  C   UNL     1      44.101 -21.071   1.742  1.00  0.00     0.043 A 
HETATM   13  C   UNL     1      44.374 -22.291   2.355  1.00  0.00     0.006 A 
HETATM   14  C   UNL     1      44.626 -22.326   3.723  1.00  0.00     0.043 A 
HETATM   15  C   UNL     1      44.605 -21.145   4.467  1.00  0.00     0.128 A 
HETATM   16  F   UNL     1      44.844 -21.225   5.784  1.00  0.00    -0.205 F 
ENDBRANCH   6   9
ENDBRANCH   5   6
ENDBRANCH   2   5
BRANCH   1  17
HETATM   17  C   UNL     1      41.329 -15.397   3.727  1.00  0.00     0.066 A 
HETATM   18  C   UNL     1      40.290 -14.570   4.158  1.00  0.00     0.022 A 
HETATM   19  C   UNL     1      39.782 -14.208   5.510  1.00  0.00     0.069 C 
HETATM   20  N   UNL     1      39.656 -14.082   3.040  1.00  0.00    -0.358 N 
HETATM   21  H   UNL     1      38.861 -13.458   3.048  1.00  0.00     0.166 HD
HETATM   22  C   UNL     1      40.210 -14.597   1.896  1.00  0.00     0.043 A 
HETATM   23  C   UNL     1      41.256 -15.429   2.289  1.00  0.00     0.008 A 
HETATM   24  C   UNL     1      39.857 -14.396   0.555  1.00  0.00     0.030 A 
HETATM   25  C   UNL     1      41.990 -16.092   1.281  1.00  0.00     0.015 A 
HETATM   26  C   UNL     1      41.653 -15.904  -0.064  1.00  0.00     0.001 A 
HETATM   27  C   UNL     1      40.599 -15.067  -0.419  1.00  0.00     0.002 A 
ENDBRANCH   1  17
TORSDOF 5
ENDMDL
MODEL 10
REMARK VINA RESULT:      -7.6      1.428      2.271
REMARK  5 active torsions:
REMARK  status: ('A' for Active; 'I' for Inactive)
REMARK    1  A    between atoms: C_7  and  C_8 
REMARK       I    between atoms: C_8  and  N_9 
REMARK    2  A    between atoms: N_9  and  C_10 
REMARK    3  A    between atoms: C_10  and  C_11 
REMARK    4  A    between atoms: C_11  and  O_12 
REMARK    5  A    between atoms: C_11  and  C_13 
ROOT
HETATM    1  C   UNL     1      42.236 -16.768   5.533  1.00  0.00     0.254 C 
HETATM    2  N   UNL     1      42.682 -15.716   4.767  1.00  0.00    -0.354 N 
HETATM    3  O   UNL     1      41.195 -16.697   6.180  1.00  0.00    -0.268 OA
HETATM    4  H   UNL     1      43.614 -15.748   4.381  1.00  0.00     0.162 HD
ENDROOT
BRANCH   2   5
HETATM    5  C   UNL     1      41.916 -14.487   4.623  1.00  0.00     0.159 C 
BRANCH   5   6
HETATM    6  C   UNL     1      40.641 -14.676   3.775  1.00  0.00     0.175 C 
BRANCH   6   7
HETATM    7  O   UNL     1      39.915 -13.442   3.720  1.00  0.00    -0.389 OA
HETATM    8  H   UNL     1      40.087 -13.001   4.570  1.00  0.00     0.210 HD
ENDBRANCH   6   7
BRANCH   6   9
HETATM    9  C   UNL     1      40.931 -15.117   2.365  1.00  0.00     0.049 A 
HETATM   10  C   UNL     1      41.446 -14.211   1.434  1.00  0.00     0.128 A 
HETATM   11  F   UNL     1      41.680 -12.941   1.793  1.00  0.00    -0.205 F 
HETATM   12  C   UNL     1      41.725 -14.587   0.119  1.00  0.00     0.043 A 
HETATM   13  C   UNL     1      41.490 -15.896  -0.293  1.00  0.00     0.006 A 
HETATM   14  C   UNL     1      40.980 -16.818   0.616  1.00  0.00     0.043 A 
HETATM   15  C   UNL     1      40.709 -16.426   1.929  1.00  0.00     0.128 A 
HETATM   16  F   UNL     1      40.211 -17.344   2.770  1.00  0.00    -0.205 F 
ENDBRANCH   6   9
ENDBRANCH   5   6
ENDBRANCH   2   5
BRANCH   1  17
HETATM   17  C   UNL     1      43.111 -17.945   5.559  1.00  0.00     0.066 A 
HETATM   18  C   UNL     1      43.792 -18.492   6.647  1.00  0.00     0.022 A 
HETATM   19  C   UNL     1      43.911 -18.084   8.073  1.00  0.00     0.069 C 
HETATM   20  N   UNL     1      44.486 -19.589   6.193  1.00  0.00    -0.358 N 
HETATM   21  H   UNL     1      45.074 -20.183   6.764  1.00  0.00     0.166 HD
HETATM   22  C   UNL     1      44.323 -19.750   4.841  1.00  0.00     0.043 A 
HETATM   23  C   UNL     1      43.473 -18.735   4.410  1.00  0.00     0.008 A 
HETATM   24  C   UNL     1      44.870 -20.707   3.977  1.00  0.00     0.030 A 
HETATM   25  C   UNL     1      43.151 -18.679   3.036  1.00  0.00     0.015 A 
HETATM   26  C   UNL     1      43.687 -19.625   2.156  1.00  0.00     0.001 A 
HETATM   27  C   UNL     1      44.536 -20.625   2.623  1.00  0.00     0.002 A 
ENDBRANCH   1  17
TORSDOF 5
ENDMDL
