MODEL 1
REMARK VINA RESULT:      -8.4      0.000      0.000
REMARK  3 active torsions:
REMARK  status: ('A' for Active; 'I' for Inactive)
REMARK    1  A    between atoms: C_8  and  C_9 
REMARK    2  A    between atoms: C_16  and  O_17 
REMARK    3  A    between atoms: C_24  and  N_25 
ROOT
HETATM    1  C   UNL     1      44.441 -20.587   3.431  1.00  0.00     0.073 C 
HETATM    2  C   UNL     1      44.218 -20.567   4.897  1.00  0.00     0.062 A 
HETATM    3  N   UNL     1      44.150 -21.718   5.589  1.00  0.00    -0.177 NA
HETATM    4  N   UNL     1      43.955 -21.330   6.866  1.00  0.00    -0.256 N 
HETATM    5  H   UNL     1      43.883 -22.037   7.588  1.00  0.00     0.191 HD
HETATM    6  C   UNL     1      43.898 -19.981   6.999  1.00  0.00     0.175 A 
HETATM    7  C   UNL     1      44.048 -19.448   5.746  1.00  0.00     0.034 A 
HETATM    8  C   UNL     1      44.051 -17.969   5.558  1.00  0.00     0.106 A 
HETATM    9  C   UNL     1      43.933 -17.261   6.913  1.00  0.00     0.081 A 
HETATM   10  C   UNL     1      44.025 -15.838   6.897  1.00  0.00     0.100 C 
HETATM   11  N   UNL     1      44.097 -14.680   6.895  1.00  0.00    -0.191 NA
HETATM   12  C   UNL     1      43.790 -17.931   8.090  1.00  0.00     0.140 A 
HETATM   13  O   UNL     1      43.738 -19.336   8.148  1.00  0.00    -0.279 OA
ENDROOT
BRANCH   8  14
HETATM   14  C   UNL     1      42.888 -17.657   4.610  1.00  0.00    -0.033 A 
HETATM   15  C   UNL     1      43.060 -17.512   3.198  1.00  0.00    -0.016 A 
HETATM   16  C   UNL     1      41.924 -17.205   2.392  1.00  0.00     0.008 A 
HETATM   17  C   UNL     1      44.307 -17.654   2.533  1.00  0.00     0.013 A 
HETATM   18  C   UNL     1      42.092 -17.063   0.997  1.00  0.00     0.015 A 
HETATM   19  C   UNL     1      40.649 -17.039   2.990  1.00  0.00     0.079 A 
HETATM   20  C   UNL     1      43.330 -17.211   0.379  1.00  0.00     0.001 A 
HETATM   21  C   UNL     1      44.440 -17.507   1.150  1.00  0.00     0.001 A 
HETATM   22  C   UNL     1      40.500 -17.179   4.366  1.00  0.00     0.038 A 
HETATM   23  C   UNL     1      41.600 -17.478   5.162  1.00  0.00     0.012 A 
BRANCH  19  24
HETATM   24  O   UNL     1      39.609 -16.743   2.139  1.00  0.00    -0.355 OA
HETATM   25  C   UNL     1      39.192 -15.388   2.042  1.00  0.00     0.210 C 
ENDBRANCH  19  24
ENDBRANCH   8  14
BRANCH  12  26
HETATM   26  N   UNL     1      43.684 -17.346   9.332  1.00  0.00    -0.282 NA
HETATM   27  H   UNL     1      42.759 -17.007   9.583  1.00  0.00     0.126 HD
HETATM   28  H   UNL     1      44.115 -17.910  10.061  1.00  0.00     0.126 HD
ENDBRANCH  12  26
TORSDOF 3
ENDMDL
MODEL 2
REMARK VINA RESULT:      -7.8      2.930      6.253
REMARK  3 active torsions:
REMARK  status: ('A' for Active; 'I' for Inactive)
REMARK    1  A    between atoms: C_8  and  C_9 
REMARK    2  A    between atoms: C_16  and  O_17 
REMARK    3  A    between atoms: C_24  and  N_25 
ROOT
HETATM    1  C   UNL     1      44.145 -13.652   4.679  1.00  0.00     0.073 C 
HETATM    2  C   UNL     1      42.716 -13.431   4.347  1.00  0.00     0.062 A 
HETATM    3  N   UNL     1      42.104 -12.290   4.708  1.00  0.00    -0.177 NA
HETATM    4  N   UNL     1      40.844 -12.425   4.244  1.00  0.00    -0.256 N 
HETATM    5  H   UNL     1      40.184 -11.669   4.389  1.00  0.00     0.191 HD
HETATM    6  C   UNL     1      40.645 -13.608   3.609  1.00  0.00     0.175 A 
HETATM    7  C   UNL     1      41.827 -14.296   3.666  1.00  0.00     0.034 A 
HETATM    8  C   UNL     1      41.940 -15.641   3.031  1.00  0.00     0.106 A 
HETATM    9  C   UNL     1      40.628 -16.008   2.328  1.00  0.00     0.081 A 
HETATM   10  C   UNL     1      40.623 -17.227   1.588  1.00  0.00     0.100 C 
HETATM   11  N   UNL     1      40.608 -18.218   0.984  1.00  0.00    -0.191 NA
HETATM   12  C   UNL     1      39.523 -15.213   2.355  1.00  0.00     0.140 A 
HETATM   13  O   UNL     1      39.506 -13.983   3.040  1.00  0.00    -0.279 OA
ENDROOT
BRANCH   8  14
HETATM   14  C   UNL     1      42.316 -16.613   4.154  1.00  0.00    -0.033 A 
HETATM   15  C   UNL     1      43.121 -17.774   3.933  1.00  0.00    -0.016 A 
HETATM   16  C   UNL     1      43.409 -18.634   5.033  1.00  0.00     0.008 A 
HETATM   17  C   UNL     1      43.662 -18.135   2.670  1.00  0.00     0.013 A 
HETATM   18  C   UNL     1      44.207 -19.780   4.817  1.00  0.00     0.015 A 
HETATM   19  C   UNL     1      42.895 -18.341   6.321  1.00  0.00     0.079 A 
HETATM   20  C   UNL     1      44.721 -20.101   3.564  1.00  0.00     0.001 A 
HETATM   21  C   UNL     1      44.447 -19.276   2.489  1.00  0.00     0.001 A 
HETATM   22  C   UNL     1      42.109 -17.211   6.519  1.00  0.00     0.038 A 
HETATM   23  C   UNL     1      41.822 -16.365   5.453  1.00  0.00     0.012 A 
BRANCH  19  24
HETATM   24  O   UNL     1      43.221 -19.225   7.326  1.00  0.00    -0.355 OA
HETATM   25  C   UNL     1      44.162 -18.803   8.303  1.00  0.00     0.210 C 
ENDBRANCH  19  24
ENDBRANCH   8  14
BRANCH  12  26
HETATM   26  N   UNL     1      38.324 -15.491   1.739  1.00  0.00    -0.282 NA
HETATM   27  H   UNL     1      37.608 -15.901   2.333  1.00  0.00     0.126 HD
HETATM   28  H   UNL     1      37.985 -14.709   1.185  1.00  0.00     0.126 HD
ENDBRANCH  12  26
TORSDOF 3
ENDMDL
MODEL 3
REMARK VINA RESULT:      -7.5      1.954      2.994
REMARK  3 active torsions:
REMARK  status: ('A' for Active; 'I' for Inactive)
REMARK    1  A    between atoms: C_8  and  C_9 
REMARK    2  A    between atoms: C_16  and  O_17 
REMARK    3  A    between atoms: C_24  and  N_25 
ROOT
HETATM    1  C   UNL     1      44.692 -17.972   1.811  1.00  0.00     0.073 C 
HETATM    2  C   UNL     1      44.496 -19.058   2.801  1.00  0.00     0.062 A 
HETATM    3  N   UNL     1      44.592 -20.346   2.426  1.00  0.00    -0.177 NA
HETATM    4  N   UNL     1      44.371 -21.042   3.560  1.00  0.00    -0.256 N 
HETATM    5  H   UNL     1      44.405 -22.055   3.528  1.00  0.00     0.191 HD
HETATM    6  C   UNL     1      44.141 -20.240   4.630  1.00  0.00     0.175 A 
HETATM    7  C   UNL     1      44.197 -18.947   4.180  1.00  0.00     0.034 A 
HETATM    8  C   UNL     1      44.003 -17.816   5.132  1.00  0.00     0.106 A 
HETATM    9  C   UNL     1      43.818 -18.348   6.559  1.00  0.00     0.081 A 
HETATM   10  C   UNL     1      43.723 -17.371   7.593  1.00  0.00     0.100 C 
HETATM   11  N   UNL     1      43.643 -16.585   8.443  1.00  0.00    -0.191 NA
HETATM   12  C   UNL     1      43.786 -19.676   6.857  1.00  0.00     0.140 A 
HETATM   13  O   UNL     1      43.919 -20.667   5.867  1.00  0.00    -0.279 OA
ENDROOT
BRANCH   8  14
HETATM   14  C   UNL     1      42.791 -17.030   4.619  1.00  0.00    -0.033 A 
HETATM   15  C   UNL     1      42.670 -15.613   4.770  1.00  0.00    -0.016 A 
HETATM   16  C   UNL     1      41.500 -14.964   4.277  1.00  0.00     0.008 A 
HETATM   17  C   UNL     1      43.652 -14.795   5.389  1.00  0.00     0.013 A 
HETATM   18  C   UNL     1      41.379 -13.564   4.423  1.00  0.00     0.015 A 
HETATM   19  C   UNL     1      40.473 -15.719   3.656  1.00  0.00     0.079 A 
HETATM   20  C   UNL     1      42.364 -12.794   5.035  1.00  0.00     0.001 A 
HETATM   21  C   UNL     1      43.503 -13.412   5.519  1.00  0.00     0.001 A 
HETATM   22  C   UNL     1      40.605 -17.098   3.521  1.00  0.00     0.038 A 
HETATM   23  C   UNL     1      41.741 -17.741   3.998  1.00  0.00     0.012 A 
BRANCH  19  24
HETATM   24  O   UNL     1      39.379 -15.013   3.210  1.00  0.00    -0.355 OA
HETATM   25  C   UNL     1      39.051 -15.095   1.830  1.00  0.00     0.210 C 
ENDBRANCH  19  24
ENDBRANCH   8  14
BRANCH  12  26
HETATM   26  N   UNL     1      43.628 -20.206   8.118  1.00  0.00    -0.282 NA
HETATM   27  H   UNL     1      42.693 -20.136   8.512  1.00  0.00     0.126 HD
HETATM   28  H   UNL     1      44.027 -21.138   8.196  1.00  0.00     0.126 HD
ENDBRANCH  12  26
TORSDOF 3
ENDMDL
MODEL 4
REMARK VINA RESULT:      -7.4      3.347      6.264
REMARK  3 active torsions:
REMARK  status: ('A' for Active; 'I' for Inactive)
REMARK    1  A    between atoms: C_8  and  C_9 
REMARK    2  A    between atoms: C_16  and  O_17 
REMARK    3  A    between atoms: C_24  and  N_25 
ROOT
HETATM    1  C   UNL     1      43.561 -18.610   3.410  1.00  0.00     0.073 C 
HETATM    2  C   UNL     1      43.169 -17.721   2.290  1.00  0.00     0.062 A 
HETATM    3  N   UNL     1      43.618 -17.959   1.045  1.00  0.00    -0.177 NA
HETATM    4  N   UNL     1      43.064 -16.982   0.297  1.00  0.00    -0.256 N 
HETATM    5  H   UNL     1      43.252 -16.959  -0.698  1.00  0.00     0.191 HD
HETATM    6  C   UNL     1      42.287 -16.142   1.027  1.00  0.00     0.175 A 
HETATM    7  C   UNL     1      42.339 -16.575   2.325  1.00  0.00     0.034 A 
HETATM    8  C   UNL     1      41.563 -15.864   3.381  1.00  0.00     0.106 A 
HETATM    9  C   UNL     1      40.742 -14.726   2.763  1.00  0.00     0.081 A 
HETATM   10  C   UNL     1      39.869 -14.022   3.643  1.00  0.00     0.100 C 
HETATM   11  N   UNL     1      39.156 -13.441   4.351  1.00  0.00    -0.191 NA
HETATM   12  C   UNL     1      40.791 -14.411   1.440  1.00  0.00     0.140 A 
HETATM   13  O   UNL     1      41.610 -15.112   0.534  1.00  0.00    -0.279 OA
ENDROOT
BRANCH   8  14
HETATM   14  C   UNL     1      42.589 -15.378   4.411  1.00  0.00    -0.033 A 
HETATM   15  C   UNL     1      42.789 -16.029   5.669  1.00  0.00    -0.016 A 
HETATM   16  C   UNL     1      43.755 -15.498   6.574  1.00  0.00     0.008 A 
HETATM   17  C   UNL     1      42.078 -17.185   6.084  1.00  0.00     0.013 A 
HETATM   18  C   UNL     1      43.955 -16.141   7.816  1.00  0.00     0.015 A 
HETATM   19  C   UNL     1      44.495 -14.340   6.230  1.00  0.00     0.079 A 
HETATM   20  C   UNL     1      43.239 -17.275   8.189  1.00  0.00     0.001 A 
HETATM   21  C   UNL     1      42.299 -17.798   7.321  1.00  0.00     0.001 A 
HETATM   22  C   UNL     1      44.285 -13.716   5.004  1.00  0.00     0.038 A 
HETATM   23  C   UNL     1      43.346 -14.224   4.113  1.00  0.00     0.012 A 
BRANCH  19  24
HETATM   24  O   UNL     1      45.405 -13.895   7.162  1.00  0.00    -0.355 OA
HETATM   25  C   UNL     1      44.985 -12.894   8.078  1.00  0.00     0.210 C 
ENDBRANCH  19  24
ENDBRANCH   8  14
BRANCH  12  26
HETATM   26  N   UNL     1      40.073 -13.404   0.833  1.00  0.00    -0.282 NA
HETATM   27  H   UNL     1      39.520 -12.821   1.454  1.00  0.00     0.126 HD
HETATM   28  H   UNL     1      40.639 -12.869   0.178  1.00  0.00     0.126 HD
ENDBRANCH  12  26
TORSDOF 3
ENDMDL
MODEL 5
REMARK VINA RESULT:      -7.2      4.707      6.721
REMARK  3 active torsions:
REMARK  status: ('A' for Active; 'I' for Inactive)
REMARK    1  A    between atoms: C_8  and  C_9 
REMARK    2  A    between atoms: C_16  and  O_17 
REMARK    3  A    between atoms: C_24  and  N_25 
ROOT
HETATM    1  C   UNL     1      42.083 -16.495   0.557  1.00  0.00     0.073 C 
HETATM    2  C   UNL     1      41.371 -16.133   1.807  1.00  0.00     0.062 A 
HETATM    3  N   UNL     1      41.108 -17.070   2.734  1.00  0.00    -0.177 NA
HETATM    4  N   UNL     1      40.476 -16.399   3.719  1.00  0.00    -0.256 N 
HETATM    5  H   UNL     1      40.184 -16.904   4.548  1.00  0.00     0.191 HD
HETATM    6  C   UNL     1      40.333 -15.078   3.443  1.00  0.00     0.175 A 
HETATM    7  C   UNL     1      40.885 -14.866   2.207  1.00  0.00     0.034 A 
HETATM    8  C   UNL     1      40.904 -13.494   1.623  1.00  0.00     0.106 A 
HETATM    9  C   UNL     1      40.306 -12.486   2.612  1.00  0.00     0.081 A 
HETATM   10  C   UNL     1      40.352 -11.114   2.228  1.00  0.00     0.100 C 
HETATM   11  N   UNL     1      40.383  -9.994   1.924  1.00  0.00    -0.191 NA
HETATM   12  C   UNL     1      39.792 -12.849   3.820  1.00  0.00     0.140 A 
HETATM   13  O   UNL     1      39.768 -14.189   4.250  1.00  0.00    -0.279 OA
ENDROOT
BRANCH   8  14
HETATM   14  C   UNL     1      40.125 -13.580   0.306  1.00  0.00    -0.033 A 
HETATM   15  C   UNL     1      40.729 -13.328  -0.966  1.00  0.00    -0.016 A 
HETATM   16  C   UNL     1      39.925 -13.415  -2.141  1.00  0.00     0.008 A 
HETATM   17  C   UNL     1      42.097 -12.990  -1.141  1.00  0.00     0.013 A 
HETATM   18  C   UNL     1      40.520 -13.169  -3.398  1.00  0.00     0.015 A 
HETATM   19  C   UNL     1      38.549 -13.738  -2.041  1.00  0.00     0.079 A 
HETATM   20  C   UNL     1      41.867 -12.841  -3.531  1.00  0.00     0.001 A 
HETATM   21  C   UNL     1      42.656 -12.752  -2.399  1.00  0.00     0.001 A 
HETATM   22  C   UNL     1      37.976 -13.976  -0.796  1.00  0.00     0.038 A 
HETATM   23  C   UNL     1      38.749 -13.894   0.356  1.00  0.00     0.012 A 
BRANCH  19  24
HETATM   24  O   UNL     1      37.848 -13.800  -3.224  1.00  0.00    -0.355 OA
HETATM   25  C   UNL     1      37.352 -15.066  -3.639  1.00  0.00     0.210 C 
ENDBRANCH  19  24
ENDBRANCH   8  14
BRANCH  12  26
HETATM   26  N   UNL     1      39.248 -11.987   4.746  1.00  0.00    -0.282 NA
HETATM   27  H   UNL     1      39.612 -12.069   5.692  1.00  0.00     0.126 HD
HETATM   28  H   UNL     1      39.221 -11.027   4.410  1.00  0.00     0.126 HD
ENDBRANCH  12  26
TORSDOF 3
ENDMDL
MODEL 6
REMARK VINA RESULT:      -7.2      5.743      9.069
REMARK  3 active torsions:
REMARK  status: ('A' for Active; 'I' for Inactive)
REMARK    1  A    between atoms: C_8  and  C_9 
REMARK    2  A    between atoms: C_16  and  O_17 
REMARK    3  A    between atoms: C_24  and  N_25 
ROOT
HETATM    1  C   UNL     1      37.675 -13.992   0.057  1.00  0.00     0.073 C 
HETATM    2  C   UNL     1      38.284 -13.891  -1.291  1.00  0.00     0.062 A 
HETATM    3  N   UNL     1      37.622 -14.341  -2.371  1.00  0.00    -0.177 NA
HETATM    4  N   UNL     1      38.451 -14.084  -3.403  1.00  0.00    -0.256 N 
HETATM    5  H   UNL     1      38.157 -14.329  -4.342  1.00  0.00     0.191 HD
HETATM    6  C   UNL     1      39.607 -13.490  -3.011  1.00  0.00     0.175 A 
HETATM    7  C   UNL     1      39.546 -13.361  -1.648  1.00  0.00     0.034 A 
HETATM    8  C   UNL     1      40.671 -12.718  -0.909  1.00  0.00     0.106 A 
HETATM    9  C   UNL     1      41.744 -12.233  -1.890  1.00  0.00     0.081 A 
HETATM   10  C   UNL     1      42.835 -11.505  -1.330  1.00  0.00     0.100 C 
HETATM   11  N   UNL     1      43.728 -10.913  -0.885  1.00  0.00    -0.191 NA
HETATM   12  C   UNL     1      41.665 -12.433  -3.235  1.00  0.00     0.140 A 
HETATM   13  O   UNL     1      40.582 -13.110  -3.827  1.00  0.00    -0.279 OA
ENDROOT
BRANCH   8  14
HETATM   14  C   UNL     1      41.187 -13.770   0.079  1.00  0.00    -0.033 A 
HETATM   15  C   UNL     1      41.441 -13.477   1.456  1.00  0.00    -0.016 A 
HETATM   16  C   UNL     1      41.937 -14.513   2.302  1.00  0.00     0.008 A 
HETATM   17  C   UNL     1      41.229 -12.203   2.047  1.00  0.00     0.013 A 
HETATM   18  C   UNL     1      42.186 -14.226   3.662  1.00  0.00     0.015 A 
HETATM   19  C   UNL     1      42.181 -15.807   1.777  1.00  0.00     0.079 A 
HETATM   20  C   UNL     1      41.965 -12.964   4.208  1.00  0.00     0.001 A 
HETATM   21  C   UNL     1      41.486 -11.951   3.398  1.00  0.00     0.001 A 
HETATM   22  C   UNL     1      41.934 -16.074   0.434  1.00  0.00     0.038 A 
HETATM   23  C   UNL     1      41.450 -15.072  -0.400  1.00  0.00     0.012 A 
BRANCH  19  24
HETATM   24  O   UNL     1      42.660 -16.745   2.662  1.00  0.00    -0.355 OA
HETATM   25  C   UNL     1      43.926 -17.330   2.393  1.00  0.00     0.210 C 
ENDBRANCH  19  24
ENDBRANCH   8  14
BRANCH  12  26
HETATM   26  N   UNL     1      42.596 -12.015  -4.160  1.00  0.00    -0.282 NA
HETATM   27  H   UNL     1      43.158 -11.213  -3.888  1.00  0.00     0.126 HD
HETATM   28  H   UNL     1      43.149 -12.787  -4.525  1.00  0.00     0.126 HD
ENDBRANCH  12  26
TORSDOF 3
ENDMDL
MODEL 7
REMARK VINA RESULT:      -7.1      7.765     10.983
REMARK  3 active torsions:
REMARK  status: ('A' for Active; 'I' for Inactive)
REMARK    1  A    between atoms: C_8  and  C_9 
REMARK    2  A    between atoms: C_16  and  O_17 
REMARK    3  A    between atoms: C_24  and  N_25 
ROOT
HETATM    1  C   UNL     1      40.059 -13.031   0.491  1.00  0.00     0.073 C 
HETATM    2  C   UNL     1      40.462 -14.010  -0.548  1.00  0.00     0.062 A 
HETATM    3  N   UNL     1      41.625 -14.675  -0.438  1.00  0.00    -0.177 NA
HETATM    4  N   UNL     1      41.660 -15.470  -1.528  1.00  0.00    -0.256 N 
HETATM    5  H   UNL     1      42.453 -16.087  -1.660  1.00  0.00     0.191 HD
HETATM    6  C   UNL     1      40.563 -15.327  -2.314  1.00  0.00     0.175 A 
HETATM    7  C   UNL     1      39.768 -14.379  -1.724  1.00  0.00     0.034 A 
HETATM    8  C   UNL     1      38.464 -14.008  -2.343  1.00  0.00     0.106 A 
HETATM    9  C   UNL     1      38.205 -14.861  -3.591  1.00  0.00     0.081 A 
HETATM   10  C   UNL     1      36.943 -14.685  -4.230  1.00  0.00     0.100 C 
HETATM   11  N   UNL     1      35.919 -14.549  -4.759  1.00  0.00    -0.191 NA
HETATM   12  C   UNL     1      39.097 -15.776  -4.062  1.00  0.00     0.140 A 
HETATM   13  O   UNL     1      40.334 -16.005  -3.432  1.00  0.00    -0.279 OA
ENDROOT
BRANCH   8  14
HETATM   14  C   UNL     1      38.545 -12.508  -2.643  1.00  0.00    -0.033 A 
HETATM   15  C   UNL     1      37.737 -11.540  -1.969  1.00  0.00    -0.016 A 
HETATM   16  C   UNL     1      37.867 -10.164  -2.323  1.00  0.00     0.008 A 
HETATM   17  C   UNL     1      36.798 -11.861  -0.954  1.00  0.00     0.013 A 
HETATM   18  C   UNL     1      37.071  -9.206  -1.656  1.00  0.00     0.015 A 
HETATM   19  C   UNL     1      38.779  -9.771  -3.335  1.00  0.00     0.079 A 
HETATM   20  C   UNL     1      36.161  -9.559  -0.664  1.00  0.00     0.001 A 
HETATM   21  C   UNL     1      36.024 -10.889  -0.313  1.00  0.00     0.001 A 
HETATM   22  C   UNL     1      39.554 -10.726  -3.985  1.00  0.00     0.038 A 
HETATM   23  C   UNL     1      39.436 -12.070  -3.648  1.00  0.00     0.012 A 
BRANCH  19  24
HETATM   24  O   UNL     1      38.839  -8.425  -3.615  1.00  0.00    -0.355 OA
HETATM   25  C   UNL     1      39.915  -7.960  -4.418  1.00  0.00     0.210 C 
ENDBRANCH  19  24
ENDBRANCH   8  14
BRANCH  12  26
HETATM   26  N   UNL     1      38.914 -16.569  -5.172  1.00  0.00    -0.282 NA
HETATM   27  H   UNL     1      38.959 -16.091  -6.068  1.00  0.00     0.126 HD
HETATM   28  H   UNL     1      39.480 -17.414  -5.140  1.00  0.00     0.126 HD
ENDBRANCH  12  26
TORSDOF 3
ENDMDL
MODEL 8
REMARK VINA RESULT:      -7.0      3.829      5.519
REMARK  3 active torsions:
REMARK  status: ('A' for Active; 'I' for Inactive)
REMARK    1  A    between atoms: C_8  and  C_9 
REMARK    2  A    between atoms: C_16  and  O_17 
REMARK    3  A    between atoms: C_24  and  N_25 
ROOT
HETATM    1  C   UNL     1      42.666 -16.399   1.216  1.00  0.00     0.073 C 
HETATM    2  C   UNL     1      42.033 -16.508   2.552  1.00  0.00     0.062 A 
HETATM    3  N   UNL     1      41.957 -17.699   3.173  1.00  0.00    -0.177 NA
HETATM    4  N   UNL     1      41.345 -17.427   4.344  1.00  0.00    -0.256 N 
HETATM    5  H   UNL     1      41.184 -18.183   5.000  1.00  0.00     0.191 HD
HETATM    6  C   UNL     1      41.034 -16.113   4.479  1.00  0.00     0.175 A 
HETATM    7  C   UNL     1      41.449 -15.484   3.335  1.00  0.00     0.034 A 
HETATM    8  C   UNL     1      41.266 -14.012   3.183  1.00  0.00     0.106 A 
HETATM    9  C   UNL     1      40.652 -13.419   4.457  1.00  0.00     0.081 A 
HETATM   10  C   UNL     1      40.513 -12.000   4.494  1.00  0.00     0.100 C 
HETATM   11  N   UNL     1      40.394 -10.847   4.535  1.00  0.00    -0.191 NA
HETATM   12  C   UNL     1      40.289 -14.177   5.528  1.00  0.00     0.140 A 
HETATM   13  O   UNL     1      40.450 -15.575   5.543  1.00  0.00    -0.279 OA
ENDROOT
BRANCH   8  14
HETATM   14  C   UNL     1      40.388 -13.817   1.943  1.00  0.00    -0.033 A 
HETATM   15  C   UNL     1      40.797 -13.025   0.824  1.00  0.00    -0.016 A 
HETATM   16  C   UNL     1      39.909 -12.884  -0.283  1.00  0.00     0.008 A 
HETATM   17  C   UNL     1      42.047 -12.358   0.741  1.00  0.00     0.013 A 
HETATM   18  C   UNL     1      40.312 -12.104  -1.390  1.00  0.00     0.015 A 
HETATM   19  C   UNL     1      38.639 -13.514  -0.264  1.00  0.00     0.079 A 
HETATM   20  C   UNL     1      41.548 -11.465  -1.437  1.00  0.00     0.001 A 
HETATM   21  C   UNL     1      42.417 -11.593  -0.369  1.00  0.00     0.001 A 
HETATM   22  C   UNL     1      38.254 -14.277   0.834  1.00  0.00     0.038 A 
HETATM   23  C   UNL     1      39.112 -14.422   1.919  1.00  0.00     0.012 A 
BRANCH  19  24
HETATM   24  O   UNL     1      37.846 -13.325  -1.373  1.00  0.00    -0.355 OA
HETATM   25  C   UNL     1      37.888 -14.308  -2.398  1.00  0.00     0.210 C 
ENDBRANCH  19  24
ENDBRANCH   8  14
BRANCH  12  26
HETATM   26  N   UNL     1      39.739 -13.697   6.696  1.00  0.00    -0.282 NA
HETATM   27  H   UNL     1      40.220 -13.961   7.551  1.00  0.00     0.126 HD
HETATM   28  H   UNL     1      39.532 -12.702   6.643  1.00  0.00     0.126 HD
ENDBRANCH  12  26
TORSDOF 3
ENDMDL
MODEL 9
REMARK VINA RESULT:      -6.9      3.747      6.261
REMARK  3 active torsions:
REMARK  status: ('A' for Active; 'I' for Inactive)
REMARK    1  A    between atoms: C_8  and  C_9 
REMARK    2  A    between atoms: C_16  and  O_17 
REMARK    3  A    between atoms: C_24  and  N_25 
ROOT
HETATM    1  C   UNL     1      39.955 -14.976   5.750  1.00  0.00     0.073 C 
HETATM    2  C   UNL     1      41.270 -15.510   5.320  1.00  0.00     0.062 A 
HETATM    3  N   UNL     1      42.210 -15.813   6.233  1.00  0.00    -0.177 NA
HETATM    4  N   UNL     1      43.248 -16.272   5.504  1.00  0.00    -0.256 N 
HETATM    5  H   UNL     1      44.087 -16.579   5.983  1.00  0.00     0.191 HD
HETATM    6  C   UNL     1      42.994 -16.268   4.170  1.00  0.00     0.175 A 
HETATM    7  C   UNL     1      41.729 -15.767   4.007  1.00  0.00     0.034 A 
HETATM    8  C   UNL     1      41.142 -15.653   2.641  1.00  0.00     0.106 A 
HETATM    9  C   UNL     1      42.114 -16.212   1.596  1.00  0.00     0.081 A 
HETATM   10  C   UNL     1      41.643 -16.262   0.251  1.00  0.00     0.100 C 
HETATM   11  N   UNL     1      41.270 -16.305  -0.847  1.00  0.00    -0.191 NA
HETATM   12  C   UNL     1      43.352 -16.684   1.912  1.00  0.00     0.140 A 
HETATM   13  O   UNL     1      43.834 -16.689   3.234  1.00  0.00    -0.279 OA
ENDROOT
BRANCH   8  14
HETATM   14  C   UNL     1      40.824 -14.168   2.436  1.00  0.00    -0.033 A 
HETATM   15  C   UNL     1      39.601 -13.714   1.849  1.00  0.00    -0.016 A 
HETATM   16  C   UNL     1      39.395 -12.313   1.681  1.00  0.00     0.008 A 
HETATM   17  C   UNL     1      38.562 -14.578   1.415  1.00  0.00     0.013 A 
HETATM   18  C   UNL     1      38.187 -11.862   1.104  1.00  0.00     0.015 A 
HETATM   19  C   UNL     1      40.395 -11.391   2.083  1.00  0.00     0.079 A 
HETATM   20  C   UNL     1      37.189 -12.740   0.691  1.00  0.00     0.001 A 
HETATM   21  C   UNL     1      37.378 -14.101   0.846  1.00  0.00     0.001 A 
HETATM   22  C   UNL     1      41.581 -11.850   2.648  1.00  0.00     0.038 A 
HETATM   23  C   UNL     1      41.793 -13.213   2.817  1.00  0.00     0.012 A 
BRANCH  19  24
HETATM   24  O   UNL     1      40.114 -10.059   1.884  1.00  0.00    -0.355 OA
HETATM   25  C   UNL     1      40.977  -9.316   1.034  1.00  0.00     0.210 C 
ENDBRANCH  19  24
ENDBRANCH   8  14
BRANCH  12  26
HETATM   26  N   UNL     1      44.262 -17.200   1.016  1.00  0.00    -0.282 NA
HETATM   27  H   UNL     1      43.866 -17.618   0.177  1.00  0.00     0.126 HD
HETATM   28  H   UNL     1      45.021 -16.552   0.820  1.00  0.00     0.126 HD
ENDBRANCH  12  26
TORSDOF 3
ENDMDL
MODEL 10
REMARK VINA RESULT:      -6.9      9.113     10.740
REMARK  3 active torsions:
REMARK  status: ('A' for Active; 'I' for Inactive)
REMARK    1  A    between atoms: C_8  and  C_9 
REMARK    2  A    between atoms: C_16  and  O_17 
REMARK    3  A    between atoms: C_24  and  N_25 
ROOT
HETATM    1  C   UNL     1      36.555 -14.782  -4.063  1.00  0.00     0.073 C 
HETATM    2  C   UNL     1      37.961 -15.213  -3.866  1.00  0.00     0.062 A 
HETATM    3  N   UNL     1      38.286 -16.516  -3.930  1.00  0.00    -0.177 NA
HETATM    4  N   UNL     1      39.618 -16.538  -3.719  1.00  0.00    -0.256 N 
HETATM    5  H   UNL     1      40.103 -17.429  -3.733  1.00  0.00     0.191 HD
HETATM    6  C   UNL     1      40.139 -15.300  -3.525  1.00  0.00     0.175 A 
HETATM    7  C   UNL     1      39.096 -14.413  -3.597  1.00  0.00     0.034 A 
HETATM    8  C   UNL     1      39.348 -12.952  -3.443  1.00  0.00     0.106 A 
HETATM    9  C   UNL     1      40.848 -12.684  -3.278  1.00  0.00     0.081 A 
HETATM   10  C   UNL     1      41.248 -11.317  -3.222  1.00  0.00     0.100 C 
HETATM   11  N   UNL     1      41.585 -10.207  -3.174  1.00  0.00    -0.191 NA
HETATM   12  C   UNL     1      41.777 -13.678  -3.226  1.00  0.00     0.140 A 
HETATM   13  O   UNL     1      41.423 -15.037  -3.320  1.00  0.00    -0.279 OA
ENDROOT
BRANCH   8  14
HETATM   14  C   UNL     1      38.517 -12.500  -2.237  1.00  0.00    -0.033 A 
HETATM   15  C   UNL     1      37.362 -11.666  -2.364  1.00  0.00    -0.016 A 
HETATM   16  C   UNL     1      36.658 -11.280  -1.185  1.00  0.00     0.008 A 
HETATM   17  C   UNL     1      36.862 -11.188  -3.603  1.00  0.00     0.013 A 
HETATM   18  C   UNL     1      35.515 -10.459  -1.308  1.00  0.00     0.015 A 
HETATM   19  C   UNL     1      37.106 -11.713   0.088  1.00  0.00     0.079 A 
HETATM   20  C   UNL     1      35.053 -10.009  -2.541  1.00  0.00     0.001 A 
HETATM   21  C   UNL     1      35.728 -10.375  -3.691  1.00  0.00     0.001 A 
HETATM   22  C   UNL     1      38.234 -12.520   0.194  1.00  0.00     0.038 A 
HETATM   23  C   UNL     1      38.929 -12.903  -0.948  1.00  0.00     0.012 A 
BRANCH  19  24
HETATM   24  O   UNL     1      36.368 -11.294   1.172  1.00  0.00    -0.355 OA
HETATM   25  C   UNL     1      36.989 -10.415   2.100  1.00  0.00     0.210 C 
ENDBRANCH  19  24
ENDBRANCH   8  14
BRANCH  12  26
HETATM   26  N   UNL     1      43.135 -13.495  -3.084  1.00  0.00    -0.282 NA
HETATM   27  H   UNL     1      43.723 -14.197  -3.523  1.00  0.00     0.126 HD
HETATM   28  H   UNL     1      43.419 -12.542  -3.298  1.00  0.00     0.126 HD
ENDBRANCH  12  26
TORSDOF 3
ENDMDL
