MODEL 1
REMARK VINA RESULT:      -8.9      0.000      0.000
REMARK  7 active torsions:
REMARK  status: ('A' for Active; 'I' for Inactive)
REMARK    1  A    between atoms: S_2  and  C_3 
REMARK    2  A    between atoms: C_3  and  C_4 
REMARK    3  A    between atoms: C_4  and  C_5 
REMARK    4  A    between atoms: C_5  and  N_6 
REMARK    5  A    between atoms: C_5  and  C_26 
REMARK       I    between atoms: N_6  and  C_7 
REMARK    6  A    between atoms: C_7  and  C_8 
REMARK    7  A    between atoms: C_8  and  N_9 
ROOT
HETATM    1  N   UNL     1      39.886 -14.735   0.149  1.00  0.00    -0.348 N 
HETATM    2  C   UNL     1      41.246 -14.961   0.099  1.00  0.00     0.236 C 
HETATM    3  O   UNL     1      42.089 -14.087   0.257  1.00  0.00    -0.272 OA
HETATM    4  H   UNL     1      39.322 -15.425  -0.342  1.00  0.00     0.163 HD
ENDROOT
BRANCH   2   5
HETATM    5  C   UNL     1      41.590 -16.411  -0.246  1.00  0.00     0.239 C 
BRANCH   5   6
HETATM    6  N   UNL     1      41.896 -17.153   0.960  1.00  0.00    -0.259 N 
HETATM    7  C   UNL     1      41.019 -17.366   1.978  1.00  0.00     0.326 C 
HETATM    8  O   UNL     1      39.853 -16.999   2.031  1.00  0.00    -0.247 OA
HETATM    9  N   UNL     1      41.655 -18.067   2.969  1.00  0.00    -0.320 N 
HETATM   10  C   UNL     1      43.091 -18.109   2.769  1.00  0.00     0.144 C 
HETATM   11  H   UNL     1      41.187 -18.325   3.827  1.00  0.00     0.165 HD
HETATM   12  C   UNL     1      43.627 -19.519   2.920  1.00  0.00    -0.014 A 
HETATM   13  C   UNL     1      43.775 -17.101   3.714  1.00  0.00     0.047 C 
HETATM   14  C   UNL     1      43.160 -17.531   1.335  1.00  0.00     0.261 C 
HETATM   15  C   UNL     1      44.335 -19.901   4.081  1.00  0.00    -0.049 A 
HETATM   16  C   UNL     1      43.405 -20.485   1.920  1.00  0.00     0.011 A 
HETATM   17  C   UNL     1      44.833 -21.209   4.195  1.00  0.00     0.007 A 
HETATM   18  C   UNL     1      44.653 -18.923   5.189  1.00  0.00     0.039 C 
HETATM   19  C   UNL     1      44.621 -22.143   3.184  1.00  0.00     0.001 A 
HETATM   20  C   UNL     1      43.905 -21.783   2.049  1.00  0.00     0.001 A 
HETATM   21  C   UNL     1      43.822 -17.646   5.137  1.00  0.00     0.008 C 
HETATM   22  O   UNL     1      44.180 -17.354   0.683  1.00  0.00    -0.270 OA
ENDBRANCH   5   6
ENDBRANCH   2   5
BRANCH   1  23
HETATM   23  C   UNL     1      39.304 -13.414   0.332  1.00  0.00     0.155 C 
BRANCH  23  24
HETATM   24  C   UNL     1      37.860 -13.349  -0.195  1.00  0.00     0.043 C 
BRANCH  24  25
HETATM   25  C   UNL     1      37.792 -12.781  -1.614  1.00  0.00     0.076 C 
BRANCH  25  26
HETATM   26  S   UNL     1      37.891 -14.132  -2.834  1.00  0.00    -0.173 SA
HETATM   27  C   UNL     1      39.579 -13.837  -3.416  1.00  0.00     0.089 C 
ENDBRANCH  25  26
ENDBRANCH  24  25
ENDBRANCH  23  24
BRANCH  23  28
HETATM   28  C   UNL     1      39.364 -13.090   1.802  1.00  0.00     0.128 A 
HETATM   29  N   UNL     1      38.973 -11.967   2.373  1.00  0.00    -0.231 NA
HETATM   30  C   UNL     1      39.172 -12.141   3.720  1.00  0.00     0.085 A 
HETATM   31  C   UNL     1      39.694 -13.402   3.985  1.00  0.00     0.062 A 
HETATM   32  C   UNL     1      38.925 -11.265   4.786  1.00  0.00     0.034 A 
HETATM   33  N   UNL     1      39.793 -13.991   2.752  1.00  0.00    -0.341 N 
HETATM   34  C   UNL     1      40.002 -13.850   5.270  1.00  0.00     0.032 A 
HETATM   35  H   UNL     1      40.121 -14.931   2.569  1.00  0.00     0.167 HD
HETATM   36  C   UNL     1      39.752 -12.961   6.322  1.00  0.00     0.002 A 
HETATM   37  C   UNL     1      39.220 -11.690   6.088  1.00  0.00     0.002 A 
ENDBRANCH  23  28
ENDBRANCH   1  23
TORSDOF 7
ENDMDL
MODEL 2
REMARK VINA RESULT:      -8.9      3.091      4.458
REMARK  7 active torsions:
REMARK  status: ('A' for Active; 'I' for Inactive)
REMARK    1  A    between atoms: S_2  and  C_3 
REMARK    2  A    between atoms: C_3  and  C_4 
REMARK    3  A    between atoms: C_4  and  C_5 
REMARK    4  A    between atoms: C_5  and  N_6 
REMARK    5  A    between atoms: C_5  and  C_26 
REMARK       I    between atoms: N_6  and  C_7 
REMARK    6  A    between atoms: C_7  and  C_8 
REMARK    7  A    between atoms: C_8  and  N_9 
ROOT
HETATM    1  N   UNL     1      41.948 -14.125   1.258  1.00  0.00    -0.348 N 
HETATM    2  C   UNL     1      41.103 -14.865   0.456  1.00  0.00     0.236 C 
HETATM    3  O   UNL     1      39.957 -14.533   0.182  1.00  0.00    -0.272 OA
HETATM    4  H   UNL     1      42.697 -14.658   1.692  1.00  0.00     0.163 HD
ENDROOT
BRANCH   2   5
HETATM    5  C   UNL     1      41.729 -16.185   0.002  1.00  0.00     0.239 C 
BRANCH   5   6
HETATM    6  N   UNL     1      41.996 -17.032   1.147  1.00  0.00    -0.259 N 
HETATM    7  C   UNL     1      41.085 -17.332   2.113  1.00  0.00     0.326 C 
HETATM    8  O   UNL     1      39.919 -16.968   2.161  1.00  0.00    -0.247 OA
HETATM    9  N   UNL     1      41.689 -18.120   3.058  1.00  0.00    -0.320 N 
HETATM   10  C   UNL     1      43.131 -18.147   2.903  1.00  0.00     0.144 C 
HETATM   11  H   UNL     1      41.194 -18.452   3.875  1.00  0.00     0.165 HD
HETATM   12  C   UNL     1      43.662 -19.567   2.945  1.00  0.00    -0.014 A 
HETATM   13  C   UNL     1      43.784 -17.229   3.955  1.00  0.00     0.047 C 
HETATM   14  C   UNL     1      43.246 -17.445   1.528  1.00  0.00     0.261 C 
HETATM   15  C   UNL     1      44.332 -20.052   4.091  1.00  0.00    -0.049 A 
HETATM   16  C   UNL     1      43.473 -20.440   1.857  1.00  0.00     0.011 A 
HETATM   17  C   UNL     1      44.827 -21.365   4.104  1.00  0.00     0.007 A 
HETATM   18  C   UNL     1      44.614 -19.177   5.290  1.00  0.00     0.039 C 
HETATM   19  C   UNL     1      44.648 -22.206   3.008  1.00  0.00     0.001 A 
HETATM   20  C   UNL     1      43.969 -21.745   1.887  1.00  0.00     0.001 A 
HETATM   21  C   UNL     1      43.784 -17.898   5.324  1.00  0.00     0.008 C 
HETATM   22  O   UNL     1      44.287 -17.213   0.928  1.00  0.00    -0.270 OA
ENDBRANCH   5   6
ENDBRANCH   2   5
BRANCH   1  23
HETATM   23  C   UNL     1      41.542 -12.894   1.919  1.00  0.00     0.155 C 
BRANCH  23  24
HETATM   24  C   UNL     1      42.162 -12.770   3.322  1.00  0.00     0.043 C 
BRANCH  24  25
HETATM   25  C   UNL     1      42.059 -14.077   4.112  1.00  0.00     0.076 C 
BRANCH  25  26
HETATM   26  S   UNL     1      40.333 -14.365   4.623  1.00  0.00    -0.173 SA
HETATM   27  C   UNL     1      40.631 -15.692   5.817  1.00  0.00     0.089 C 
ENDBRANCH  25  26
ENDBRANCH  24  25
ENDBRANCH  23  24
BRANCH  23  28
HETATM   28  C   UNL     1      41.954 -11.746   1.037  1.00  0.00     0.128 A 
HETATM   29  N   UNL     1      42.651 -11.827  -0.081  1.00  0.00    -0.231 NA
HETATM   30  C   UNL     1      42.743 -10.544  -0.560  1.00  0.00     0.085 A 
HETATM   31  C   UNL     1      42.084  -9.653   0.278  1.00  0.00     0.062 A 
HETATM   32  C   UNL     1      43.373 -10.059  -1.715  1.00  0.00     0.034 A 
HETATM   33  N   UNL     1      41.578 -10.442   1.277  1.00  0.00    -0.341 N 
HETATM   34  C   UNL     1      42.021  -8.279   0.040  1.00  0.00     0.032 A 
HETATM   35  H   UNL     1      41.019 -10.123   2.058  1.00  0.00     0.167 HD
HETATM   36  C   UNL     1      42.658  -7.812  -1.116  1.00  0.00     0.002 A 
HETATM   37  C   UNL     1      43.321  -8.685  -1.982  1.00  0.00     0.002 A 
ENDBRANCH  23  28
ENDBRANCH   1  23
TORSDOF 7
ENDMDL
MODEL 3
REMARK VINA RESULT:      -8.8      2.816      8.331
REMARK  7 active torsions:
REMARK  status: ('A' for Active; 'I' for Inactive)
REMARK    1  A    between atoms: S_2  and  C_3 
REMARK    2  A    between atoms: C_3  and  C_4 
REMARK    3  A    between atoms: C_4  and  C_5 
REMARK    4  A    between atoms: C_5  and  N_6 
REMARK    5  A    between atoms: C_5  and  C_26 
REMARK       I    between atoms: N_6  and  C_7 
REMARK    6  A    between atoms: C_7  and  C_8 
REMARK    7  A    between atoms: C_8  and  N_9 
ROOT
HETATM    1  N   UNL     1      42.139 -14.986   4.469  1.00  0.00    -0.348 N 
HETATM    2  C   UNL     1      42.334 -13.962   3.565  1.00  0.00     0.236 C 
HETATM    3  O   UNL     1      43.433 -13.613   3.154  1.00  0.00    -0.272 OA
HETATM    4  H   UNL     1      41.267 -14.935   4.988  1.00  0.00     0.163 HD
ENDROOT
BRANCH   2   5
HETATM    5  C   UNL     1      41.030 -13.258   3.183  1.00  0.00     0.239 C 
BRANCH   5   6
HETATM    6  N   UNL     1      40.523 -13.789   1.933  1.00  0.00    -0.259 N 
HETATM    7  C   UNL     1      39.966 -15.022   1.789  1.00  0.00     0.326 C 
HETATM    8  O   UNL     1      39.782 -15.852   2.668  1.00  0.00    -0.247 OA
HETATM    9  N   UNL     1      39.637 -15.205   0.471  1.00  0.00    -0.320 N 
HETATM   10  C   UNL     1      40.230 -14.193  -0.383  1.00  0.00     0.144 C 
HETATM   11  H   UNL     1      39.217 -16.062   0.137  1.00  0.00     0.165 HD
HETATM   12  C   UNL     1      39.203 -13.604  -1.331  1.00  0.00    -0.014 A 
HETATM   13  C   UNL     1      41.454 -14.780  -1.111  1.00  0.00     0.047 C 
HETATM   14  C   UNL     1      40.749 -13.223   0.705  1.00  0.00     0.261 C 
HETATM   15  C   UNL     1      39.197 -13.961  -2.698  1.00  0.00    -0.049 A 
HETATM   16  C   UNL     1      38.218 -12.712  -0.865  1.00  0.00     0.011 A 
HETATM   17  C   UNL     1      38.246 -13.394  -3.562  1.00  0.00     0.007 A 
HETATM   18  C   UNL     1      40.237 -14.881  -3.296  1.00  0.00     0.039 C 
HETATM   19  C   UNL     1      37.293 -12.498  -3.084  1.00  0.00     0.001 A 
HETATM   20  C   UNL     1      37.277 -12.160  -1.736  1.00  0.00     0.001 A 
HETATM   21  C   UNL     1      41.015 -15.682  -2.259  1.00  0.00     0.008 C 
HETATM   22  O   UNL     1      41.345 -12.173   0.503  1.00  0.00    -0.270 OA
ENDBRANCH   5   6
ENDBRANCH   2   5
BRANCH   1  23
HETATM   23  C   UNL     1      43.233 -15.723   5.084  1.00  0.00     0.155 C 
BRANCH  23  24
HETATM   24  C   UNL     1      43.000 -15.939   6.589  1.00  0.00     0.043 C 
BRANCH  24  25
HETATM   25  C   UNL     1      44.200 -15.489   7.425  1.00  0.00     0.076 C 
BRANCH  25  26
HETATM   26  S   UNL     1      44.877 -13.933   6.760  1.00  0.00    -0.173 SA
HETATM   27  C   UNL     1      44.856 -12.963   8.288  1.00  0.00     0.089 C 
ENDBRANCH  25  26
ENDBRANCH  24  25
ENDBRANCH  23  24
BRANCH  23  28
HETATM   28  C   UNL     1      43.361 -17.036   4.357  1.00  0.00     0.128 A 
HETATM   29  N   UNL     1      42.773 -17.365   3.223  1.00  0.00    -0.231 NA
HETATM   30  C   UNL     1      43.217 -18.628   2.922  1.00  0.00     0.085 A 
HETATM   31  C   UNL     1      44.103 -19.086   3.890  1.00  0.00     0.062 A 
HETATM   32  C   UNL     1      42.911 -19.453   1.829  1.00  0.00     0.034 A 
HETATM   33  N   UNL     1      44.190 -18.052   4.783  1.00  0.00    -0.341 N 
HETATM   34  C   UNL     1      44.707 -20.344   3.844  1.00  0.00     0.032 A 
HETATM   35  H   UNL     1      44.768 -18.033   5.614  1.00  0.00     0.167 HD
HETATM   36  C   UNL     1      44.387 -21.154   2.748  1.00  0.00     0.002 A 
HETATM   37  C   UNL     1      43.507 -20.718   1.754  1.00  0.00     0.002 A 
ENDBRANCH  23  28
ENDBRANCH   1  23
TORSDOF 7
ENDMDL
MODEL 4
REMARK VINA RESULT:      -8.7      4.858      8.509
REMARK  7 active torsions:
REMARK  status: ('A' for Active; 'I' for Inactive)
REMARK    1  A    between atoms: S_2  and  C_3 
REMARK    2  A    between atoms: C_3  and  C_4 
REMARK    3  A    between atoms: C_4  and  C_5 
REMARK    4  A    between atoms: C_5  and  N_6 
REMARK    5  A    between atoms: C_5  and  C_26 
REMARK       I    between atoms: N_6  and  C_7 
REMARK    6  A    between atoms: C_7  and  C_8 
REMARK    7  A    between atoms: C_8  and  N_9 
ROOT
HETATM    1  N   UNL     1      40.675 -11.773   5.114  1.00  0.00    -0.348 N 
HETATM    2  C   UNL     1      39.444 -11.300   5.517  1.00  0.00     0.236 C 
HETATM    3  O   UNL     1      38.378 -11.812   5.199  1.00  0.00    -0.272 OA
HETATM    4  H   UNL     1      41.422 -11.084   5.133  1.00  0.00     0.163 HD
ENDROOT
BRANCH   2   5
HETATM    5  C   UNL     1      39.548 -10.021   6.350  1.00  0.00     0.239 C 
BRANCH   5   6
HETATM    6  N   UNL     1      40.258 -10.285   7.585  1.00  0.00    -0.259 N 
HETATM    7  C   UNL     1      39.745 -10.983   8.635  1.00  0.00     0.326 C 
HETATM    8  O   UNL     1      38.643 -11.510   8.698  1.00  0.00    -0.247 OA
HETATM    9  N   UNL     1      40.671 -11.003   9.645  1.00  0.00    -0.320 N 
HETATM   10  C   UNL     1      41.751 -10.063   9.412  1.00  0.00     0.144 C 
HETATM   11  H   UNL     1      40.492 -11.463  10.528  1.00  0.00     0.165 HD
HETATM   12  C   UNL     1      43.104 -10.715   9.623  1.00  0.00    -0.014 A 
HETATM   13  C   UNL     1      41.544  -8.810  10.285  1.00  0.00     0.047 C 
HETATM   14  C   UNL     1      41.431  -9.675   7.948  1.00  0.00     0.261 C 
HETATM   15  C   UNL     1      43.861 -10.444  10.785  1.00  0.00    -0.049 A 
HETATM   16  C   UNL     1      43.620 -11.625   8.681  1.00  0.00     0.011 A 
HETATM   17  C   UNL     1      45.117 -11.049  10.954  1.00  0.00     0.007 A 
HETATM   18  C   UNL     1      43.405  -9.454  11.831  1.00  0.00     0.039 C 
HETATM   19  C   UNL     1      45.618 -11.930   9.999  1.00  0.00     0.001 A 
HETATM   20  C   UNL     1      44.869 -12.221   8.866  1.00  0.00     0.001 A 
HETATM   21  C   UNL     1      41.926  -9.095  11.733  1.00  0.00     0.008 C 
HETATM   22  O   UNL     1      42.066  -8.885   7.263  1.00  0.00    -0.270 OA
ENDBRANCH   5   6
ENDBRANCH   2   5
BRANCH   1  23
HETATM   23  C   UNL     1      40.838 -12.900   4.209  1.00  0.00     0.155 C 
BRANCH  23  24
HETATM   24  C   UNL     1      41.618 -12.507   2.942  1.00  0.00     0.043 C 
BRANCH  24  25
HETATM   25  C   UNL     1      40.966 -13.059   1.672  1.00  0.00     0.076 C 
BRANCH  25  26
HETATM   26  S   UNL     1      39.193 -13.365   1.963  1.00  0.00    -0.173 SA
HETATM   27  C   UNL     1      39.218 -15.171   1.858  1.00  0.00     0.089 C 
ENDBRANCH  25  26
ENDBRANCH  24  25
ENDBRANCH  23  24
BRANCH  23  28
HETATM   28  C   UNL     1      41.543 -13.995   4.966  1.00  0.00     0.128 A 
HETATM   29  N   UNL     1      42.799 -13.986   5.368  1.00  0.00    -0.231 NA
HETATM   30  C   UNL     1      42.983 -15.161   6.052  1.00  0.00     0.085 A 
HETATM   31  C   UNL     1      41.813 -15.909   6.076  1.00  0.00     0.062 A 
HETATM   32  C   UNL     1      44.128 -15.661   6.689  1.00  0.00     0.034 A 
HETATM   33  N   UNL     1      40.908 -15.141   5.393  1.00  0.00    -0.341 N 
HETATM   34  C   UNL     1      41.710 -17.155   6.698  1.00  0.00     0.032 A 
HETATM   35  H   UNL     1      39.936 -15.372   5.232  1.00  0.00     0.167 HD
HETATM   36  C   UNL     1      42.864 -17.639   7.326  1.00  0.00     0.002 A 
HETATM   37  C   UNL     1      44.053 -16.906   7.326  1.00  0.00     0.002 A 
ENDBRANCH  23  28
ENDBRANCH   1  23
TORSDOF 7
ENDMDL
MODEL 5
REMARK VINA RESULT:      -8.7      2.231      4.765
REMARK  7 active torsions:
REMARK  status: ('A' for Active; 'I' for Inactive)
REMARK    1  A    between atoms: S_2  and  C_3 
REMARK    2  A    between atoms: C_3  and  C_4 
REMARK    3  A    between atoms: C_4  and  C_5 
REMARK    4  A    between atoms: C_5  and  N_6 
REMARK    5  A    between atoms: C_5  and  C_26 
REMARK       I    between atoms: N_6  and  C_7 
REMARK    6  A    between atoms: C_7  and  C_8 
REMARK    7  A    between atoms: C_8  and  N_9 
ROOT
HETATM    1  N   UNL     1      40.375 -13.360   3.344  1.00  0.00    -0.348 N 
HETATM    2  C   UNL     1      40.266 -13.573   4.703  1.00  0.00     0.236 C 
HETATM    3  O   UNL     1      39.226 -13.439   5.334  1.00  0.00    -0.272 OA
HETATM    4  H   UNL     1      41.315 -13.150   3.020  1.00  0.00     0.163 HD
ENDROOT
BRANCH   2   5
HETATM    5  C   UNL     1      41.605 -13.927   5.352  1.00  0.00     0.239 C 
BRANCH   5   6
HETATM    6  N   UNL     1      42.284 -14.945   4.575  1.00  0.00    -0.259 N 
HETATM    7  C   UNL     1      43.192 -14.689   3.595  1.00  0.00     0.326 C 
HETATM    8  O   UNL     1      43.594 -13.591   3.235  1.00  0.00    -0.247 OA
HETATM    9  N   UNL     1      43.598 -15.878   3.048  1.00  0.00    -0.320 N 
HETATM   10  C   UNL     1      42.752 -16.982   3.459  1.00  0.00     0.144 C 
HETATM   11  H   UNL     1      44.267 -15.920   2.292  1.00  0.00     0.165 HD
HETATM   12  C   UNL     1      43.578 -18.162   3.934  1.00  0.00    -0.014 A 
HETATM   13  C   UNL     1      41.784 -17.346   2.317  1.00  0.00     0.047 C 
HETATM   14  C   UNL     1      41.932 -16.270   4.562  1.00  0.00     0.261 C 
HETATM   15  C   UNL     1      43.731 -19.308   3.122  1.00  0.00    -0.049 A 
HETATM   16  C   UNL     1      44.233 -18.129   5.180  1.00  0.00     0.011 A 
HETATM   17  C   UNL     1      44.490 -20.394   3.586  1.00  0.00     0.007 A 
HETATM   18  C   UNL     1      43.036 -19.448   1.787  1.00  0.00     0.039 C 
HETATM   19  C   UNL     1      45.113 -20.349   4.831  1.00  0.00     0.001 A 
HETATM   20  C   UNL     1      44.987 -19.216   5.626  1.00  0.00     0.001 A 
HETATM   21  C   UNL     1      42.508 -18.131   1.229  1.00  0.00     0.008 C 
HETATM   22  O   UNL     1      41.052 -16.781   5.242  1.00  0.00    -0.270 OA
ENDBRANCH   5   6
ENDBRANCH   2   5
BRANCH   1  23
HETATM   23  C   UNL     1      39.271 -12.888   2.521  1.00  0.00     0.155 C 
BRANCH  23  24
HETATM   24  C   UNL     1      39.215 -11.351   2.470  1.00  0.00     0.043 C 
BRANCH  24  25
HETATM   25  C   UNL     1      40.613 -10.726   2.467  1.00  0.00     0.076 C 
BRANCH  25  26
HETATM   26  S   UNL     1      40.942  -9.940   0.856  1.00  0.00    -0.173 SA
HETATM   27  C   UNL     1      42.114 -11.155   0.205  1.00  0.00     0.089 C 
ENDBRANCH  25  26
ENDBRANCH  24  25
ENDBRANCH  23  24
BRANCH  23  28
HETATM   28  C   UNL     1      39.446 -13.474   1.145  1.00  0.00     0.128 A 
HETATM   29  N   UNL     1      38.724 -13.193   0.077  1.00  0.00    -0.231 NA
HETATM   30  C   UNL     1      39.272 -13.923  -0.949  1.00  0.00     0.085 A 
HETATM   31  C   UNL     1      40.359 -14.666  -0.503  1.00  0.00     0.062 A 
HETATM   32  C   UNL     1      38.898 -14.000  -2.298  1.00  0.00     0.034 A 
HETATM   33  N   UNL     1      40.459 -14.353   0.826  1.00  0.00    -0.341 N 
HETATM   34  C   UNL     1      41.105 -15.507  -1.330  1.00  0.00     0.032 A 
HETATM   35  H   UNL     1      41.160 -14.703   1.467  1.00  0.00     0.167 HD
HETATM   36  C   UNL     1      40.715 -15.574  -2.673  1.00  0.00     0.002 A 
HETATM   37  C   UNL     1      39.632 -14.831  -3.153  1.00  0.00     0.002 A 
ENDBRANCH  23  28
ENDBRANCH   1  23
TORSDOF 7
ENDMDL
MODEL 6
REMARK VINA RESULT:      -8.7      2.849      8.488
REMARK  7 active torsions:
REMARK  status: ('A' for Active; 'I' for Inactive)
REMARK    1  A    between atoms: S_2  and  C_3 
REMARK    2  A    between atoms: C_3  and  C_4 
REMARK    3  A    between atoms: C_4  and  C_5 
REMARK    4  A    between atoms: C_5  and  N_6 
REMARK    5  A    between atoms: C_5  and  C_26 
REMARK       I    between atoms: N_6  and  C_7 
REMARK    6  A    between atoms: C_7  and  C_8 
REMARK    7  A    between atoms: C_8  and  N_9 
ROOT
HETATM    1  N   UNL     1      42.631 -16.237   4.870  1.00  0.00    -0.348 N 
HETATM    2  C   UNL     1      42.359 -15.261   3.933  1.00  0.00     0.236 C 
HETATM    3  O   UNL     1      43.197 -14.791   3.174  1.00  0.00    -0.272 OA
HETATM    4  H   UNL     1      41.978 -16.273   5.647  1.00  0.00     0.163 HD
ENDROOT
BRANCH   2   5
HETATM    5  C   UNL     1      40.909 -14.777   3.991  1.00  0.00     0.239 C 
BRANCH   5   6
HETATM    6  N   UNL     1      40.532 -14.177   2.727  1.00  0.00    -0.259 N 
HETATM    7  C   UNL     1      40.788 -12.887   2.378  1.00  0.00     0.326 C 
HETATM    8  O   UNL     1      41.385 -12.051   3.043  1.00  0.00    -0.247 OA
HETATM    9  N   UNL     1      40.257 -12.651   1.137  1.00  0.00    -0.320 N 
HETATM   10  C   UNL     1      39.363 -13.714   0.718  1.00  0.00     0.144 C 
HETATM   11  H   UNL     1      40.324 -11.748   0.688  1.00  0.00     0.165 HD
HETATM   12  C   UNL     1      39.675 -14.171  -0.694  1.00  0.00    -0.014 A 
HETATM   13  C   UNL     1      37.900 -13.262   0.895  1.00  0.00     0.047 C 
HETATM   14  C   UNL     1      39.672 -14.750   1.826  1.00  0.00     0.261 C 
HETATM   15  C   UNL     1      38.842 -13.799  -1.772  1.00  0.00    -0.049 A 
HETATM   16  C   UNL     1      40.817 -14.950  -0.964  1.00  0.00     0.011 A 
HETATM   17  C   UNL     1      39.142 -14.243  -3.070  1.00  0.00     0.007 A 
HETATM   18  C   UNL     1      37.576 -12.997  -1.573  1.00  0.00     0.039 C 
HETATM   19  C   UNL     1      40.265 -15.031  -3.312  1.00  0.00     0.001 A 
HETATM   20  C   UNL     1      41.103 -15.381  -2.261  1.00  0.00     0.001 A 
HETATM   21  C   UNL     1      37.498 -12.302  -0.219  1.00  0.00     0.008 C 
HETATM   22  O   UNL     1      39.164 -15.859   1.931  1.00  0.00    -0.270 OA
ENDBRANCH   5   6
ENDBRANCH   2   5
BRANCH   1  23
HETATM   23  C   UNL     1      43.965 -16.769   5.101  1.00  0.00     0.155 C 
BRANCH  23  24
HETATM   24  C   UNL     1      44.304 -16.825   6.601  1.00  0.00     0.043 C 
BRANCH  24  25
HETATM   25  C   UNL     1      43.876 -15.552   7.333  1.00  0.00     0.076 C 
BRANCH  25  26
HETATM   26  S   UNL     1      44.877 -14.138   6.768  1.00  0.00    -0.173 SA
HETATM   27  C   UNL     1      44.703 -13.090   8.234  1.00  0.00     0.089 C 
ENDBRANCH  25  26
ENDBRANCH  24  25
ENDBRANCH  23  24
BRANCH  23  28
HETATM   28  C   UNL     1      44.024 -18.138   4.476  1.00  0.00     0.128 A 
HETATM   29  N   UNL     1      43.712 -18.446   3.232  1.00  0.00    -0.231 NA
HETATM   30  C   UNL     1      43.963 -19.789   3.102  1.00  0.00     0.085 A 
HETATM   31  C   UNL     1      44.445 -20.320   4.292  1.00  0.00     0.062 A 
HETATM   32  C   UNL     1      43.808 -20.630   1.991  1.00  0.00     0.034 A 
HETATM   33  N   UNL     1      44.490 -19.250   5.146  1.00  0.00    -0.341 N 
HETATM   34  C   UNL     1      44.779 -21.666   4.453  1.00  0.00     0.032 A 
HETATM   35  H   UNL     1      44.813 -19.269   6.104  1.00  0.00     0.167 HD
HETATM   36  C   UNL     1      44.615 -22.491   3.334  1.00  0.00     0.002 A 
HETATM   37  C   UNL     1      44.140 -21.984   2.121  1.00  0.00     0.002 A 
ENDBRANCH  23  28
ENDBRANCH   1  23
TORSDOF 7
ENDMDL
MODEL 7
REMARK VINA RESULT:      -8.6      2.295      4.597
REMARK  7 active torsions:
REMARK  status: ('A' for Active; 'I' for Inactive)
REMARK    1  A    between atoms: S_2  and  C_3 
REMARK    2  A    between atoms: C_3  and  C_4 
REMARK    3  A    between atoms: C_4  and  C_5 
REMARK    4  A    between atoms: C_5  and  N_6 
REMARK    5  A    between atoms: C_5  and  C_26 
REMARK       I    between atoms: N_6  and  C_7 
REMARK    6  A    between atoms: C_7  and  C_8 
REMARK    7  A    between atoms: C_8  and  N_9 
ROOT
HETATM    1  N   UNL     1      39.551 -13.307   2.865  1.00  0.00    -0.348 N 
HETATM    2  C   UNL     1      40.048 -14.543   3.225  1.00  0.00     0.236 C 
HETATM    3  O   UNL     1      39.799 -15.580   2.625  1.00  0.00    -0.272 OA
HETATM    4  H   UNL     1      39.527 -12.623   3.616  1.00  0.00     0.163 HD
ENDROOT
BRANCH   2   5
HETATM    5  C   UNL     1      40.891 -14.489   4.500  1.00  0.00     0.239 C 
BRANCH   5   6
HETATM    6  N   UNL     1      41.515 -15.774   4.742  1.00  0.00    -0.259 N 
HETATM    7  C   UNL     1      41.083 -16.680   5.661  1.00  0.00     0.326 C 
HETATM    8  O   UNL     1      40.110 -16.574   6.396  1.00  0.00    -0.247 OA
HETATM    9  N   UNL     1      41.927 -17.759   5.647  1.00  0.00    -0.320 N 
HETATM   10  C   UNL     1      43.142 -17.489   4.902  1.00  0.00     0.144 C 
HETATM   11  H   UNL     1      41.797 -18.550   6.263  1.00  0.00     0.165 HD
HETATM   12  C   UNL     1      43.448 -18.608   3.925  1.00  0.00    -0.014 A 
HETATM   13  C   UNL     1      44.300 -17.211   5.880  1.00  0.00     0.047 C 
HETATM   14  C   UNL     1      42.741 -16.143   4.252  1.00  0.00     0.261 C 
HETATM   15  C   UNL     1      44.479 -19.537   4.192  1.00  0.00    -0.049 A 
HETATM   16  C   UNL     1      42.694 -18.762   2.746  1.00  0.00     0.011 A 
HETATM   17  C   UNL     1      44.754 -20.557   3.268  1.00  0.00     0.007 A 
HETATM   18  C   UNL     1      45.364 -19.428   5.412  1.00  0.00     0.039 C 
HETATM   19  C   UNL     1      44.009 -20.679   2.098  1.00  0.00     0.001 A 
HETATM   20  C   UNL     1      42.978 -19.785   1.838  1.00  0.00     0.001 A 
HETATM   21  C   UNL     1      44.807 -18.511   6.495  1.00  0.00     0.008 C 
HETATM   22  O   UNL     1      43.440 -15.475   3.502  1.00  0.00    -0.270 OA
ENDBRANCH   5   6
ENDBRANCH   2   5
BRANCH   1  23
HETATM   23  C   UNL     1      38.618 -13.114   1.764  1.00  0.00     0.155 C 
BRANCH  23  24
HETATM   24  C   UNL     1      37.948 -11.731   1.821  1.00  0.00     0.043 C 
BRANCH  24  25
HETATM   25  C   UNL     1      38.303 -10.974   3.104  1.00  0.00     0.076 C 
BRANCH  25  26
HETATM   26  S   UNL     1      39.438  -9.600   2.725  1.00  0.00    -0.173 SA
HETATM   27  C   UNL     1      40.754 -10.016   3.896  1.00  0.00     0.089 C 
ENDBRANCH  25  26
ENDBRANCH  24  25
ENDBRANCH  23  24
BRANCH  23  28
HETATM   28  C   UNL     1      39.385 -13.297   0.481  1.00  0.00     0.128 A 
HETATM   29  N   UNL     1      40.215 -12.430  -0.066  1.00  0.00    -0.231 NA
HETATM   30  C   UNL     1      40.710 -13.041  -1.191  1.00  0.00     0.085 A 
HETATM   31  C   UNL     1      40.175 -14.316  -1.338  1.00  0.00     0.062 A 
HETATM   32  C   UNL     1      41.629 -12.571  -2.140  1.00  0.00     0.034 A 
HETATM   33  N   UNL     1      39.348 -14.461  -0.256  1.00  0.00    -0.341 N 
HETATM   34  C   UNL     1      40.495 -15.165  -2.399  1.00  0.00     0.032 A 
HETATM   35  H   UNL     1      38.804 -15.285  -0.032  1.00  0.00     0.167 HD
HETATM   36  C   UNL     1      41.412 -14.677  -3.339  1.00  0.00     0.002 A 
HETATM   37  C   UNL     1      41.973 -13.403  -3.213  1.00  0.00     0.002 A 
ENDBRANCH  23  28
ENDBRANCH   1  23
TORSDOF 7
ENDMDL
MODEL 8
REMARK VINA RESULT:      -8.3      4.554      6.587
REMARK  7 active torsions:
REMARK  status: ('A' for Active; 'I' for Inactive)
REMARK    1  A    between atoms: S_2  and  C_3 
REMARK    2  A    between atoms: C_3  and  C_4 
REMARK    3  A    between atoms: C_4  and  C_5 
REMARK    4  A    between atoms: C_5  and  N_6 
REMARK    5  A    between atoms: C_5  and  C_26 
REMARK       I    between atoms: N_6  and  C_7 
REMARK    6  A    between atoms: C_7  and  C_8 
REMARK    7  A    between atoms: C_8  and  N_9 
ROOT
HETATM    1  N   UNL     1      41.245 -11.509   6.522  1.00  0.00    -0.348 N 
HETATM    2  C   UNL     1      41.829 -12.726   6.235  1.00  0.00     0.236 C 
HETATM    3  O   UNL     1      43.001 -12.993   6.470  1.00  0.00    -0.272 OA
HETATM    4  H   UNL     1      40.419 -11.293   5.970  1.00  0.00     0.163 HD
ENDROOT
BRANCH   2   5
HETATM    5  C   UNL     1      40.872 -13.686   5.526  1.00  0.00     0.239 C 
BRANCH   5   6
HETATM    6  N   UNL     1      41.620 -14.653   4.747  1.00  0.00    -0.259 N 
HETATM    7  C   UNL     1      42.421 -14.340   3.693  1.00  0.00     0.326 C 
HETATM    8  O   UNL     1      42.657 -13.222   3.256  1.00  0.00    -0.247 OA
HETATM    9  N   UNL     1      42.936 -15.498   3.172  1.00  0.00    -0.320 N 
HETATM   10  C   UNL     1      42.264 -16.674   3.692  1.00  0.00     0.144 C 
HETATM   11  H   UNL     1      43.553 -15.498   2.371  1.00  0.00     0.165 HD
HETATM   12  C   UNL     1      43.262 -17.717   4.157  1.00  0.00    -0.014 A 
HETATM   13  C   UNL     1      41.275 -17.214   2.640  1.00  0.00     0.047 C 
HETATM   14  C   UNL     1      41.437 -16.010   4.819  1.00  0.00     0.261 C 
HETATM   15  C   UNL     1      43.503 -18.877   3.387  1.00  0.00    -0.049 A 
HETATM   16  C   UNL     1      43.989 -17.538   5.349  1.00  0.00     0.011 A 
HETATM   17  C   UNL     1      44.421 -19.836   3.843  1.00  0.00     0.007 A 
HETATM   18  C   UNL     1      42.743 -19.172   2.115  1.00  0.00     0.039 C 
HETATM   19  C   UNL     1      45.115 -19.650   5.036  1.00  0.00     0.001 A 
HETATM   20  C   UNL     1      44.902 -18.500   5.787  1.00  0.00     0.001 A 
HETATM   21  C   UNL     1      42.018 -17.961   1.539  1.00  0.00     0.008 C 
HETATM   22  O   UNL     1      40.676 -16.587   5.583  1.00  0.00    -0.270 OA
ENDBRANCH   5   6
ENDBRANCH   2   5
BRANCH   1  23
HETATM   23  C   UNL     1      41.982 -10.384   7.079  1.00  0.00     0.155 C 
BRANCH  23  24
HETATM   24  C   UNL     1      41.327  -9.040   6.717  1.00  0.00     0.043 C 
BRANCH  24  25
HETATM   25  C   UNL     1      39.829  -9.187   6.444  1.00  0.00     0.076 C 
BRANCH  25  26
HETATM   26  S   UNL     1      38.942  -7.696   7.004  1.00  0.00    -0.173 SA
HETATM   27  C   UNL     1      38.668  -8.186   8.725  1.00  0.00     0.089 C 
ENDBRANCH  25  26
ENDBRANCH  24  25
ENDBRANCH  23  24
BRANCH  23  28
HETATM   28  C   UNL     1      42.045 -10.576   8.572  1.00  0.00     0.128 A 
HETATM   29  N   UNL     1      43.110 -10.425   9.336  1.00  0.00    -0.231 NA
HETATM   30  C   UNL     1      42.686 -10.656  10.621  1.00  0.00     0.085 A 
HETATM   31  C   UNL     1      41.328 -10.952  10.649  1.00  0.00     0.062 A 
HETATM   32  C   UNL     1      43.405 -10.627  11.825  1.00  0.00     0.034 A 
HETATM   33  N   UNL     1      40.941 -10.880   9.338  1.00  0.00    -0.341 N 
HETATM   34  C   UNL     1      40.629 -11.237  11.823  1.00  0.00     0.032 A 
HETATM   35  H   UNL     1      40.001 -11.022   8.988  1.00  0.00     0.167 HD
HETATM   36  C   UNL     1      41.364 -11.206  13.014  1.00  0.00     0.002 A 
HETATM   37  C   UNL     1      42.728 -10.904  13.019  1.00  0.00     0.002 A 
ENDBRANCH  23  28
ENDBRANCH   1  23
TORSDOF 7
ENDMDL
MODEL 9
REMARK VINA RESULT:      -8.1      3.122      8.756
REMARK  7 active torsions:
REMARK  status: ('A' for Active; 'I' for Inactive)
REMARK    1  A    between atoms: S_2  and  C_3 
REMARK    2  A    between atoms: C_3  and  C_4 
REMARK    3  A    between atoms: C_4  and  C_5 
REMARK    4  A    between atoms: C_5  and  N_6 
REMARK    5  A    between atoms: C_5  and  C_26 
REMARK       I    between atoms: N_6  and  C_7 
REMARK    6  A    between atoms: C_7  and  C_8 
REMARK    7  A    between atoms: C_8  and  N_9 
ROOT
HETATM    1  N   UNL     1      41.402 -16.538   3.006  1.00  0.00    -0.348 N 
HETATM    2  C   UNL     1      41.041 -15.311   2.489  1.00  0.00     0.236 C 
HETATM    3  O   UNL     1      41.625 -14.265   2.740  1.00  0.00    -0.272 OA
HETATM    4  H   UNL     1      40.657 -17.229   3.021  1.00  0.00     0.163 HD
ENDROOT
BRANCH   2   5
HETATM    5  C   UNL     1      39.784 -15.385   1.620  1.00  0.00     0.239 C 
BRANCH   5   6
HETATM    6  N   UNL     1      39.766 -14.290   0.672  1.00  0.00    -0.259 N 
HETATM    7  C   UNL     1      38.835 -13.297   0.659  1.00  0.00     0.326 C 
HETATM    8  O   UNL     1      37.901 -13.155   1.436  1.00  0.00    -0.247 OA
HETATM    9  N   UNL     1      39.100 -12.458  -0.392  1.00  0.00    -0.320 N 
HETATM   10  C   UNL     1      40.072 -13.024  -1.307  1.00  0.00     0.144 C 
HETATM   11  H   UNL     1      38.522 -11.653  -0.595  1.00  0.00     0.165 HD
HETATM   12  C   UNL     1      41.162 -12.023  -1.640  1.00  0.00    -0.014 A 
HETATM   13  C   UNL     1      39.353 -13.568  -2.557  1.00  0.00     0.047 C 
HETATM   14  C   UNL     1      40.532 -14.237  -0.463  1.00  0.00     0.261 C 
HETATM   15  C   UNL     1      41.184 -11.372  -2.894  1.00  0.00    -0.049 A 
HETATM   16  C   UNL     1      42.156 -11.699  -0.698  1.00  0.00     0.011 A 
HETATM   17  C   UNL     1      42.209 -10.458  -3.187  1.00  0.00     0.007 A 
HETATM   18  C   UNL     1      40.181 -11.683  -3.981  1.00  0.00     0.039 C 
HETATM   19  C   UNL     1      43.195 -10.168  -2.247  1.00  0.00     0.001 A 
HETATM   20  C   UNL     1      43.167 -10.786  -1.003  1.00  0.00     0.001 A 
HETATM   21  C   UNL     1      38.947 -12.426  -3.482  1.00  0.00     0.008 C 
HETATM   22  O   UNL     1      41.372 -15.063  -0.796  1.00  0.00    -0.270 OA
ENDBRANCH   5   6
ENDBRANCH   2   5
BRANCH   1  23
HETATM   23  C   UNL     1      42.485 -16.711   3.963  1.00  0.00     0.155 C 
BRANCH  23  24
HETATM   24  C   UNL     1      41.994 -16.556   5.413  1.00  0.00     0.043 C 
BRANCH  24  25
HETATM   25  C   UNL     1      42.483 -15.251   6.046  1.00  0.00     0.076 C 
BRANCH  25  26
HETATM   26  S   UNL     1      43.900 -15.580   7.143  1.00  0.00    -0.173 SA
HETATM   27  C   UNL     1      43.305 -17.121   7.884  1.00  0.00     0.089 C 
ENDBRANCH  25  26
ENDBRANCH  24  25
ENDBRANCH  23  24
BRANCH  23  28
HETATM   28  C   UNL     1      43.083 -18.074   3.732  1.00  0.00     0.128 A 
HETATM   29  N   UNL     1      43.760 -18.791   4.608  1.00  0.00    -0.231 NA
HETATM   30  C   UNL     1      44.063 -19.971   3.974  1.00  0.00     0.085 A 
HETATM   31  C   UNL     1      43.557 -19.982   2.680  1.00  0.00     0.062 A 
HETATM   32  C   UNL     1      44.768 -21.089   4.444  1.00  0.00     0.034 A 
HETATM   33  N   UNL     1      42.925 -18.774   2.554  1.00  0.00    -0.341 N 
HETATM   34  C   UNL     1      43.720 -21.055   1.802  1.00  0.00     0.032 A 
HETATM   35  H   UNL     1      42.424 -18.449   1.737  1.00  0.00     0.167 HD
HETATM   36  C   UNL     1      44.429 -22.161   2.286  1.00  0.00     0.002 A 
HETATM   37  C   UNL     1      44.943 -22.181   3.586  1.00  0.00     0.002 A 
ENDBRANCH  23  28
ENDBRANCH   1  23
TORSDOF 7
ENDMDL
MODEL 10
REMARK VINA RESULT:      -7.9      2.365      4.373
REMARK  7 active torsions:
REMARK  status: ('A' for Active; 'I' for Inactive)
REMARK    1  A    between atoms: S_2  and  C_3 
REMARK    2  A    between atoms: C_3  and  C_4 
REMARK    3  A    between atoms: C_4  and  C_5 
REMARK    4  A    between atoms: C_5  and  N_6 
REMARK    5  A    between atoms: C_5  and  C_26 
REMARK       I    between atoms: N_6  and  C_7 
REMARK    6  A    between atoms: C_7  and  C_8 
REMARK    7  A    between atoms: C_8  and  N_9 
ROOT
HETATM    1  N   UNL     1      40.037 -14.363   0.108  1.00  0.00    -0.348 N 
HETATM    2  C   UNL     1      41.349 -14.774   0.217  1.00  0.00     0.236 C 
HETATM    3  O   UNL     1      42.275 -14.031   0.516  1.00  0.00    -0.272 OA
HETATM    4  H   UNL     1      39.453 -14.954  -0.479  1.00  0.00     0.163 HD
ENDROOT
BRANCH   2   5
HETATM    5  C   UNL     1      41.536 -16.248  -0.147  1.00  0.00     0.239 C 
BRANCH   5   6
HETATM    6  N   UNL     1      41.846 -17.020   1.039  1.00  0.00    -0.259 N 
HETATM    7  C   UNL     1      40.968 -17.272   2.047  1.00  0.00     0.326 C 
HETATM    8  O   UNL     1      39.798 -16.919   2.106  1.00  0.00    -0.247 OA
HETATM    9  N   UNL     1      41.608 -17.993   3.020  1.00  0.00    -0.320 N 
HETATM   10  C   UNL     1      43.045 -18.013   2.826  1.00  0.00     0.144 C 
HETATM   11  H   UNL     1      41.141 -18.280   3.870  1.00  0.00     0.165 HD
HETATM   12  C   UNL     1      43.596 -19.422   2.939  1.00  0.00    -0.014 A 
HETATM   13  C   UNL     1      43.715 -17.025   3.801  1.00  0.00     0.047 C 
HETATM   14  C   UNL     1      43.113 -17.395   1.408  1.00  0.00     0.261 C 
HETATM   15  C   UNL     1      44.304 -19.828   4.091  1.00  0.00    -0.049 A 
HETATM   16  C   UNL     1      43.388 -20.362   1.911  1.00  0.00     0.011 A 
HETATM   17  C   UNL     1      44.817 -21.133   4.170  1.00  0.00     0.007 A 
HETATM   18  C   UNL     1      44.607 -18.878   5.227  1.00  0.00     0.039 C 
HETATM   19  C   UNL     1      44.618 -22.041   3.133  1.00  0.00     0.001 A 
HETATM   20  C   UNL     1      43.902 -21.657   2.006  1.00  0.00     0.001 A 
HETATM   21  C   UNL     1      43.763 -17.610   5.208  1.00  0.00     0.008 C 
HETATM   22  O   UNL     1      44.133 -17.188   0.766  1.00  0.00    -0.270 OA
ENDBRANCH   5   6
ENDBRANCH   2   5
BRANCH   1  23
HETATM   23  C   UNL     1      39.619 -12.979   0.276  1.00  0.00     0.155 C 
BRANCH  23  24
HETATM   24  C   UNL     1      39.929 -12.458   1.690  1.00  0.00     0.043 C 
BRANCH  24  25
HETATM   25  C   UNL     1      38.655 -12.222   2.505  1.00  0.00     0.076 C 
BRANCH  25  26
HETATM   26  S   UNL     1      37.594 -10.999   1.668  1.00  0.00    -0.173 SA
HETATM   27  C   UNL     1      37.383  -9.847   3.048  1.00  0.00     0.089 C 
ENDBRANCH  25  26
ENDBRANCH  24  25
ENDBRANCH  23  24
BRANCH  23  28
HETATM   28  C   UNL     1      40.323 -12.160  -0.775  1.00  0.00     0.128 A 
HETATM   29  N   UNL     1      40.185 -12.276  -2.081  1.00  0.00    -0.231 NA
HETATM   30  C   UNL     1      40.978 -11.300  -2.631  1.00  0.00     0.085 A 
HETATM   31  C   UNL     1      41.616 -10.564  -1.640  1.00  0.00     0.062 A 
HETATM   32  C   UNL     1      41.203 -10.976  -3.977  1.00  0.00     0.034 A 
HETATM   33  N   UNL     1      41.173 -11.119  -0.470  1.00  0.00    -0.341 N 
HETATM   34  C   UNL     1      42.491  -9.510  -1.910  1.00  0.00     0.032 A 
HETATM   35  H   UNL     1      41.423 -10.815   0.463  1.00  0.00     0.167 HD
HETATM   36  C   UNL     1      42.706  -9.203  -3.259  1.00  0.00     0.002 A 
HETATM   37  C   UNL     1      42.072  -9.920  -4.278  1.00  0.00     0.002 A 
ENDBRANCH  23  28
ENDBRANCH   1  23
TORSDOF 7
ENDMDL
