MODEL 1
REMARK VINA RESULT:     -10.4      0.000      0.000
REMARK  7 active torsions:
REMARK  status: ('A' for Active; 'I' for Inactive)
REMARK    1  A    between atoms: C_2  and  C_3 
REMARK    2  A    between atoms: N_16  and  C_17 
REMARK    3  A    between atoms: C_17  and  C_18 
REMARK       I    between atoms: C_18  and  N_19 
REMARK    4  A    between atoms: N_19  and  C_20 
REMARK    5  A    between atoms: C_21  and  C_22 
REMARK       I    between atoms: C_22  and  N_23 
REMARK    6  A    between atoms: N_23  and  C_24 
REMARK    7  A    between atoms: C_24  and  C_25 
ROOT
HETATM    1  C   UNL     1      41.808 -12.754   4.632  1.00  0.00     0.240 C 
ENDROOT
BRANCH   1   2
HETATM    2  N   UNL     1      41.481 -14.140   4.353  1.00  0.00    -0.259 N 
HETATM    3  C   UNL     1      40.364 -14.539   3.692  1.00  0.00     0.326 A 
HETATM    4  N   UNL     1      40.339 -15.910   3.653  1.00  0.00    -0.321 N 
HETATM    5  O   UNL     1      39.530 -13.826   3.165  1.00  0.00    -0.247 OA
HETATM    6  C   UNL     1      41.407 -16.512   4.418  1.00  0.00     0.140 A 
HETATM    7  H   UNL     1      39.563 -16.417   3.248  1.00  0.00     0.165 HD
HETATM    8  C   UNL     1      40.750 -17.140   5.663  1.00  0.00     0.055 C 
HETATM    9  C   UNL     1      42.155 -15.223   4.848  1.00  0.00     0.261 A 
HETATM   10  O   UNL     1      43.152 -15.176   5.556  1.00  0.00    -0.270 OA
BRANCH   6  11
HETATM   11  C   UNL     1      42.339 -17.463   3.644  1.00  0.00    -0.010 A 
HETATM   12  C   UNL     1      43.150 -18.519   4.206  1.00  0.00    -0.017 A 
HETATM   13  C   UNL     1      43.964 -19.288   3.321  1.00  0.00    -0.025 A 
HETATM   14  C   UNL     1      43.225 -18.904   5.574  1.00  0.00     0.013 A 
HETATM   15  C   UNL     1      44.792 -20.319   3.797  1.00  0.00     0.012 A 
HETATM   16  C   UNL     1      43.957 -19.048   1.944  1.00  0.00     0.012 A 
HETATM   17  C   UNL     1      44.840 -20.643   5.146  1.00  0.00     0.001 A 
HETATM   18  C   UNL     1      44.052 -19.937   6.036  1.00  0.00     0.001 A 
HETATM   19  C   UNL     1      43.144 -18.071   1.399  1.00  0.00     0.002 A 
HETATM   20  C   UNL     1      42.345 -17.302   2.235  1.00  0.00     0.011 A 
ENDBRANCH   6  11
ENDBRANCH   1   2
BRANCH   1  21
HETATM   21  C   UNL     1      41.090 -12.184   5.859  1.00  0.00     0.240 C 
HETATM   22  N   UNL     1      41.459 -10.895   6.219  1.00  0.00    -0.325 N 
HETATM   23  H   UNL     1      41.804 -10.358   5.433  1.00  0.00     0.169 HD
HETATM   24  O   UNL     1      40.296 -12.877   6.498  1.00  0.00    -0.271 OA
BRANCH  22  25
HETATM   25  C   UNL     1      40.673 -10.150   7.133  1.00  0.00     0.050 A 
HETATM   26  C   UNL     1      40.879 -10.078   8.522  1.00  0.00     0.058 A 
HETATM   27  C   UNL     1      40.024  -9.274   9.301  1.00  0.00     0.019 A 
HETATM   28  C   UNL     1      38.979  -8.557   8.719  1.00  0.00     0.001 A 
HETATM   29  C   UNL     1      38.795  -8.605   7.344  1.00  0.00     0.002 A 
HETATM   30  C   UNL     1      39.644  -9.384   6.555  1.00  0.00     0.030 A 
BRANCH  26  31
HETATM   31  C   UNL     1      42.048 -10.625   9.261  1.00  0.00     0.254 C 
HETATM   32  N   UNL     1      41.807 -11.288  10.437  1.00  0.00    -0.351 N 
HETATM   33  H   UNL     1      40.856 -11.289  10.799  1.00  0.00     0.163 HD
HETATM   34  O   UNL     1      43.179 -10.386   8.847  1.00  0.00    -0.268 OA
BRANCH  32  35
HETATM   35  C   UNL     1      42.901 -11.606  11.327  1.00  0.00     0.187 C 
BRANCH  35  36
HETATM   36  C   UNL     1      42.917 -10.702  12.503  1.00  0.00     0.070 A 
HETATM   37  O   UNL     1      42.108 -11.062  13.544  1.00  0.00    -0.325 OA
HETATM   38  C   UNL     1      42.287 -10.146  14.528  1.00  0.00     0.142 A 
HETATM   39  C   UNL     1      43.201  -9.197  14.142  1.00  0.00     0.027 A 
HETATM   40  C   UNL     1      43.615  -9.558  12.837  1.00  0.00     0.036 A 
ENDBRANCH  35  36
ENDBRANCH  32  35
ENDBRANCH  26  31
ENDBRANCH  22  25
ENDBRANCH   1  21
TORSDOF 7
ENDMDL
MODEL 2
REMARK VINA RESULT:     -10.4      4.933      9.045
REMARK  7 active torsions:
REMARK  status: ('A' for Active; 'I' for Inactive)
REMARK    1  A    between atoms: C_2  and  C_3 
REMARK    2  A    between atoms: N_16  and  C_17 
REMARK    3  A    between atoms: C_17  and  C_18 
REMARK       I    between atoms: C_18  and  N_19 
REMARK    4  A    between atoms: N_19  and  C_20 
REMARK    5  A    between atoms: C_21  and  C_22 
REMARK       I    between atoms: C_22  and  N_23 
REMARK    6  A    between atoms: N_23  and  C_24 
REMARK    7  A    between atoms: C_24  and  C_25 
ROOT
HETATM    1  C   UNL     1      41.260 -13.146   3.717  1.00  0.00     0.240 C 
ENDROOT
BRANCH   1   2
HETATM    2  N   UNL     1      41.203 -14.546   4.095  1.00  0.00    -0.259 N 
HETATM    3  C   UNL     1      40.384 -15.458   3.511  1.00  0.00     0.326 A 
HETATM    4  N   UNL     1      40.543 -16.665   4.144  1.00  0.00    -0.321 N 
HETATM    5  O   UNL     1      39.658 -15.282   2.550  1.00  0.00    -0.247 OA
HETATM    6  C   UNL     1      41.408 -16.583   5.298  1.00  0.00     0.140 A 
HETATM    7  H   UNL     1      39.987 -17.473   3.896  1.00  0.00     0.165 HD
HETATM    8  C   UNL     1      40.502 -16.738   6.535  1.00  0.00     0.055 C 
HETATM    9  C   UNL     1      41.834 -15.096   5.178  1.00  0.00     0.261 A 
HETATM   10  O   UNL     1      42.568 -14.496   5.951  1.00  0.00    -0.270 OA
BRANCH   6  11
HETATM   11  C   UNL     1      42.635 -17.513   5.289  1.00  0.00    -0.010 A 
HETATM   12  C   UNL     1      43.065 -18.359   4.199  1.00  0.00    -0.017 A 
HETATM   13  C   UNL     1      44.228 -19.166   4.389  1.00  0.00    -0.025 A 
HETATM   14  C   UNL     1      42.459 -18.478   2.917  1.00  0.00     0.013 A 
HETATM   15  C   UNL     1      44.696 -20.026   3.381  1.00  0.00     0.012 A 
HETATM   16  C   UNL     1      44.950 -19.119   5.585  1.00  0.00     0.012 A 
HETATM   17  C   UNL     1      44.055 -20.116   2.153  1.00  0.00     0.001 A 
HETATM   18  C   UNL     1      42.936 -19.337   1.919  1.00  0.00     0.001 A 
HETATM   19  C   UNL     1      44.568 -18.272   6.610  1.00  0.00     0.002 A 
HETATM   20  C   UNL     1      43.438 -17.480   6.458  1.00  0.00     0.011 A 
ENDBRANCH   6  11
ENDBRANCH   1   2
BRANCH   1  21
HETATM   21  C   UNL     1      42.030 -12.888   2.418  1.00  0.00     0.240 C 
HETATM   22  N   UNL     1      41.278 -12.362   1.375  1.00  0.00    -0.325 N 
HETATM   23  H   UNL     1      40.477 -11.837   1.703  1.00  0.00     0.169 HD
HETATM   24  O   UNL     1      43.218 -13.202   2.321  1.00  0.00    -0.271 OA
BRANCH  22  25
HETATM   25  C   UNL     1      41.915 -11.805   0.239  1.00  0.00     0.050 A 
HETATM   26  C   UNL     1      42.255 -12.502  -0.934  1.00  0.00     0.058 A 
HETATM   27  C   UNL     1      42.869 -11.804  -1.992  1.00  0.00     0.019 A 
HETATM   28  C   UNL     1      43.145 -10.441  -1.894  1.00  0.00     0.001 A 
HETATM   29  C   UNL     1      42.780  -9.747  -0.748  1.00  0.00     0.002 A 
HETATM   30  C   UNL     1      42.158 -10.421   0.305  1.00  0.00     0.030 A 
BRANCH  26  31
HETATM   31  C   UNL     1      41.863 -13.898  -1.265  1.00  0.00     0.254 C 
HETATM   32  N   UNL     1      41.752 -14.233  -2.590  1.00  0.00    -0.351 N 
HETATM   33  H   UNL     1      41.846 -13.491  -3.281  1.00  0.00     0.163 HD
HETATM   34  O   UNL     1      41.564 -14.664  -0.353  1.00  0.00    -0.268 OA
BRANCH  32  35
HETATM   35  C   UNL     1      41.124 -15.477  -2.973  1.00  0.00     0.187 C 
BRANCH  35  36
HETATM   36  C   UNL     1      39.696 -15.274  -3.322  1.00  0.00     0.070 A 
HETATM   37  O   UNL     1      39.090 -14.193  -2.747  1.00  0.00    -0.325 OA
HETATM   38  C   UNL     1      37.816 -14.153  -3.211  1.00  0.00     0.142 A 
HETATM   39  C   UNL     1      37.587 -15.191  -4.080  1.00  0.00     0.027 A 
HETATM   40  C   UNL     1      38.803 -15.913  -4.159  1.00  0.00     0.036 A 
ENDBRANCH  35  36
ENDBRANCH  32  35
ENDBRANCH  26  31
ENDBRANCH  22  25
ENDBRANCH   1  21
TORSDOF 7
ENDMDL
MODEL 3
REMARK VINA RESULT:     -10.1      6.189     10.284
REMARK  7 active torsions:
REMARK  status: ('A' for Active; 'I' for Inactive)
REMARK    1  A    between atoms: C_2  and  C_3 
REMARK    2  A    between atoms: N_16  and  C_17 
REMARK    3  A    between atoms: C_17  and  C_18 
REMARK       I    between atoms: C_18  and  N_19 
REMARK    4  A    between atoms: N_19  and  C_20 
REMARK    5  A    between atoms: C_21  and  C_22 
REMARK       I    between atoms: C_22  and  N_23 
REMARK    6  A    between atoms: N_23  and  C_24 
REMARK    7  A    between atoms: C_24  and  C_25 
ROOT
HETATM    1  C   UNL     1      41.466 -16.252   0.039  1.00  0.00     0.240 C 
ENDROOT
BRANCH   1   2
HETATM    2  N   UNL     1      41.669 -16.478   1.458  1.00  0.00    -0.259 N 
HETATM    3  C   UNL     1      40.661 -16.620   2.357  1.00  0.00     0.326 A 
HETATM    4  N   UNL     1      41.203 -16.762   3.609  1.00  0.00    -0.321 N 
HETATM    5  O   UNL     1      39.468 -16.672   2.119  1.00  0.00    -0.247 OA
HETATM    6  C   UNL     1      42.637 -16.589   3.623  1.00  0.00     0.140 A 
HETATM    7  H   UNL     1      40.623 -16.832   4.435  1.00  0.00     0.165 HD
HETATM    8  C   UNL     1      42.908 -15.240   4.319  1.00  0.00     0.055 C 
HETATM    9  C   UNL     1      42.876 -16.418   2.100  1.00  0.00     0.261 A 
HETATM   10  O   UNL     1      43.956 -16.211   1.563  1.00  0.00    -0.270 OA
BRANCH   6  11
HETATM   11  C   UNL     1      43.454 -17.768   4.184  1.00  0.00    -0.010 A 
HETATM   12  C   UNL     1      43.667 -19.048   3.547  1.00  0.00    -0.017 A 
HETATM   13  C   UNL     1      44.447 -20.024   4.238  1.00  0.00    -0.025 A 
HETATM   14  C   UNL     1      43.190 -19.458   2.271  1.00  0.00     0.013 A 
HETATM   15  C   UNL     1      44.682 -21.296   3.689  1.00  0.00     0.012 A 
HETATM   16  C   UNL     1      45.015 -19.742   5.483  1.00  0.00     0.012 A 
HETATM   17  C   UNL     1      44.177 -21.650   2.445  1.00  0.00     0.001 A 
HETATM   18  C   UNL     1      43.433 -20.728   1.732  1.00  0.00     0.001 A 
HETATM   19  C   UNL     1      44.853 -18.501   6.071  1.00  0.00     0.002 A 
HETATM   20  C   UNL     1      44.095 -17.532   5.427  1.00  0.00     0.011 A 
ENDBRANCH   6  11
ENDBRANCH   1   2
BRANCH   1  21
HETATM   21  C   UNL     1      41.323 -14.774  -0.337  1.00  0.00     0.240 C 
HETATM   22  N   UNL     1      42.294 -14.284  -1.201  1.00  0.00    -0.325 N 
HETATM   23  H   UNL     1      42.691 -15.008  -1.787  1.00  0.00     0.169 HD
HETATM   24  O   UNL     1      40.436 -14.082   0.166  1.00  0.00    -0.271 OA
BRANCH  22  25
HETATM   25  C   UNL     1      42.113 -13.040  -1.856  1.00  0.00     0.050 A 
HETATM   26  C   UNL     1      41.235 -12.799  -2.927  1.00  0.00     0.058 A 
HETATM   27  C   UNL     1      41.148 -11.499  -3.463  1.00  0.00     0.019 A 
HETATM   28  C   UNL     1      41.917 -10.455  -2.952  1.00  0.00     0.001 A 
HETATM   29  C   UNL     1      42.761 -10.688  -1.874  1.00  0.00     0.002 A 
HETATM   30  C   UNL     1      42.848 -11.967  -1.322  1.00  0.00     0.030 A 
BRANCH  26  31
HETATM   31  C   UNL     1      40.220 -13.749  -3.456  1.00  0.00     0.254 C 
HETATM   32  N   UNL     1      38.897 -13.430  -3.291  1.00  0.00    -0.351 N 
HETATM   33  H   UNL     1      38.669 -12.611  -2.729  1.00  0.00     0.163 HD
HETATM   34  O   UNL     1      40.596 -14.817  -3.932  1.00  0.00    -0.268 OA
BRANCH  32  35
HETATM   35  C   UNL     1      37.875 -14.421  -3.538  1.00  0.00     0.187 C 
BRANCH  35  36
HETATM   36  C   UNL     1      36.717 -13.833  -4.255  1.00  0.00     0.070 A 
HETATM   37  O   UNL     1      35.998 -14.695  -5.035  1.00  0.00    -0.325 OA
HETATM   38  C   UNL     1      34.971 -13.990  -5.571  1.00  0.00     0.142 A 
HETATM   39  C   UNL     1      35.012 -12.683  -5.151  1.00  0.00     0.027 A 
HETATM   40  C   UNL     1      36.135 -12.581  -4.294  1.00  0.00     0.036 A 
ENDBRANCH  35  36
ENDBRANCH  32  35
ENDBRANCH  26  31
ENDBRANCH  22  25
ENDBRANCH   1  21
TORSDOF 7
ENDMDL
MODEL 4
REMARK VINA RESULT:      -9.9      5.476      8.710
REMARK  7 active torsions:
REMARK  status: ('A' for Active; 'I' for Inactive)
REMARK    1  A    between atoms: C_2  and  C_3 
REMARK    2  A    between atoms: N_16  and  C_17 
REMARK    3  A    between atoms: C_17  and  C_18 
REMARK       I    between atoms: C_18  and  N_19 
REMARK    4  A    between atoms: N_19  and  C_20 
REMARK    5  A    between atoms: C_21  and  C_22 
REMARK       I    between atoms: C_22  and  N_23 
REMARK    6  A    between atoms: N_23  and  C_24 
REMARK    7  A    between atoms: C_24  and  C_25 
ROOT
HETATM    1  C   UNL     1      41.676 -15.115   0.602  1.00  0.00     0.240 C 
ENDROOT
BRANCH   1   2
HETATM    2  N   UNL     1      41.662 -15.716   1.922  1.00  0.00    -0.259 N 
HETATM    3  C   UNL     1      40.587 -16.354   2.455  1.00  0.00     0.326 A 
HETATM    4  N   UNL     1      40.896 -16.749   3.732  1.00  0.00    -0.321 N 
HETATM    5  O   UNL     1      39.531 -16.597   1.902  1.00  0.00    -0.247 OA
HETATM    6  C   UNL     1      42.187 -16.270   4.171  1.00  0.00     0.140 A 
HETATM    7  H   UNL     1      40.215 -17.200   4.329  1.00  0.00     0.165 HD
HETATM    8  C   UNL     1      41.912 -15.178   5.223  1.00  0.00     0.055 C 
HETATM    9  C   UNL     1      42.652 -15.587   2.858  1.00  0.00     0.261 A 
HETATM   10  O   UNL     1      43.705 -14.986   2.697  1.00  0.00    -0.270 OA
BRANCH   6  11
HETATM   11  C   UNL     1      43.189 -17.348   4.621  1.00  0.00    -0.010 A 
HETATM   12  C   UNL     1      43.557 -18.540   3.892  1.00  0.00    -0.017 A 
HETATM   13  C   UNL     1      44.500 -19.432   4.487  1.00  0.00    -0.025 A 
HETATM   14  C   UNL     1      43.087 -18.937   2.609  1.00  0.00     0.013 A 
HETATM   15  C   UNL     1      44.892 -20.619   3.845  1.00  0.00     0.012 A 
HETATM   16  C   UNL     1      45.077 -19.147   5.727  1.00  0.00     0.012 A 
HETATM   17  C   UNL     1      44.388 -20.966   2.599  1.00  0.00     0.001 A 
HETATM   18  C   UNL     1      43.487 -20.121   1.977  1.00  0.00     0.001 A 
HETATM   19  C   UNL     1      44.764 -17.982   6.404  1.00  0.00     0.002 A 
HETATM   20  C   UNL     1      43.846 -17.097   5.854  1.00  0.00     0.011 A 
ENDBRANCH   6  11
ENDBRANCH   1   2
BRANCH   1  21
HETATM   21  C   UNL     1      41.068 -13.710   0.556  1.00  0.00     0.240 C 
HETATM   22  N   UNL     1      41.834 -12.710   1.141  1.00  0.00    -0.325 N 
HETATM   23  H   UNL     1      42.823 -12.927   1.134  1.00  0.00     0.169 HD
HETATM   24  O   UNL     1      39.943 -13.529   0.085  1.00  0.00    -0.271 OA
BRANCH  22  25
HETATM   25  C   UNL     1      41.536 -11.345   0.906  1.00  0.00     0.050 A 
HETATM   26  C   UNL     1      41.719 -10.665  -0.311  1.00  0.00     0.058 A 
HETATM   27  C   UNL     1      41.355  -9.307  -0.398  1.00  0.00     0.019 A 
HETATM   28  C   UNL     1      40.823  -8.630   0.699  1.00  0.00     0.001 A 
HETATM   29  C   UNL     1      40.614  -9.311   1.891  1.00  0.00     0.002 A 
HETATM   30  C   UNL     1      40.955 -10.661   1.990  1.00  0.00     0.030 A 
BRANCH  26  31
HETATM   31  C   UNL     1      42.094 -11.283  -1.610  1.00  0.00     0.254 C 
HETATM   32  N   UNL     1      41.139 -11.341  -2.591  1.00  0.00    -0.351 N 
HETATM   33  H   UNL     1      40.192 -11.049  -2.354  1.00  0.00     0.163 HD
HETATM   34  O   UNL     1      43.203 -11.799  -1.725  1.00  0.00    -0.268 OA
BRANCH  32  35
HETATM   35  C   UNL     1      41.351 -12.157  -3.764  1.00  0.00     0.187 C 
BRANCH  35  36
HETATM   36  C   UNL     1      40.810 -13.526  -3.573  1.00  0.00     0.070 A 
HETATM   37  O   UNL     1      41.736 -14.507  -3.352  1.00  0.00    -0.325 OA
HETATM   38  C   UNL     1      41.055 -15.666  -3.165  1.00  0.00     0.142 A 
HETATM   39  C   UNL     1      39.702 -15.451  -3.260  1.00  0.00     0.027 A 
HETATM   40  C   UNL     1      39.541 -14.067  -3.516  1.00  0.00     0.036 A 
ENDBRANCH  35  36
ENDBRANCH  32  35
ENDBRANCH  26  31
ENDBRANCH  22  25
ENDBRANCH   1  21
TORSDOF 7
ENDMDL
MODEL 5
REMARK VINA RESULT:      -9.8      6.180      9.128
REMARK  7 active torsions:
REMARK  status: ('A' for Active; 'I' for Inactive)
REMARK    1  A    between atoms: C_2  and  C_3 
REMARK    2  A    between atoms: N_16  and  C_17 
REMARK    3  A    between atoms: C_17  and  C_18 
REMARK       I    between atoms: C_18  and  N_19 
REMARK    4  A    between atoms: N_19  and  C_20 
REMARK    5  A    between atoms: C_21  and  C_22 
REMARK       I    between atoms: C_22  and  N_23 
REMARK    6  A    between atoms: N_23  and  C_24 
REMARK    7  A    between atoms: C_24  and  C_25 
ROOT
HETATM    1  C   UNL     1      41.775 -16.166   0.189  1.00  0.00     0.240 C 
ENDROOT
BRANCH   1   2
HETATM    2  N   UNL     1      41.875 -16.537   1.588  1.00  0.00    -0.259 N 
HETATM    3  C   UNL     1      40.805 -16.794   2.385  1.00  0.00     0.326 A 
HETATM    4  N   UNL     1      41.253 -17.057   3.655  1.00  0.00    -0.321 N 
HETATM    5  O   UNL     1      39.636 -16.843   2.049  1.00  0.00    -0.247 OA
HETATM    6  C   UNL     1      42.677 -16.859   3.800  1.00  0.00     0.140 A 
HETATM    7  H   UNL     1      40.613 -17.225   4.420  1.00  0.00     0.165 HD
HETATM    8  C   UNL     1      42.856 -15.587   4.652  1.00  0.00     0.055 C 
HETATM    9  C   UNL     1      43.027 -16.523   2.326  1.00  0.00     0.261 A 
HETATM   10  O   UNL     1      44.138 -16.239   1.901  1.00  0.00    -0.270 OA
BRANCH   6  11
HETATM   11  C   UNL     1      43.480 -18.075   4.298  1.00  0.00    -0.010 A 
HETATM   12  C   UNL     1      43.697 -19.313   3.584  1.00  0.00    -0.017 A 
HETATM   13  C   UNL     1      44.463 -20.335   4.224  1.00  0.00    -0.025 A 
HETATM   14  C   UNL     1      43.238 -19.640   2.278  1.00  0.00     0.013 A 
HETATM   15  C   UNL     1      44.701 -21.571   3.600  1.00  0.00     0.012 A 
HETATM   16  C   UNL     1      45.013 -20.135   5.493  1.00  0.00     0.012 A 
HETATM   17  C   UNL     1      44.214 -21.844   2.329  1.00  0.00     0.001 A 
HETATM   18  C   UNL     1      43.484 -20.875   1.664  1.00  0.00     0.001 A 
HETATM   19  C   UNL     1      44.848 -18.932   6.156  1.00  0.00     0.002 A 
HETATM   20  C   UNL     1      44.103 -17.921   5.563  1.00  0.00     0.011 A 
ENDBRANCH   6  11
ENDBRANCH   1   2
BRANCH   1  21
HETATM   21  C   UNL     1      41.090 -14.815  -0.045  1.00  0.00     0.240 C 
HETATM   22  N   UNL     1      39.806 -14.883  -0.570  1.00  0.00    -0.325 N 
HETATM   23  H   UNL     1      39.339 -15.751  -0.339  1.00  0.00     0.169 HD
HETATM   24  O   UNL     1      41.694 -13.762   0.166  1.00  0.00    -0.271 OA
BRANCH  22  25
HETATM   25  C   UNL     1      38.961 -13.745  -0.553  1.00  0.00     0.050 A 
HETATM   26  C   UNL     1      39.042 -12.652  -1.434  1.00  0.00     0.058 A 
HETATM   27  C   UNL     1      38.114 -11.600  -1.306  1.00  0.00     0.019 A 
HETATM   28  C   UNL     1      37.126 -11.623  -0.323  1.00  0.00     0.001 A 
HETATM   29  C   UNL     1      37.029 -12.717   0.527  1.00  0.00     0.002 A 
HETATM   30  C   UNL     1      37.931 -13.776   0.404  1.00  0.00     0.030 A 
BRANCH  26  31
HETATM   31  C   UNL     1      39.906 -12.565  -2.641  1.00  0.00     0.254 C 
HETATM   32  N   UNL     1      41.229 -12.255  -2.459  1.00  0.00    -0.351 N 
HETATM   33  H   UNL     1      41.537 -12.003  -1.521  1.00  0.00     0.163 HD
HETATM   34  O   UNL     1      39.392 -12.678  -3.750  1.00  0.00    -0.268 OA
BRANCH  32  35
HETATM   35  C   UNL     1      42.053 -11.896  -3.590  1.00  0.00     0.187 C 
BRANCH  35  36
HETATM   36  C   UNL     1      42.181 -10.423  -3.717  1.00  0.00     0.070 A 
HETATM   37  O   UNL     1      42.596  -9.762  -2.594  1.00  0.00    -0.325 OA
HETATM   38  C   UNL     1      42.688  -8.447  -2.914  1.00  0.00     0.142 A 
HETATM   39  C   UNL     1      42.340  -8.244  -4.227  1.00  0.00     0.027 A 
HETATM   40  C   UNL     1      42.019  -9.521  -4.750  1.00  0.00     0.036 A 
ENDBRANCH  35  36
ENDBRANCH  32  35
ENDBRANCH  26  31
ENDBRANCH  22  25
ENDBRANCH   1  21
TORSDOF 7
ENDMDL
MODEL 6
REMARK VINA RESULT:      -9.8      5.384      7.879
REMARK  7 active torsions:
REMARK  status: ('A' for Active; 'I' for Inactive)
REMARK    1  A    between atoms: C_2  and  C_3 
REMARK    2  A    between atoms: N_16  and  C_17 
REMARK    3  A    between atoms: C_17  and  C_18 
REMARK       I    between atoms: C_18  and  N_19 
REMARK    4  A    between atoms: N_19  and  C_20 
REMARK    5  A    between atoms: C_21  and  C_22 
REMARK       I    between atoms: C_22  and  N_23 
REMARK    6  A    between atoms: N_23  and  C_24 
REMARK    7  A    between atoms: C_24  and  C_25 
ROOT
HETATM    1  C   UNL     1      41.574 -16.363   0.013  1.00  0.00     0.240 C 
ENDROOT
BRANCH   1   2
HETATM    2  N   UNL     1      41.759 -16.603   1.432  1.00  0.00    -0.259 N 
HETATM    3  C   UNL     1      40.739 -16.732   2.320  1.00  0.00     0.326 A 
HETATM    4  N   UNL     1      41.265 -16.892   3.577  1.00  0.00    -0.321 N 
HETATM    5  O   UNL     1      39.548 -16.759   2.070  1.00  0.00    -0.247 OA
HETATM    6  C   UNL     1      42.703 -16.747   3.606  1.00  0.00     0.140 A 
HETATM    7  H   UNL     1      40.676 -16.957   4.396  1.00  0.00     0.165 HD
HETATM    8  C   UNL     1      42.992 -15.408   4.314  1.00  0.00     0.055 C 
HETATM    9  C   UNL     1      42.960 -16.570   2.086  1.00  0.00     0.261 A 
HETATM   10  O   UNL     1      44.049 -16.380   1.562  1.00  0.00    -0.270 OA
BRANCH   6  11
HETATM   11  C   UNL     1      43.491 -17.944   4.167  1.00  0.00    -0.010 A 
HETATM   12  C   UNL     1      43.690 -19.222   3.521  1.00  0.00    -0.017 A 
HETATM   13  C   UNL     1      44.444 -20.218   4.213  1.00  0.00    -0.025 A 
HETATM   14  C   UNL     1      43.223 -19.613   2.235  1.00  0.00     0.013 A 
HETATM   15  C   UNL     1      44.664 -21.489   3.655  1.00  0.00     0.012 A 
HETATM   16  C   UNL     1      45.000 -19.957   5.468  1.00  0.00     0.012 A 
HETATM   17  C   UNL     1      44.170 -21.824   2.402  1.00  0.00     0.001 A 
HETATM   18  C   UNL     1      43.452 -20.882   1.688  1.00  0.00     0.001 A 
HETATM   19  C   UNL     1      44.853 -18.719   6.066  1.00  0.00     0.002 A 
HETATM   20  C   UNL     1      44.120 -17.731   5.421  1.00  0.00     0.011 A 
ENDBRANCH   6  11
ENDBRANCH   1   2
BRANCH   1  21
HETATM   21  C   UNL     1      41.702 -14.890  -0.387  1.00  0.00     0.240 C 
HETATM   22  N   UNL     1      41.624 -14.635  -1.750  1.00  0.00    -0.325 N 
HETATM   23  H   UNL     1      41.090 -15.338  -2.245  1.00  0.00     0.169 HD
HETATM   24  O   UNL     1      41.928 -14.027   0.463  1.00  0.00    -0.271 OA
BRANCH  22  25
HETATM   25  C   UNL     1      41.429 -13.314  -2.225  1.00  0.00     0.050 A 
HETATM   26  C   UNL     1      40.269 -12.540  -2.038  1.00  0.00     0.058 A 
HETATM   27  C   UNL     1      40.231 -11.229  -2.552  1.00  0.00     0.019 A 
HETATM   28  C   UNL     1      41.316 -10.693  -3.243  1.00  0.00     0.001 A 
HETATM   29  C   UNL     1      42.471 -11.447  -3.400  1.00  0.00     0.002 A 
HETATM   30  C   UNL     1      42.532 -12.742  -2.884  1.00  0.00     0.030 A 
BRANCH  26  31
HETATM   31  C   UNL     1      39.113 -12.894  -1.173  1.00  0.00     0.254 C 
HETATM   32  N   UNL     1      38.751 -12.005  -0.193  1.00  0.00    -0.351 N 
HETATM   33  H   UNL     1      39.349 -11.195  -0.039  1.00  0.00     0.163 HD
HETATM   34  O   UNL     1      38.588 -13.997  -1.302  1.00  0.00    -0.268 OA
BRANCH  32  35
HETATM   35  C   UNL     1      37.821 -12.403   0.839  1.00  0.00     0.187 C 
BRANCH  35  36
HETATM   36  C   UNL     1      38.474 -12.424   2.172  1.00  0.00     0.070 A 
HETATM   37  O   UNL     1      39.240 -13.523   2.442  1.00  0.00    -0.325 OA
HETATM   38  C   UNL     1      39.777 -13.345   3.675  1.00  0.00     0.142 A 
HETATM   39  C   UNL     1      39.371 -12.146   4.209  1.00  0.00     0.027 A 
HETATM   40  C   UNL     1      38.535 -11.546   3.236  1.00  0.00     0.036 A 
ENDBRANCH  35  36
ENDBRANCH  32  35
ENDBRANCH  26  31
ENDBRANCH  22  25
ENDBRANCH   1  21
TORSDOF 7
ENDMDL
MODEL 7
REMARK VINA RESULT:      -9.8      5.420      8.985
REMARK  7 active torsions:
REMARK  status: ('A' for Active; 'I' for Inactive)
REMARK    1  A    between atoms: C_2  and  C_3 
REMARK    2  A    between atoms: N_16  and  C_17 
REMARK    3  A    between atoms: C_17  and  C_18 
REMARK       I    between atoms: C_18  and  N_19 
REMARK    4  A    between atoms: N_19  and  C_20 
REMARK    5  A    between atoms: C_21  and  C_22 
REMARK       I    between atoms: C_22  and  N_23 
REMARK    6  A    between atoms: N_23  and  C_24 
REMARK    7  A    between atoms: C_24  and  C_25 
ROOT
HETATM    1  C   UNL     1      41.723 -14.940   0.691  1.00  0.00     0.240 C 
ENDROOT
BRANCH   1   2
HETATM    2  N   UNL     1      41.691 -15.593   1.987  1.00  0.00    -0.259 N 
HETATM    3  C   UNL     1      40.609 -16.250   2.480  1.00  0.00     0.326 A 
HETATM    4  N   UNL     1      40.902 -16.695   3.744  1.00  0.00    -0.321 N 
HETATM    5  O   UNL     1      39.560 -16.471   1.904  1.00  0.00    -0.247 OA
HETATM    6  C   UNL     1      42.186 -16.234   4.219  1.00  0.00     0.140 A 
HETATM    7  H   UNL     1      40.213 -17.169   4.314  1.00  0.00     0.165 HD
HETATM    8  C   UNL     1      41.897 -15.184   5.309  1.00  0.00     0.055 C 
HETATM    9  C   UNL     1      42.669 -15.500   2.939  1.00  0.00     0.261 A 
HETATM   10  O   UNL     1      43.724 -14.894   2.816  1.00  0.00    -0.270 OA
BRANCH   6  11
HETATM   11  C   UNL     1      43.183 -17.329   4.640  1.00  0.00    -0.010 A 
HETATM   12  C   UNL     1      43.530 -18.513   3.886  1.00  0.00    -0.017 A 
HETATM   13  C   UNL     1      44.471 -19.423   4.456  1.00  0.00    -0.025 A 
HETATM   14  C   UNL     1      43.041 -18.884   2.603  1.00  0.00     0.013 A 
HETATM   15  C   UNL     1      44.843 -20.604   3.790  1.00  0.00     0.012 A 
HETATM   16  C   UNL     1      45.065 -19.164   5.694  1.00  0.00     0.012 A 
HETATM   17  C   UNL     1      44.322 -20.926   2.545  1.00  0.00     0.001 A 
HETATM   18  C   UNL     1      43.422 -20.062   1.947  1.00  0.00     0.001 A 
HETATM   19  C   UNL     1      44.772 -18.007   6.393  1.00  0.00     0.002 A 
HETATM   20  C   UNL     1      43.856 -17.105   5.868  1.00  0.00     0.011 A 
ENDBRANCH   6  11
ENDBRANCH   1   2
BRANCH   1  21
HETATM   21  C   UNL     1      41.069 -13.554   0.680  1.00  0.00     0.240 C 
HETATM   22  N   UNL     1      39.682 -13.552   0.608  1.00  0.00    -0.325 N 
HETATM   23  H   UNL     1      39.273 -14.395   0.990  1.00  0.00     0.169 HD
HETATM   24  O   UNL     1      41.762 -12.535   0.668  1.00  0.00    -0.271 OA
BRANCH  22  25
HETATM   25  C   UNL     1      38.950 -12.372   0.890  1.00  0.00     0.050 A 
HETATM   26  C   UNL     1      38.426 -11.485  -0.068  1.00  0.00     0.058 A 
HETATM   27  C   UNL     1      37.698 -10.360   0.366  1.00  0.00     0.019 A 
HETATM   28  C   UNL     1      37.493 -10.112   1.722  1.00  0.00     0.001 A 
HETATM   29  C   UNL     1      37.984 -11.004   2.666  1.00  0.00     0.002 A 
HETATM   30  C   UNL     1      38.695 -12.132   2.252  1.00  0.00     0.030 A 
BRANCH  26  31
HETATM   31  C   UNL     1      38.396 -11.705  -1.539  1.00  0.00     0.254 C 
HETATM   32  N   UNL     1      37.541 -12.660  -2.025  1.00  0.00    -0.351 N 
HETATM   33  H   UNL     1      37.042 -13.241  -1.354  1.00  0.00     0.163 HD
HETATM   34  O   UNL     1      39.195 -11.098  -2.247  1.00  0.00    -0.268 OA
BRANCH  32  35
HETATM   35  C   UNL     1      37.655 -13.105  -3.395  1.00  0.00     0.187 C 
BRANCH  35  36
HETATM   36  C   UNL     1      38.456 -14.350  -3.492  1.00  0.00     0.070 A 
HETATM   37  O   UNL     1      37.940 -15.331  -4.292  1.00  0.00    -0.325 OA
HETATM   38  C   UNL     1      38.822 -16.361  -4.284  1.00  0.00     0.142 A 
HETATM   39  C   UNL     1      39.904 -16.063  -3.492  1.00  0.00     0.027 A 
HETATM   40  C   UNL     1      39.673 -14.761  -2.985  1.00  0.00     0.036 A 
ENDBRANCH  35  36
ENDBRANCH  32  35
ENDBRANCH  26  31
ENDBRANCH  22  25
ENDBRANCH   1  21
TORSDOF 7
ENDMDL
MODEL 8
REMARK VINA RESULT:      -9.8      5.507      8.072
REMARK  7 active torsions:
REMARK  status: ('A' for Active; 'I' for Inactive)
REMARK    1  A    between atoms: C_2  and  C_3 
REMARK    2  A    between atoms: N_16  and  C_17 
REMARK    3  A    between atoms: C_17  and  C_18 
REMARK       I    between atoms: C_18  and  N_19 
REMARK    4  A    between atoms: N_19  and  C_20 
REMARK    5  A    between atoms: C_21  and  C_22 
REMARK       I    between atoms: C_22  and  N_23 
REMARK    6  A    between atoms: N_23  and  C_24 
REMARK    7  A    between atoms: C_24  and  C_25 
ROOT
HETATM    1  C   UNL     1      40.546 -14.690   2.759  1.00  0.00     0.240 C 
ENDROOT
BRANCH   1   2
HETATM    2  N   UNL     1      41.814 -15.394   2.753  1.00  0.00    -0.259 N 
HETATM    3  C   UNL     1      43.025 -14.779   2.771  1.00  0.00     0.326 A 
HETATM    4  N   UNL     1      44.007 -15.735   2.700  1.00  0.00    -0.321 N 
HETATM    5  O   UNL     1      43.240 -13.586   2.883  1.00  0.00    -0.247 OA
HETATM    6  C   UNL     1      43.482 -17.065   2.499  1.00  0.00     0.140 A 
HETATM    7  H   UNL     1      44.987 -15.488   2.650  1.00  0.00     0.165 HD
HETATM    8  C   UNL     1      43.836 -17.460   1.052  1.00  0.00     0.055 C 
HETATM    9  C   UNL     1      41.966 -16.742   2.568  1.00  0.00     0.261 A 
HETATM   10  O   UNL     1      41.055 -17.545   2.427  1.00  0.00    -0.270 OA
BRANCH   6  11
HETATM   11  C   UNL     1      43.874 -18.113   3.557  1.00  0.00    -0.010 A 
HETATM   12  C   UNL     1      44.073 -19.527   3.336  1.00  0.00    -0.017 A 
HETATM   13  C   UNL     1      44.422 -20.343   4.455  1.00  0.00    -0.025 A 
HETATM   14  C   UNL     1      43.975 -20.221   2.098  1.00  0.00     0.013 A 
HETATM   15  C   UNL     1      44.615 -21.729   4.319  1.00  0.00     0.012 A 
HETATM   16  C   UNL     1      44.595 -19.788   5.725  1.00  0.00     0.012 A 
HETATM   17  C   UNL     1      44.489 -22.359   3.088  1.00  0.00     0.001 A 
HETATM   18  C   UNL     1      44.172 -21.603   1.974  1.00  0.00     0.001 A 
HETATM   19  C   UNL     1      44.453 -18.427   5.929  1.00  0.00     0.002 A 
HETATM   20  C   UNL     1      44.109 -17.607   4.862  1.00  0.00     0.011 A 
ENDBRANCH   6  11
ENDBRANCH   1   2
BRANCH   1  21
HETATM   21  C   UNL     1      39.852 -14.654   1.394  1.00  0.00     0.240 C 
HETATM   22  N   UNL     1      40.641 -14.222   0.336  1.00  0.00    -0.325 N 
HETATM   23  H   UNL     1      41.626 -14.393   0.495  1.00  0.00     0.169 HD
HETATM   24  O   UNL     1      38.655 -14.930   1.292  1.00  0.00    -0.271 OA
BRANCH  22  25
HETATM   25  C   UNL     1      40.223 -14.424  -1.003  1.00  0.00     0.050 A 
HETATM   26  C   UNL     1      39.284 -13.638  -1.694  1.00  0.00     0.058 A 
HETATM   27  C   UNL     1      38.985 -13.951  -3.035  1.00  0.00     0.019 A 
HETATM   28  C   UNL     1      39.600 -15.022  -3.681  1.00  0.00     0.001 A 
HETATM   29  C   UNL     1      40.549 -15.778  -3.006  1.00  0.00     0.002 A 
HETATM   30  C   UNL     1      40.868 -15.473  -1.682  1.00  0.00     0.030 A 
BRANCH  26  31
HETATM   31  C   UNL     1      38.689 -12.363  -1.214  1.00  0.00     0.254 C 
HETATM   32  N   UNL     1      39.523 -11.288  -1.053  1.00  0.00    -0.351 N 
HETATM   33  H   UNL     1      40.524 -11.437  -1.173  1.00  0.00     0.163 HD
HETATM   34  O   UNL     1      37.503 -12.344  -0.894  1.00  0.00    -0.268 OA
BRANCH  32  35
HETATM   35  C   UNL     1      39.066 -10.114  -0.345  1.00  0.00     0.187 C 
BRANCH  35  36
HETATM   36  C   UNL     1      39.677 -10.027   1.004  1.00  0.00     0.070 A 
HETATM   37  O   UNL     1      40.197 -11.189   1.499  1.00  0.00    -0.325 OA
HETATM   38  C   UNL     1      40.738 -10.903   2.710  1.00  0.00     0.142 A 
HETATM   39  C   UNL     1      40.578  -9.572   3.007  1.00  0.00     0.027 A 
HETATM   40  C   UNL     1      39.899  -9.002   1.903  1.00  0.00     0.036 A 
ENDBRANCH  35  36
ENDBRANCH  32  35
ENDBRANCH  26  31
ENDBRANCH  22  25
ENDBRANCH   1  21
TORSDOF 7
ENDMDL
MODEL 9
REMARK VINA RESULT:      -9.8      4.359      8.170
REMARK  7 active torsions:
REMARK  status: ('A' for Active; 'I' for Inactive)
REMARK    1  A    between atoms: C_2  and  C_3 
REMARK    2  A    between atoms: N_16  and  C_17 
REMARK    3  A    between atoms: C_17  and  C_18 
REMARK       I    between atoms: C_18  and  N_19 
REMARK    4  A    between atoms: N_19  and  C_20 
REMARK    5  A    between atoms: C_21  and  C_22 
REMARK       I    between atoms: C_22  and  N_23 
REMARK    6  A    between atoms: N_23  and  C_24 
REMARK    7  A    between atoms: C_24  and  C_25 
ROOT
HETATM    1  C   UNL     1      42.365 -13.305   5.666  1.00  0.00     0.240 C 
ENDROOT
BRANCH   1   2
HETATM    2  N   UNL     1      42.208 -14.743   5.785  1.00  0.00    -0.259 N 
HETATM    3  C   UNL     1      41.008 -15.379   5.794  1.00  0.00     0.326 A 
HETATM    4  N   UNL     1      41.221 -16.721   5.977  1.00  0.00    -0.321 N 
HETATM    5  O   UNL     1      39.912 -14.878   5.618  1.00  0.00    -0.247 OA
HETATM    6  C   UNL     1      42.606 -17.040   6.232  1.00  0.00     0.140 A 
HETATM    7  H   UNL     1      40.453 -17.375   6.064  1.00  0.00     0.165 HD
HETATM    8  C   UNL     1      42.695 -17.440   7.718  1.00  0.00     0.055 C 
HETATM    9  C   UNL     1      43.218 -15.625   6.062  1.00  0.00     0.261 A 
HETATM   10  O   UNL     1      44.397 -15.331   6.203  1.00  0.00    -0.270 OA
BRANCH   6  11
HETATM   11  C   UNL     1      43.257 -18.046   5.265  1.00  0.00    -0.010 A 
HETATM   12  C   UNL     1      43.402 -17.893   3.835  1.00  0.00    -0.017 A 
HETATM   13  C   UNL     1      44.025 -18.950   3.103  1.00  0.00    -0.025 A 
HETATM   14  C   UNL     1      42.999 -16.779   3.048  1.00  0.00     0.013 A 
HETATM   15  C   UNL     1      44.185 -18.880   1.709  1.00  0.00     0.012 A 
HETATM   16  C   UNL     1      44.509 -20.088   3.753  1.00  0.00     0.012 A 
HETATM   17  C   UNL     1      43.757 -17.774   0.987  1.00  0.00     0.001 A 
HETATM   18  C   UNL     1      43.167 -16.719   1.658  1.00  0.00     0.001 A 
HETATM   19  C   UNL     1      44.416 -20.213   5.128  1.00  0.00     0.002 A 
HETATM   20  C   UNL     1      43.810 -19.206   5.867  1.00  0.00     0.011 A 
ENDBRANCH   6  11
ENDBRANCH   1   2
BRANCH   1  21
HETATM   21  C   UNL     1      42.305 -12.794   4.223  1.00  0.00     0.240 C 
HETATM   22  N   UNL     1      41.075 -12.292   3.820  1.00  0.00    -0.325 N 
HETATM   23  H   UNL     1      40.528 -11.939   4.595  1.00  0.00     0.169 HD
HETATM   24  O   UNL     1      43.283 -12.901   3.480  1.00  0.00    -0.271 OA
BRANCH  22  25
HETATM   25  C   UNL     1      40.964 -11.525   2.633  1.00  0.00     0.050 A 
HETATM   26  C   UNL     1      40.961 -12.039   1.324  1.00  0.00     0.058 A 
HETATM   27  C   UNL     1      40.822 -11.150   0.240  1.00  0.00     0.019 A 
HETATM   28  C   UNL     1      40.691  -9.777   0.445  1.00  0.00     0.001 A 
HETATM   29  C   UNL     1      40.664  -9.275   1.739  1.00  0.00     0.002 A 
HETATM   30  C   UNL     1      40.786 -10.143   2.825  1.00  0.00     0.030 A 
BRANCH  26  31
HETATM   31  C   UNL     1      40.901 -13.477   0.949  1.00  0.00     0.254 C 
HETATM   32  N   UNL     1      41.433 -13.845  -0.259  1.00  0.00    -0.351 N 
HETATM   33  H   UNL     1      41.752 -13.109  -0.886  1.00  0.00     0.163 HD
HETATM   34  O   UNL     1      40.302 -14.258   1.684  1.00  0.00    -0.268 OA
BRANCH  32  35
HETATM   35  C   UNL     1      41.172 -15.162  -0.795  1.00  0.00     0.187 C 
BRANCH  35  36
HETATM   36  C   UNL     1      40.259 -15.096  -1.963  1.00  0.00     0.070 A 
HETATM   37  O   UNL     1      40.437 -16.063  -2.913  1.00  0.00    -0.325 OA
HETATM   38  C   UNL     1      39.497 -15.862  -3.871  1.00  0.00     0.142 A 
HETATM   39  C   UNL     1      38.711 -14.781  -3.556  1.00  0.00     0.027 A 
HETATM   40  C   UNL     1      39.197 -14.289  -2.320  1.00  0.00     0.036 A 
ENDBRANCH  35  36
ENDBRANCH  32  35
ENDBRANCH  26  31
ENDBRANCH  22  25
ENDBRANCH   1  21
TORSDOF 7
ENDMDL
MODEL 10
REMARK VINA RESULT:      -9.8      3.856      7.427
REMARK  7 active torsions:
REMARK  status: ('A' for Active; 'I' for Inactive)
REMARK    1  A    between atoms: C_2  and  C_3 
REMARK    2  A    between atoms: N_16  and  C_17 
REMARK    3  A    between atoms: C_17  and  C_18 
REMARK       I    between atoms: C_18  and  N_19 
REMARK    4  A    between atoms: N_19  and  C_20 
REMARK    5  A    between atoms: C_21  and  C_22 
REMARK       I    between atoms: C_22  and  N_23 
REMARK    6  A    between atoms: N_23  and  C_24 
REMARK    7  A    between atoms: C_24  and  C_25 
ROOT
HETATM    1  C   UNL     1      43.909 -15.373   7.204  1.00  0.00     0.240 C 
ENDROOT
BRANCH   1   2
HETATM    2  N   UNL     1      43.540 -16.720   6.810  1.00  0.00    -0.259 N 
HETATM    3  C   UNL     1      42.268 -17.198   6.836  1.00  0.00     0.326 A 
HETATM    4  N   UNL     1      42.284 -18.516   6.457  1.00  0.00    -0.321 N 
HETATM    5  O   UNL     1      41.256 -16.574   7.095  1.00  0.00    -0.247 OA
HETATM    6  C   UNL     1      43.621 -19.032   6.277  1.00  0.00     0.140 A 
HETATM    7  H   UNL     1      41.443 -19.079   6.456  1.00  0.00     0.165 HD
HETATM    8  C   UNL     1      43.880 -19.994   7.453  1.00  0.00     0.055 C 
HETATM    9  C   UNL     1      44.422 -17.726   6.520  1.00  0.00     0.261 A 
HETATM   10  O   UNL     1      45.640 -17.619   6.508  1.00  0.00    -0.270 OA
BRANCH   6  11
HETATM   11  C   UNL     1      43.935 -19.625   4.891  1.00  0.00    -0.010 A 
HETATM   12  C   UNL     1      43.821 -18.947   3.619  1.00  0.00    -0.017 A 
HETATM   13  C   UNL     1      44.146 -19.676   2.435  1.00  0.00    -0.025 A 
HETATM   14  C   UNL     1      43.425 -17.598   3.401  1.00  0.00     0.013 A 
HETATM   15  C   UNL     1      44.042 -19.088   1.162  1.00  0.00     0.012 A 
HETATM   16  C   UNL     1      44.591 -20.999   2.502  1.00  0.00     0.012 A 
HETATM   17  C   UNL     1      43.634 -17.771   1.005  1.00  0.00     0.001 A 
HETATM   18  C   UNL     1      43.329 -17.023   2.127  1.00  0.00     0.001 A 
HETATM   19  C   UNL     1      44.748 -21.632   3.721  1.00  0.00     0.002 A 
HETATM   20  C   UNL     1      44.435 -20.953   4.891  1.00  0.00     0.011 A 
ENDBRANCH   6  11
ENDBRANCH   1   2
BRANCH   1  21
HETATM   21  C   UNL     1      43.554 -14.306   6.165  1.00  0.00     0.240 C 
HETATM   22  N   UNL     1      42.196 -14.076   5.988  1.00  0.00    -0.325 N 
HETATM   23  H   UNL     1      41.655 -14.300   6.814  1.00  0.00     0.169 HD
HETATM   24  O   UNL     1      44.437 -13.759   5.501  1.00  0.00    -0.271 OA
BRANCH  22  25
HETATM   25  C   UNL     1      41.745 -12.927   5.292  1.00  0.00     0.050 A 
HETATM   26  C   UNL     1      41.299 -12.900   3.958  1.00  0.00     0.058 A 
HETATM   27  C   UNL     1      40.859 -11.680   3.408  1.00  0.00     0.019 A 
HETATM   28  C   UNL     1      40.864 -10.506   4.159  1.00  0.00     0.001 A 
HETATM   29  C   UNL     1      41.276 -10.540   5.484  1.00  0.00     0.002 A 
HETATM   30  C   UNL     1      41.701 -11.743   6.050  1.00  0.00     0.030 A 
BRANCH  26  31
HETATM   31  C   UNL     1      41.057 -14.086   3.094  1.00  0.00     0.254 C 
HETATM   32  N   UNL     1      41.051 -13.897   1.736  1.00  0.00    -0.351 N 
HETATM   33  H   UNL     1      41.113 -12.943   1.386  1.00  0.00     0.163 HD
HETATM   34  O   UNL     1      40.781 -15.160   3.621  1.00  0.00    -0.268 OA
BRANCH  32  35
HETATM   35  C   UNL     1      40.564 -14.939   0.861  1.00  0.00     0.187 C 
BRANCH  35  36
HETATM   36  C   UNL     1      40.934 -14.672  -0.551  1.00  0.00     0.070 A 
HETATM   37  O   UNL     1      41.446 -13.432  -0.809  1.00  0.00    -0.325 OA
HETATM   38  C   UNL     1      41.756 -13.392  -2.129  1.00  0.00     0.142 A 
HETATM   39  C   UNL     1      41.454 -14.589  -2.731  1.00  0.00     0.027 A 
HETATM   40  C   UNL     1      40.929 -15.420  -1.712  1.00  0.00     0.036 A 
ENDBRANCH  35  36
ENDBRANCH  32  35
ENDBRANCH  26  31
ENDBRANCH  22  25
ENDBRANCH   1  21
TORSDOF 7
ENDMDL
