MODEL 1
REMARK VINA RESULT:      -9.1      0.000      0.000
REMARK  7 active torsions:
REMARK  status: ('A' for Active; 'I' for Inactive)
REMARK    1  A    between atoms: N_3  and  N_4 
REMARK       I    between atoms: N_4  and  C_5 
REMARK    2  A    between atoms: C_5  and  C_6 
REMARK    3  A    between atoms: C_9  and  O_10 
REMARK    4  A    between atoms: O_10  and  C_11 
REMARK    5  A    between atoms: C_11  and  C_12 
REMARK       I    between atoms: C_12  and  N_13 
REMARK    6  A    between atoms: N_13  and  C_14 
REMARK    7  A    between atoms: C_16  and  O_17 
ROOT
HETATM    1  C   UNL     1      43.430 -16.657   5.361  1.00  0.00     0.033 A 
HETATM    2  C   UNL     1      43.083 -15.444   4.755  1.00  0.00     0.020 A 
HETATM    3  C   UNL     1      43.359 -14.239   5.408  1.00  0.00     0.038 A 
HETATM    4  C   UNL     1      43.965 -14.235   6.668  1.00  0.00     0.069 A 
HETATM    5  C   UNL     1      44.333 -15.445   7.258  1.00  0.00     0.038 A 
HETATM    6  C   UNL     1      44.071 -16.652   6.604  1.00  0.00     0.020 A 
ENDROOT
BRANCH   4   7
HETATM    7  O   UNL     1      44.181 -12.996   7.209  1.00  0.00    -0.342 OA
BRANCH   7   8
HETATM    8  C   UNL     1      45.187 -12.938   8.220  1.00  0.00     0.278 C 
BRANCH   8   9
HETATM    9  C   UNL     1      45.001 -11.719   9.126  1.00  0.00     0.246 C 
HETATM   10  N   UNL     1      43.832 -11.771   9.864  1.00  0.00    -0.325 N 
HETATM   11  H   UNL     1      43.307 -12.636   9.775  1.00  0.00     0.169 HD
HETATM   12  O   UNL     1      45.811 -10.795   9.098  1.00  0.00    -0.271 OA
BRANCH  10  13
HETATM   13  C   UNL     1      43.300 -10.785  10.720  1.00  0.00     0.037 A 
HETATM   14  C   UNL     1      42.232  -9.949  10.378  1.00  0.00     0.066 A 
HETATM   15  C   UNL     1      41.749  -9.001  11.287  1.00  0.00     0.070 A 
HETATM   16  C   UNL     1      42.339  -8.896  12.547  1.00  0.00     0.037 A 
HETATM   17  C   UNL     1      43.405  -9.720  12.899  1.00  0.00     0.005 A 
HETATM   18  C   UNL     1      43.885 -10.661  11.987  1.00  0.00     0.029 A 
BRANCH  15  19
HETATM   19  O   UNL     1      40.714  -8.131  11.069  1.00  0.00    -0.356 OA
HETATM   20  C   UNL     1      40.355  -7.276  12.149  1.00  0.00     0.210 C 
ENDBRANCH  15  19
ENDBRANCH  10  13
ENDBRANCH   8   9
ENDBRANCH   7   8
ENDBRANCH   4   7
BRANCH   1  21
HETATM   21  C   UNL     1      43.158 -17.964   4.709  1.00  0.00     0.270 C 
HETATM   22  N   UNL     1      44.245 -18.546   4.103  1.00  0.00    -0.259 N 
HETATM   23  H   UNL     1      45.116 -18.063   3.948  1.00  0.00     0.191 HD
HETATM   24  O   UNL     1      42.017 -18.409   4.714  1.00  0.00    -0.266 OA
BRANCH  22  25
HETATM   25  N   UNL     1      44.080 -19.668   3.376  1.00  0.00    -0.263 N 
HETATM   26  C   UNL     1      44.428 -20.909   3.831  1.00  0.00     0.030 A 
HETATM   27  C   UNL     1      44.831 -21.184   5.233  1.00  0.00     0.070 C 
HETATM   28  C   UNL     1      44.301 -21.770   2.755  1.00  0.00     0.028 A 
HETATM   29  C   UNL     1      43.900 -21.001   1.633  1.00  0.00     0.028 A 
HETATM   30  C   UNL     1      43.790 -19.683   2.039  1.00  0.00     0.030 A 
HETATM   31  C   UNL     1      43.396 -18.480   1.265  1.00  0.00     0.070 C 
ENDBRANCH  22  25
ENDBRANCH   1  21
TORSDOF 7
ENDMDL
MODEL 2
REMARK VINA RESULT:      -8.6      1.066      2.287
REMARK  7 active torsions:
REMARK  status: ('A' for Active; 'I' for Inactive)
REMARK    1  A    between atoms: N_3  and  N_4 
REMARK       I    between atoms: N_4  and  C_5 
REMARK    2  A    between atoms: C_5  and  C_6 
REMARK    3  A    between atoms: C_9  and  O_10 
REMARK    4  A    between atoms: O_10  and  C_11 
REMARK    5  A    between atoms: C_11  and  C_12 
REMARK       I    between atoms: C_12  and  N_13 
REMARK    6  A    between atoms: N_13  and  C_14 
REMARK    7  A    between atoms: C_16  and  O_17 
ROOT
HETATM    1  C   UNL     1      43.538 -16.731   5.282  1.00  0.00     0.033 A 
HETATM    2  C   UNL     1      44.133 -16.614   6.543  1.00  0.00     0.020 A 
HETATM    3  C   UNL     1      44.315 -15.347   7.108  1.00  0.00     0.038 A 
HETATM    4  C   UNL     1      43.922 -14.197   6.418  1.00  0.00     0.069 A 
HETATM    5  C   UNL     1      43.306 -14.319   5.172  1.00  0.00     0.038 A 
HETATM    6  C   UNL     1      43.109 -15.583   4.608  1.00  0.00     0.020 A 
ENDROOT
BRANCH   4   7
HETATM    7  O   UNL     1      44.155 -13.015   7.070  1.00  0.00    -0.342 OA
BRANCH   7   8
HETATM    8  C   UNL     1      44.787 -13.135   8.343  1.00  0.00     0.278 C 
BRANCH   8   9
HETATM    9  C   UNL     1      44.490 -11.924   9.232  1.00  0.00     0.246 C 
HETATM   10  N   UNL     1      43.412 -12.129  10.074  1.00  0.00    -0.325 N 
HETATM   11  H   UNL     1      43.024 -13.068  10.054  1.00  0.00     0.169 HD
HETATM   12  O   UNL     1      45.139 -10.889   9.108  1.00  0.00    -0.271 OA
BRANCH  10  13
HETATM   13  C   UNL     1      42.807 -11.205  10.950  1.00  0.00     0.037 A 
HETATM   14  C   UNL     1      42.728 -11.381  12.336  1.00  0.00     0.066 A 
HETATM   15  C   UNL     1      42.123 -10.412  13.145  1.00  0.00     0.070 A 
HETATM   16  C   UNL     1      41.599  -9.260  12.559  1.00  0.00     0.037 A 
HETATM   17  C   UNL     1      41.669  -9.073  11.181  1.00  0.00     0.005 A 
HETATM   18  C   UNL     1      42.269 -10.045  10.379  1.00  0.00     0.029 A 
BRANCH  15  19
HETATM   19  O   UNL     1      41.987 -10.472  14.506  1.00  0.00    -0.356 OA
HETATM   20  C   UNL     1      42.439  -9.343  15.247  1.00  0.00     0.210 C 
ENDBRANCH  15  19
ENDBRANCH  10  13
ENDBRANCH   8   9
ENDBRANCH   7   8
ENDBRANCH   4   7
BRANCH   1  21
HETATM   21  C   UNL     1      43.323 -18.052   4.638  1.00  0.00     0.270 C 
HETATM   22  N   UNL     1      44.411 -18.552   3.964  1.00  0.00    -0.259 N 
HETATM   23  H   UNL     1      45.233 -18.005   3.760  1.00  0.00     0.191 HD
HETATM   24  O   UNL     1      42.220 -18.580   4.708  1.00  0.00    -0.266 OA
BRANCH  22  25
HETATM   25  N   UNL     1      44.286 -19.680   3.240  1.00  0.00    -0.263 N 
HETATM   26  C   UNL     1      43.709 -19.710   2.001  1.00  0.00     0.030 A 
HETATM   27  C   UNL     1      43.344 -18.491   1.238  1.00  0.00     0.070 C 
HETATM   28  C   UNL     1      43.582 -21.046   1.661  1.00  0.00     0.028 A 
HETATM   29  C   UNL     1      44.067 -21.816   2.748  1.00  0.00     0.028 A 
HETATM   30  C   UNL     1      44.482 -20.940   3.736  1.00  0.00     0.030 A 
HETATM   31  C   UNL     1      45.076 -21.220   5.067  1.00  0.00     0.070 C 
ENDBRANCH  22  25
ENDBRANCH   1  21
TORSDOF 7
ENDMDL
MODEL 3
REMARK VINA RESULT:      -8.4      2.002      2.557
REMARK  7 active torsions:
REMARK  status: ('A' for Active; 'I' for Inactive)
REMARK    1  A    between atoms: N_3  and  N_4 
REMARK       I    between atoms: N_4  and  C_5 
REMARK    2  A    between atoms: C_5  and  C_6 
REMARK    3  A    between atoms: C_9  and  O_10 
REMARK    4  A    between atoms: O_10  and  C_11 
REMARK    5  A    between atoms: C_11  and  C_12 
REMARK       I    between atoms: C_12  and  N_13 
REMARK    6  A    between atoms: N_13  and  C_14 
REMARK    7  A    between atoms: C_16  and  O_17 
ROOT
HETATM    1  C   UNL     1      41.984 -15.583   4.973  1.00  0.00     0.033 A 
HETATM    2  C   UNL     1      40.772 -15.159   5.529  1.00  0.00     0.020 A 
HETATM    3  C   UNL     1      40.551 -13.796   5.752  1.00  0.00     0.038 A 
HETATM    4  C   UNL     1      41.537 -12.855   5.440  1.00  0.00     0.069 A 
HETATM    5  C   UNL     1      42.735 -13.279   4.863  1.00  0.00     0.038 A 
HETATM    6  C   UNL     1      42.956 -14.639   4.625  1.00  0.00     0.020 A 
ENDROOT
BRANCH   4   7
HETATM    7  O   UNL     1      41.209 -11.553   5.707  1.00  0.00    -0.342 OA
BRANCH   7   8
HETATM    8  C   UNL     1      40.559 -11.331   6.957  1.00  0.00     0.278 C 
BRANCH   8   9
HETATM    9  C   UNL     1      41.474 -10.599   7.942  1.00  0.00     0.246 C 
HETATM   10  N   UNL     1      41.507 -11.196   9.189  1.00  0.00    -0.325 N 
HETATM   11  H   UNL     1      41.001 -12.074   9.258  1.00  0.00     0.169 HD
HETATM   12  O   UNL     1      42.035  -9.557   7.612  1.00  0.00    -0.271 OA
BRANCH  10  13
HETATM   13  C   UNL     1      42.162 -10.743  10.352  1.00  0.00     0.037 A 
HETATM   14  C   UNL     1      41.499 -10.210  11.463  1.00  0.00     0.066 A 
HETATM   15  C   UNL     1      42.217  -9.793  12.589  1.00  0.00     0.070 A 
HETATM   16  C   UNL     1      43.607  -9.915  12.602  1.00  0.00     0.037 A 
HETATM   17  C   UNL     1      44.279 -10.441  11.502  1.00  0.00     0.005 A 
HETATM   18  C   UNL     1      43.558 -10.852  10.379  1.00  0.00     0.029 A 
BRANCH  15  19
HETATM   19  O   UNL     1      41.682  -9.259  13.731  1.00  0.00    -0.356 OA
HETATM   20  C   UNL     1      42.060  -9.866  14.963  1.00  0.00     0.210 C 
ENDBRANCH  15  19
ENDBRANCH  10  13
ENDBRANCH   8   9
ENDBRANCH   7   8
ENDBRANCH   4   7
BRANCH   1  21
HETATM   21  C   UNL     1      42.268 -17.019   4.718  1.00  0.00     0.270 C 
HETATM   22  N   UNL     1      43.566 -17.299   4.366  1.00  0.00    -0.259 N 
HETATM   23  H   UNL     1      44.239 -16.588   4.123  1.00  0.00     0.191 HD
HETATM   24  O   UNL     1      41.355 -17.832   4.792  1.00  0.00    -0.266 OA
BRANCH  22  25
HETATM   25  N   UNL     1      43.900 -18.548   3.990  1.00  0.00    -0.263 N 
HETATM   26  C   UNL     1      44.410 -19.476   4.855  1.00  0.00     0.030 A 
HETATM   27  C   UNL     1      44.464 -19.282   6.325  1.00  0.00     0.070 C 
HETATM   28  C   UNL     1      44.809 -20.553   4.082  1.00  0.00     0.028 A 
HETATM   29  C   UNL     1      44.554 -20.228   2.725  1.00  0.00     0.028 A 
HETATM   30  C   UNL     1      44.006 -18.958   2.689  1.00  0.00     0.030 A 
HETATM   31  C   UNL     1      43.551 -18.153   1.529  1.00  0.00     0.070 C 
ENDBRANCH  22  25
ENDBRANCH   1  21
TORSDOF 7
ENDMDL
MODEL 4
REMARK VINA RESULT:      -8.2      2.095      3.058
REMARK  7 active torsions:
REMARK  status: ('A' for Active; 'I' for Inactive)
REMARK    1  A    between atoms: N_3  and  N_4 
REMARK       I    between atoms: N_4  and  C_5 
REMARK    2  A    between atoms: C_5  and  C_6 
REMARK    3  A    between atoms: C_9  and  O_10 
REMARK    4  A    between atoms: O_10  and  C_11 
REMARK    5  A    between atoms: C_11  and  C_12 
REMARK       I    between atoms: C_12  and  N_13 
REMARK    6  A    between atoms: N_13  and  C_14 
REMARK    7  A    between atoms: C_16  and  O_17 
ROOT
HETATM    1  C   UNL     1      41.878 -15.312   4.769  1.00  0.00     0.033 A 
HETATM    2  C   UNL     1      40.733 -15.009   5.516  1.00  0.00     0.020 A 
HETATM    3  C   UNL     1      40.441 -13.677   5.825  1.00  0.00     0.038 A 
HETATM    4  C   UNL     1      41.289 -12.647   5.408  1.00  0.00     0.069 A 
HETATM    5  C   UNL     1      42.416 -12.951   4.642  1.00  0.00     0.038 A 
HETATM    6  C   UNL     1      42.706 -14.279   4.319  1.00  0.00     0.020 A 
ENDROOT
BRANCH   4   7
HETATM    7  O   UNL     1      40.901 -11.386   5.774  1.00  0.00    -0.342 OA
BRANCH   7   8
HETATM    8  C   UNL     1      40.371 -11.268   7.093  1.00  0.00     0.278 C 
BRANCH   8   9
HETATM    9  C   UNL     1      41.390 -10.647   8.052  1.00  0.00     0.246 C 
HETATM   10  N   UNL     1      41.274 -11.130   9.344  1.00  0.00    -0.325 N 
HETATM   11  H   UNL     1      40.602 -11.882   9.462  1.00  0.00     0.169 HD
HETATM   12  O   UNL     1      42.154  -9.768   7.663  1.00  0.00    -0.271 OA
BRANCH  10  13
HETATM   13  C   UNL     1      41.978 -10.715  10.492  1.00  0.00     0.037 A 
HETATM   14  C   UNL     1      41.373 -10.124  11.607  1.00  0.00     0.066 A 
HETATM   15  C   UNL     1      42.136  -9.750  12.718  1.00  0.00     0.070 A 
HETATM   16  C   UNL     1      43.513  -9.974  12.712  1.00  0.00     0.037 A 
HETATM   17  C   UNL     1      44.129 -10.559  11.608  1.00  0.00     0.005 A 
HETATM   18  C   UNL     1      43.363 -10.926  10.500  1.00  0.00     0.029 A 
BRANCH  15  19
HETATM   19  O   UNL     1      41.660  -9.167  13.862  1.00  0.00    -0.356 OA
HETATM   20  C   UNL     1      42.390  -9.413  15.060  1.00  0.00     0.210 C 
ENDBRANCH  15  19
ENDBRANCH  10  13
ENDBRANCH   8   9
ENDBRANCH   7   8
ENDBRANCH   4   7
BRANCH   1  21
HETATM   21  C   UNL     1      42.234 -16.711   4.416  1.00  0.00     0.270 C 
HETATM   22  N   UNL     1      43.567 -16.922   4.159  1.00  0.00    -0.259 N 
HETATM   23  H   UNL     1      44.232 -16.174   4.040  1.00  0.00     0.191 HD
HETATM   24  O   UNL     1      41.348 -17.552   4.337  1.00  0.00    -0.266 OA
BRANCH  22  25
HETATM   25  N   UNL     1      43.976 -18.122   3.707  1.00  0.00    -0.263 N 
HETATM   26  C   UNL     1      43.961 -18.465   2.384  1.00  0.00     0.030 A 
HETATM   27  C   UNL     1      43.688 -17.499   1.291  1.00  0.00     0.070 C 
HETATM   28  C   UNL     1      44.258 -19.816   2.326  1.00  0.00     0.028 A 
HETATM   29  C   UNL     1      44.418 -20.280   3.657  1.00  0.00     0.028 A 
HETATM   30  C   UNL     1      44.214 -19.207   4.507  1.00  0.00     0.030 A 
HETATM   31  C   UNL     1      44.272 -19.143   5.988  1.00  0.00     0.070 C 
ENDBRANCH  22  25
ENDBRANCH   1  21
TORSDOF 7
ENDMDL
MODEL 5
REMARK VINA RESULT:      -7.9      2.695      4.634
REMARK  7 active torsions:
REMARK  status: ('A' for Active; 'I' for Inactive)
REMARK    1  A    between atoms: N_3  and  N_4 
REMARK       I    between atoms: N_4  and  C_5 
REMARK    2  A    between atoms: C_5  and  C_6 
REMARK    3  A    between atoms: C_9  and  O_10 
REMARK    4  A    between atoms: O_10  and  C_11 
REMARK    5  A    between atoms: C_11  and  C_12 
REMARK       I    between atoms: C_12  and  N_13 
REMARK    6  A    between atoms: N_13  and  C_14 
REMARK    7  A    between atoms: C_16  and  O_17 
ROOT
HETATM    1  C   UNL     1      41.217 -13.383   4.939  1.00  0.00     0.033 A 
HETATM    2  C   UNL     1      40.192 -13.705   5.836  1.00  0.00     0.020 A 
HETATM    3  C   UNL     1      39.464 -12.682   6.452  1.00  0.00     0.038 A 
HETATM    4  C   UNL     1      39.760 -11.341   6.192  1.00  0.00     0.069 A 
HETATM    5  C   UNL     1      40.766 -11.024   5.277  1.00  0.00     0.038 A 
HETATM    6  C   UNL     1      41.489 -12.042   4.649  1.00  0.00     0.020 A 
ENDROOT
BRANCH   4   7
HETATM    7  O   UNL     1      38.983 -10.430   6.855  1.00  0.00    -0.342 OA
BRANCH   7   8
HETATM    8  C   UNL     1      39.114 -10.436   8.276  1.00  0.00     0.278 C 
BRANCH   8   9
HETATM    9  C   UNL     1      40.510  -9.985   8.712  1.00  0.00     0.246 C 
HETATM   10  N   UNL     1      41.278 -11.022   9.211  1.00  0.00    -0.325 N 
HETATM   11  H   UNL     1      40.854 -11.942   9.140  1.00  0.00     0.169 HD
HETATM   12  O   UNL     1      40.823  -8.798   8.661  1.00  0.00    -0.271 OA
BRANCH  10  13
HETATM   13  C   UNL     1      42.563 -10.952   9.785  1.00  0.00     0.037 A 
HETATM   14  C   UNL     1      43.751 -10.983   9.046  1.00  0.00     0.066 A 
HETATM   15  C   UNL     1      44.992 -10.895   9.686  1.00  0.00     0.070 A 
HETATM   16  C   UNL     1      45.041 -10.772  11.075  1.00  0.00     0.037 A 
HETATM   17  C   UNL     1      43.866 -10.743  11.823  1.00  0.00     0.005 A 
HETATM   18  C   UNL     1      42.632 -10.836  11.179  1.00  0.00     0.029 A 
BRANCH  15  19
HETATM   19  O   UNL     1      46.216 -10.913   9.073  1.00  0.00    -0.356 OA
HETATM   20  C   UNL     1      46.503 -12.036   8.245  1.00  0.00     0.210 C 
ENDBRANCH  15  19
ENDBRANCH  10  13
ENDBRANCH   8   9
ENDBRANCH   7   8
ENDBRANCH   4   7
BRANCH   1  21
HETATM   21  C   UNL     1      42.021 -14.432   4.260  1.00  0.00     0.270 C 
HETATM   22  N   UNL     1      41.623 -15.722   4.516  1.00  0.00    -0.259 N 
HETATM   23  H   UNL     1      40.962 -15.964   5.238  1.00  0.00     0.191 HD
HETATM   24  O   UNL     1      42.978 -14.102   3.572  1.00  0.00    -0.266 OA
BRANCH  22  25
HETATM   25  N   UNL     1      42.359 -16.750   4.054  1.00  0.00    -0.263 N 
HETATM   26  C   UNL     1      42.037 -17.450   2.924  1.00  0.00     0.030 A 
HETATM   27  C   UNL     1      40.970 -17.033   1.981  1.00  0.00     0.070 C 
HETATM   28  C   UNL     1      42.895 -18.534   2.877  1.00  0.00     0.028 A 
HETATM   29  C   UNL     1      43.718 -18.484   4.031  1.00  0.00     0.028 A 
HETATM   30  C   UNL     1      43.349 -17.371   4.766  1.00  0.00     0.030 A 
HETATM   31  C   UNL     1      43.895 -16.853   6.045  1.00  0.00     0.070 C 
ENDBRANCH  22  25
ENDBRANCH   1  21
TORSDOF 7
ENDMDL
MODEL 6
REMARK VINA RESULT:      -7.8      2.173      3.017
REMARK  7 active torsions:
REMARK  status: ('A' for Active; 'I' for Inactive)
REMARK    1  A    between atoms: N_3  and  N_4 
REMARK       I    between atoms: N_4  and  C_5 
REMARK    2  A    between atoms: C_5  and  C_6 
REMARK    3  A    between atoms: C_9  and  O_10 
REMARK    4  A    between atoms: O_10  and  C_11 
REMARK    5  A    between atoms: C_11  and  C_12 
REMARK       I    between atoms: C_12  and  N_13 
REMARK    6  A    between atoms: N_13  and  C_14 
REMARK    7  A    between atoms: C_16  and  O_17 
ROOT
HETATM    1  C   UNL     1      41.962 -15.771   5.098  1.00  0.00     0.033 A 
HETATM    2  C   UNL     1      40.676 -15.354   5.462  1.00  0.00     0.020 A 
HETATM    3  C   UNL     1      40.449 -14.013   5.786  1.00  0.00     0.038 A 
HETATM    4  C   UNL     1      41.496 -13.088   5.765  1.00  0.00     0.069 A 
HETATM    5  C   UNL     1      42.772 -13.502   5.376  1.00  0.00     0.038 A 
HETATM    6  C   UNL     1      43.002 -14.838   5.039  1.00  0.00     0.020 A 
ENDROOT
BRANCH   4   7
HETATM    7  O   UNL     1      41.153 -11.807   6.105  1.00  0.00    -0.342 OA
BRANCH   7   8
HETATM    8  C   UNL     1      39.817 -11.637   6.574  1.00  0.00     0.278 C 
BRANCH   8   9
HETATM    9  C   UNL     1      39.787 -10.984   7.958  1.00  0.00     0.246 C 
HETATM   10  N   UNL     1      41.038 -10.573   8.384  1.00  0.00    -0.325 N 
HETATM   11  H   UNL     1      41.780 -10.677   7.699  1.00  0.00     0.169 HD
HETATM   12  O   UNL     1      38.739 -10.925   8.595  1.00  0.00    -0.271 OA
BRANCH  10  13
HETATM   13  C   UNL     1      41.393 -10.025   9.634  1.00  0.00     0.037 A 
HETATM   14  C   UNL     1      41.948 -10.768  10.682  1.00  0.00     0.066 A 
HETATM   15  C   UNL     1      42.288 -10.151  11.890  1.00  0.00     0.070 A 
HETATM   16  C   UNL     1      42.074  -8.781  12.046  1.00  0.00     0.037 A 
HETATM   17  C   UNL     1      41.520  -8.031  11.012  1.00  0.00     0.005 A 
HETATM   18  C   UNL     1      41.179  -8.652   9.810  1.00  0.00     0.029 A 
BRANCH  15  19
HETATM   19  O   UNL     1      42.835 -10.770  12.983  1.00  0.00    -0.356 OA
HETATM   20  C   UNL     1      42.348 -10.367  14.259  1.00  0.00     0.210 C 
ENDBRANCH  15  19
ENDBRANCH  10  13
ENDBRANCH   8   9
ENDBRANCH   7   8
ENDBRANCH   4   7
BRANCH   1  21
HETATM   21  C   UNL     1      42.256 -17.184   4.746  1.00  0.00     0.270 C 
HETATM   22  N   UNL     1      43.562 -17.435   4.399  1.00  0.00    -0.259 N 
HETATM   23  H   UNL     1      44.235 -16.706   4.219  1.00  0.00     0.191 HD
HETATM   24  O   UNL     1      41.346 -18.003   4.745  1.00  0.00    -0.266 OA
BRANCH  22  25
HETATM   25  N   UNL     1      43.907 -18.653   3.941  1.00  0.00    -0.263 N 
HETATM   26  C   UNL     1      44.359 -19.654   4.754  1.00  0.00     0.030 A 
HETATM   27  C   UNL     1      44.329 -19.582   6.235  1.00  0.00     0.070 C 
HETATM   28  C   UNL     1      44.794 -20.669   3.919  1.00  0.00     0.028 A 
HETATM   29  C   UNL     1      44.621 -20.232   2.581  1.00  0.00     0.028 A 
HETATM   30  C   UNL     1      44.086 -18.956   2.619  1.00  0.00     0.030 A 
HETATM   31  C   UNL     1      43.704 -18.053   1.505  1.00  0.00     0.070 C 
ENDBRANCH  22  25
ENDBRANCH   1  21
TORSDOF 7
ENDMDL
MODEL 7
REMARK VINA RESULT:      -7.7      2.746     10.876
REMARK  7 active torsions:
REMARK  status: ('A' for Active; 'I' for Inactive)
REMARK    1  A    between atoms: N_3  and  N_4 
REMARK       I    between atoms: N_4  and  C_5 
REMARK    2  A    between atoms: C_5  and  C_6 
REMARK    3  A    between atoms: C_9  and  O_10 
REMARK    4  A    between atoms: O_10  and  C_11 
REMARK    5  A    between atoms: C_11  and  C_12 
REMARK       I    between atoms: C_12  and  N_13 
REMARK    6  A    between atoms: N_13  and  C_14 
REMARK    7  A    between atoms: C_16  and  O_17 
ROOT
HETATM    1  C   UNL     1      40.891 -11.144   8.035  1.00  0.00     0.033 A 
HETATM    2  C   UNL     1      41.801 -11.163   6.972  1.00  0.00     0.020 A 
HETATM    3  C   UNL     1      41.447 -11.780   5.767  1.00  0.00     0.038 A 
HETATM    4  C   UNL     1      40.198 -12.391   5.620  1.00  0.00     0.069 A 
HETATM    5  C   UNL     1      39.283 -12.348   6.674  1.00  0.00     0.038 A 
HETATM    6  C   UNL     1      39.627 -11.722   7.876  1.00  0.00     0.020 A 
ENDROOT
BRANCH   4   7
HETATM    7  O   UNL     1      39.967 -12.964   4.399  1.00  0.00    -0.342 OA
BRANCH   7   8
HETATM    8  C   UNL     1      39.785 -14.379   4.413  1.00  0.00     0.278 C 
BRANCH   8   9
HETATM    9  C   UNL     1      41.010 -15.107   3.856  1.00  0.00     0.246 C 
HETATM   10  N   UNL     1      40.910 -16.483   3.960  1.00  0.00    -0.325 N 
HETATM   11  H   UNL     1      40.017 -16.823   4.304  1.00  0.00     0.169 HD
HETATM   12  O   UNL     1      41.974 -14.471   3.438  1.00  0.00    -0.271 OA
BRANCH  10  13
HETATM   13  C   UNL     1      41.883 -17.451   3.637  1.00  0.00     0.037 A 
HETATM   14  C   UNL     1      42.724 -18.055   4.578  1.00  0.00     0.066 A 
HETATM   15  C   UNL     1      43.658 -19.020   4.185  1.00  0.00     0.070 A 
HETATM   16  C   UNL     1      43.744 -19.384   2.840  1.00  0.00     0.037 A 
HETATM   17  C   UNL     1      42.914 -18.789   1.894  1.00  0.00     0.005 A 
HETATM   18  C   UNL     1      41.988 -17.824   2.291  1.00  0.00     0.029 A 
BRANCH  15  19
HETATM   19  O   UNL     1      44.531 -19.678   5.009  1.00  0.00    -0.356 OA
HETATM   20  C   UNL     1      45.082 -20.896   4.520  1.00  0.00     0.210 C 
ENDBRANCH  15  19
ENDBRANCH  10  13
ENDBRANCH   8   9
ENDBRANCH   7   8
ENDBRANCH   4   7
BRANCH   1  21
HETATM   21  C   UNL     1      41.219 -10.504   9.334  1.00  0.00     0.270 C 
HETATM   22  N   UNL     1      41.833 -11.327  10.247  1.00  0.00    -0.259 N 
HETATM   23  H   UNL     1      41.902 -12.327  10.131  1.00  0.00     0.191 HD
HETATM   24  O   UNL     1      40.899  -9.338   9.525  1.00  0.00    -0.266 OA
BRANCH  22  25
HETATM   25  N   UNL     1      42.059 -10.884  11.498  1.00  0.00    -0.263 N 
HETATM   26  C   UNL     1      43.269 -10.400  11.911  1.00  0.00     0.030 A 
HETATM   27  C   UNL     1      44.397 -10.122  10.988  1.00  0.00     0.070 C 
HETATM   28  C   UNL     1      43.175 -10.231  13.281  1.00  0.00     0.028 A 
HETATM   29  C   UNL     1      41.885 -10.661  13.682  1.00  0.00     0.028 A 
HETATM   30  C   UNL     1      41.211 -11.088  12.552  1.00  0.00     0.030 A 
HETATM   31  C   UNL     1      39.833 -11.622  12.412  1.00  0.00     0.070 C 
ENDBRANCH  22  25
ENDBRANCH   1  21
TORSDOF 7
ENDMDL
MODEL 8
REMARK VINA RESULT:      -7.6      2.940     10.625
REMARK  7 active torsions:
REMARK  status: ('A' for Active; 'I' for Inactive)
REMARK    1  A    between atoms: N_3  and  N_4 
REMARK       I    between atoms: N_4  and  C_5 
REMARK    2  A    between atoms: C_5  and  C_6 
REMARK    3  A    between atoms: C_9  and  O_10 
REMARK    4  A    between atoms: O_10  and  C_11 
REMARK    5  A    between atoms: C_11  and  C_12 
REMARK       I    between atoms: C_12  and  N_13 
REMARK    6  A    between atoms: N_13  and  C_14 
REMARK    7  A    between atoms: C_16  and  O_17 
ROOT
HETATM    1  C   UNL     1      41.209 -11.259   6.552  1.00  0.00     0.033 A 
HETATM    2  C   UNL     1      41.675 -11.178   5.234  1.00  0.00     0.020 A 
HETATM    3  C   UNL     1      41.003 -11.865   4.218  1.00  0.00     0.038 A 
HETATM    4  C   UNL     1      39.880 -12.645   4.509  1.00  0.00     0.069 A 
HETATM    5  C   UNL     1      39.403 -12.703   5.820  1.00  0.00     0.038 A 
HETATM    6  C   UNL     1      40.063 -12.008   6.837  1.00  0.00     0.020 A 
ENDROOT
BRANCH   4   7
HETATM    7  O   UNL     1      39.310 -13.274   3.435  1.00  0.00    -0.342 OA
BRANCH   7   8
HETATM    8  C   UNL     1      40.191 -13.538   2.344  1.00  0.00     0.278 C 
BRANCH   8   9
HETATM    9  C   UNL     1      40.565 -15.020   2.273  1.00  0.00     0.246 C 
HETATM   10  N   UNL     1      41.892 -15.254   2.587  1.00  0.00    -0.325 N 
HETATM   11  H   UNL     1      42.408 -14.439   2.903  1.00  0.00     0.169 HD
HETATM   12  O   UNL     1      39.741 -15.852   1.902  1.00  0.00    -0.271 OA
BRANCH  10  13
HETATM   13  C   UNL     1      42.596 -16.475   2.532  1.00  0.00     0.037 A 
HETATM   14  C   UNL     1      42.809 -17.303   3.640  1.00  0.00     0.066 A 
HETATM   15  C   UNL     1      43.506 -18.508   3.505  1.00  0.00     0.070 A 
HETATM   16  C   UNL     1      43.987 -18.887   2.251  1.00  0.00     0.037 A 
HETATM   17  C   UNL     1      43.784 -18.071   1.141  1.00  0.00     0.005 A 
HETATM   18  C   UNL     1      43.092 -16.867   1.283  1.00  0.00     0.029 A 
BRANCH  15  19
HETATM   19  O   UNL     1      43.777 -19.398   4.511  1.00  0.00    -0.356 OA
HETATM   20  C   UNL     1      44.925 -20.224   4.346  1.00  0.00     0.210 C 
ENDBRANCH  15  19
ENDBRANCH  10  13
ENDBRANCH   8   9
ENDBRANCH   7   8
ENDBRANCH   4   7
BRANCH   1  21
HETATM   21  C   UNL     1      41.887 -10.548   7.666  1.00  0.00     0.270 C 
HETATM   22  N   UNL     1      42.116 -11.312   8.786  1.00  0.00    -0.259 N 
HETATM   23  H   UNL     1      41.707 -12.223   8.926  1.00  0.00     0.191 HD
HETATM   24  O   UNL     1      42.156  -9.360   7.544  1.00  0.00    -0.266 OA
BRANCH  22  25
HETATM   25  N   UNL     1      42.608 -10.734   9.897  1.00  0.00    -0.263 N 
HETATM   26  C   UNL     1      43.916 -10.849  10.281  1.00  0.00     0.030 A 
HETATM   27  C   UNL     1      44.970 -11.445   9.423  1.00  0.00     0.070 C 
HETATM   28  C   UNL     1      44.001 -10.300  11.548  1.00  0.00     0.028 A 
HETATM   29  C   UNL     1      42.700  -9.884  11.927  1.00  0.00     0.028 A 
HETATM   30  C   UNL     1      41.839 -10.187  10.887  1.00  0.00     0.030 A 
HETATM   31  C   UNL     1      40.378  -9.954  10.765  1.00  0.00     0.070 C 
ENDBRANCH  22  25
ENDBRANCH   1  21
TORSDOF 7
ENDMDL
MODEL 9
REMARK VINA RESULT:      -7.6      5.075      9.662
REMARK  7 active torsions:
REMARK  status: ('A' for Active; 'I' for Inactive)
REMARK    1  A    between atoms: N_3  and  N_4 
REMARK       I    between atoms: N_4  and  C_5 
REMARK    2  A    between atoms: C_5  and  C_6 
REMARK    3  A    between atoms: C_9  and  O_10 
REMARK    4  A    between atoms: O_10  and  C_11 
REMARK    5  A    between atoms: C_11  and  C_12 
REMARK       I    between atoms: C_12  and  N_13 
REMARK    6  A    between atoms: N_13  and  C_14 
REMARK    7  A    between atoms: C_16  and  O_17 
ROOT
HETATM    1  C   UNL     1      41.141 -13.813   1.789  1.00  0.00     0.033 A 
HETATM    2  C   UNL     1      42.312 -13.471   2.476  1.00  0.00     0.020 A 
HETATM    3  C   UNL     1      42.452 -13.821   3.823  1.00  0.00     0.038 A 
HETATM    4  C   UNL     1      41.427 -14.495   4.494  1.00  0.00     0.069 A 
HETATM    5  C   UNL     1      40.272 -14.857   3.798  1.00  0.00     0.038 A 
HETATM    6  C   UNL     1      40.132 -14.522   2.449  1.00  0.00     0.020 A 
ENDROOT
BRANCH   4   7
HETATM    7  O   UNL     1      41.677 -14.780   5.809  1.00  0.00    -0.342 OA
BRANCH   7   8
HETATM    8  C   UNL     1      42.961 -15.339   6.079  1.00  0.00     0.278 C 
BRANCH   8   9
HETATM    9  C   UNL     1      43.011 -16.827   5.722  1.00  0.00     0.246 C 
HETATM   10  N   UNL     1      43.655 -17.069   4.522  1.00  0.00    -0.325 N 
HETATM   11  H   UNL     1      44.078 -16.253   4.090  1.00  0.00     0.169 HD
HETATM   12  O   UNL     1      42.456 -17.656   6.438  1.00  0.00    -0.271 OA
BRANCH  10  13
HETATM   13  C   UNL     1      43.799 -18.298   3.846  1.00  0.00     0.037 A 
HETATM   14  C   UNL     1      44.476 -19.403   4.373  1.00  0.00     0.066 A 
HETATM   15  C   UNL     1      44.567 -20.596   3.649  1.00  0.00     0.070 A 
HETATM   16  C   UNL     1      43.971 -20.682   2.390  1.00  0.00     0.037 A 
HETATM   17  C   UNL     1      43.296 -19.589   1.853  1.00  0.00     0.005 A 
HETATM   18  C   UNL     1      43.212 -18.399   2.578  1.00  0.00     0.029 A 
BRANCH  15  19
HETATM   19  O   UNL     1      45.200 -21.739   4.057  1.00  0.00    -0.356 OA
HETATM   20  C   UNL     1      44.802 -22.280   5.313  1.00  0.00     0.210 C 
ENDBRANCH  15  19
ENDBRANCH  10  13
ENDBRANCH   8   9
ENDBRANCH   7   8
ENDBRANCH   4   7
BRANCH   1  21
HETATM   21  C   UNL     1      40.943 -13.464   0.358  1.00  0.00     0.270 C 
HETATM   22  N   UNL     1      41.979 -13.817  -0.472  1.00  0.00    -0.259 N 
HETATM   23  H   UNL     1      42.879 -14.124  -0.135  1.00  0.00     0.191 HD
HETATM   24  O   UNL     1      39.927 -12.869   0.022  1.00  0.00    -0.266 OA
BRANCH  22  25
HETATM   25  N   UNL     1      41.958 -13.434  -1.763  1.00  0.00    -0.263 N 
HETATM   26  C   UNL     1      42.373 -12.201  -2.182  1.00  0.00     0.030 A 
HETATM   27  C   UNL     1      43.074 -11.232  -1.304  1.00  0.00     0.070 C 
HETATM   28  C   UNL     1      42.024 -12.104  -3.518  1.00  0.00     0.028 A 
HETATM   29  C   UNL     1      41.356 -13.301  -3.878  1.00  0.00     0.028 A 
HETATM   30  C   UNL     1      41.305 -14.111  -2.757  1.00  0.00     0.030 A 
HETATM   31  C   UNL     1      40.728 -15.469  -2.591  1.00  0.00     0.070 C 
ENDBRANCH  22  25
ENDBRANCH   1  21
TORSDOF 7
ENDMDL
MODEL 10
REMARK VINA RESULT:      -7.5      5.427      9.718
REMARK  7 active torsions:
REMARK  status: ('A' for Active; 'I' for Inactive)
REMARK    1  A    between atoms: N_3  and  N_4 
REMARK       I    between atoms: N_4  and  C_5 
REMARK    2  A    between atoms: C_5  and  C_6 
REMARK    3  A    between atoms: C_9  and  O_10 
REMARK    4  A    between atoms: O_10  and  C_11 
REMARK    5  A    between atoms: C_11  and  C_12 
REMARK       I    between atoms: C_12  and  N_13 
REMARK    6  A    between atoms: N_13  and  C_14 
REMARK    7  A    between atoms: C_16  and  O_17 
ROOT
HETATM    1  C   UNL     1      41.059 -13.955   1.818  1.00  0.00     0.033 A 
HETATM    2  C   UNL     1      42.411 -14.215   2.074  1.00  0.00     0.020 A 
HETATM    3  C   UNL     1      42.812 -14.593   3.359  1.00  0.00     0.038 A 
HETATM    4  C   UNL     1      41.879 -14.699   4.394  1.00  0.00     0.069 A 
HETATM    5  C   UNL     1      40.528 -14.464   4.129  1.00  0.00     0.038 A 
HETATM    6  C   UNL     1      40.119 -14.098   2.844  1.00  0.00     0.020 A 
ENDROOT
BRANCH   4   7
HETATM    7  O   UNL     1      42.391 -15.073   5.608  1.00  0.00    -0.342 OA
BRANCH   7   8
HETATM    8  C   UNL     1      41.634 -16.055   6.313  1.00  0.00     0.278 C 
BRANCH   8   9
HETATM    9  C   UNL     1      41.834 -17.451   5.718  1.00  0.00     0.246 C 
HETATM   10  N   UNL     1      43.106 -17.950   5.937  1.00  0.00    -0.325 N 
HETATM   11  H   UNL     1      43.697 -17.373   6.528  1.00  0.00     0.169 HD
HETATM   12  O   UNL     1      40.939 -17.983   5.068  1.00  0.00    -0.271 OA
BRANCH  10  13
HETATM   13  C   UNL     1      43.663 -19.151   5.453  1.00  0.00     0.037 A 
HETATM   14  C   UNL     1      44.034 -19.358   4.120  1.00  0.00     0.066 A 
HETATM   15  C   UNL     1      44.594 -20.574   3.716  1.00  0.00     0.070 A 
HETATM   16  C   UNL     1      44.786 -21.588   4.656  1.00  0.00     0.037 A 
HETATM   17  C   UNL     1      44.418 -21.396   5.985  1.00  0.00     0.005 A 
HETATM   18  C   UNL     1      43.856 -20.182   6.382  1.00  0.00     0.029 A 
BRANCH  15  19
HETATM   19  O   UNL     1      44.995 -20.893   2.446  1.00  0.00    -0.356 OA
HETATM   20  C   UNL     1      44.229 -21.877   1.758  1.00  0.00     0.210 C 
ENDBRANCH  15  19
ENDBRANCH  10  13
ENDBRANCH   8   9
ENDBRANCH   7   8
ENDBRANCH   4   7
BRANCH   1  21
HETATM   21  C   UNL     1      40.582 -13.549   0.471  1.00  0.00     0.270 C 
HETATM   22  N   UNL     1      39.621 -14.367  -0.073  1.00  0.00    -0.259 N 
HETATM   23  H   UNL     1      39.377 -15.267   0.312  1.00  0.00     0.191 HD
HETATM   24  O   UNL     1      41.081 -12.573  -0.072  1.00  0.00    -0.266 OA
BRANCH  22  25
HETATM   25  N   UNL     1      39.212 -14.163  -1.339  1.00  0.00    -0.263 N 
HETATM   26  C   UNL     1      39.853 -14.693  -2.425  1.00  0.00     0.030 A 
HETATM   27  C   UNL     1      40.935 -15.703  -2.323  1.00  0.00     0.070 C 
HETATM   28  C   UNL     1      39.275 -14.115  -3.541  1.00  0.00     0.028 A 
HETATM   29  C   UNL     1      38.292 -13.196  -3.092  1.00  0.00     0.028 A 
HETATM   30  C   UNL     1      38.286 -13.226  -1.709  1.00  0.00     0.030 A 
HETATM   31  C   UNL     1      37.446 -12.470  -0.746  1.00  0.00     0.070 C 
ENDBRANCH  22  25
ENDBRANCH   1  21
TORSDOF 7
ENDMDL
