MODEL 1
REMARK VINA RESULT:      -9.8      0.000      0.000
REMARK  7 active torsions:
REMARK  status: ('A' for Active; 'I' for Inactive)
REMARK    1  A    between atoms: N_6  and  C_7 
REMARK    2  A    between atoms: C_9  and  N_10 
REMARK    3  A    between atoms: N_10  and  N_11 
REMARK    4  A    between atoms: C_12  and  C_13 
REMARK    5  A    between atoms: C_24  and  N_25 
REMARK    6  A    between atoms: N_25  and  C_26 
REMARK    7  A    between atoms: C_29  and  N_30 
ROOT
HETATM    1  C   UNL     1      43.328 -14.891   5.245  1.00  0.00     0.756 A 
HETATM    2  N   UNL     1      43.055 -16.038   5.835  1.00  0.00     0.133 NA
HETATM    3  C   UNL     1      43.540 -16.222   7.061  1.00  0.00     0.774 A 
HETATM    4  N   UNL     1      44.230 -15.302   7.721  1.00  0.00     0.133 NA
HETATM    5  C   UNL     1      44.386 -14.144   7.098  1.00  0.00     0.758 A 
HETATM    6  N   UNL     1      43.929 -13.892   5.873  1.00  0.00     0.131 NA
ENDROOT
BRANCH   3   7
HETATM    7  N   UNL     1      43.309 -17.433   7.735  1.00  0.00    -0.105 N 
HETATM    8  H   UNL     1      43.836 -17.425   8.606  1.00  0.00     0.208 HD
BRANCH   7   9
HETATM    9  N   UNL     1      43.248 -18.574   6.988  1.00  0.00    -0.171 NA
HETATM   10  C   UNL     1      44.378 -18.969   6.496  1.00  0.00     0.153 C 
BRANCH  10  11
HETATM   11  C   UNL     1      44.425 -20.147   5.656  1.00  0.00     0.011 A 
HETATM   12  C   UNL     1      44.263 -20.265   4.236  1.00  0.00     0.004 A 
HETATM   13  C   UNL     1      44.408 -21.615   3.909  1.00  0.00     0.043 A 
HETATM   14  C   UNL     1      44.018 -19.350   3.187  1.00  0.00     0.014 A 
HETATM   15  C   UNL     1      44.316 -22.094   2.597  1.00  0.00     0.030 A 
HETATM   16  N   UNL     1      44.650 -22.293   5.081  1.00  0.00    -0.364 N 
HETATM   17  C   UNL     1      44.074 -21.166   1.581  1.00  0.00     0.002 A 
HETATM   18  C   UNL     1      43.928 -19.811   1.868  1.00  0.00     0.001 A 
HETATM   19  H   UNL     1      44.803 -23.291   5.141  1.00  0.00     0.165 HD
HETATM   20  C   UNL     1      44.669 -21.422   6.137  1.00  0.00     0.102 A 
ENDBRANCH  10  11
ENDBRANCH   7   9
ENDBRANCH   3   7
BRANCH   1  21
HETATM   21  N   UNL     1      42.941 -14.723   3.914  1.00  0.00    -0.210 N 
HETATM   22  C   UNL     1      43.053 -13.365   3.370  1.00  0.00     0.169 C 
HETATM   23  C   UNL     1      41.826 -12.520   3.769  1.00  0.00     0.254 C 
HETATM   24  N   UNL     1      40.531 -13.239   3.361  1.00  0.00    -0.072 N 
HETATM   25  C   UNL     1      39.314 -12.438   3.707  1.00  0.00     0.269 C 
HETATM   26  H   UNL     1      40.556 -13.338   2.339  1.00  0.00     0.279 HD
HETATM   27  C   UNL     1      40.469 -14.665   3.939  1.00  0.00     0.254 C 
HETATM   28  C   UNL     1      41.728 -15.455   3.521  1.00  0.00     0.169 C 
ENDBRANCH   1  21
BRANCH   5  29
HETATM   29  N   UNL     1      45.111 -13.176   7.792  1.00  0.00    -0.187 N 
HETATM   30  H   UNL     1      46.105 -13.322   7.669  1.00  0.00     0.184 HD
BRANCH  29  31
HETATM   31  C   UNL     1      44.740 -12.274   8.796  1.00  0.00     0.049 A 
HETATM   32  C   UNL     1      45.524 -12.039   9.933  1.00  0.00     0.032 A 
HETATM   33  C   UNL     1      45.109 -11.152  10.931  1.00  0.00     0.038 A 
HETATM   34  C   UNL     1      43.874 -10.506  10.807  1.00  0.00     0.103 A 
HETATM   35  C   UNL     1      43.063 -10.741   9.693  1.00  0.00     0.038 A 
HETATM   36  C   UNL     1      43.501 -11.623   8.699  1.00  0.00     0.032 A 
BRANCH  34  37
HETATM   37  N   UNL     1      43.433  -9.579  11.856  1.00  0.00    -0.116 N 
HETATM   38  O   UNL     1      43.705  -9.874  13.029  1.00  0.00    -0.532 OA
HETATM   39  O   UNL     1      42.815  -8.565  11.508  1.00  0.00    -0.532 OA
ENDBRANCH  34  37
ENDBRANCH  29  31
ENDBRANCH   5  29
TORSDOF 7
ENDMDL
MODEL 2
REMARK VINA RESULT:      -9.4      6.402      9.756
REMARK  7 active torsions:
REMARK  status: ('A' for Active; 'I' for Inactive)
REMARK    1  A    between atoms: N_6  and  C_7 
REMARK    2  A    between atoms: C_9  and  N_10 
REMARK    3  A    between atoms: N_10  and  N_11 
REMARK    4  A    between atoms: C_12  and  C_13 
REMARK    5  A    between atoms: C_24  and  N_25 
REMARK    6  A    between atoms: N_25  and  C_26 
REMARK    7  A    between atoms: C_29  and  N_30 
ROOT
HETATM    1  C   UNL     1      40.026 -14.539   1.192  1.00  0.00     0.756 A 
HETATM    2  N   UNL     1      40.987 -15.437   1.288  1.00  0.00     0.133 NA
HETATM    3  C   UNL     1      41.560 -15.836   0.154  1.00  0.00     0.774 A 
HETATM    4  N   UNL     1      41.248 -15.344  -1.037  1.00  0.00     0.133 NA
HETATM    5  C   UNL     1      40.338 -14.382  -1.041  1.00  0.00     0.758 A 
HETATM    6  N   UNL     1      39.724 -13.936   0.053  1.00  0.00     0.131 NA
ENDROOT
BRANCH   3   7
HETATM    7  N   UNL     1      42.572 -16.811   0.182  1.00  0.00    -0.105 N 
HETATM    8  H   UNL     1      42.648 -17.226  -0.745  1.00  0.00     0.208 HD
BRANCH   7   9
HETATM    9  N   UNL     1      42.660 -17.603   1.290  1.00  0.00    -0.171 NA
HETATM   10  C   UNL     1      43.822 -17.624   1.860  1.00  0.00     0.153 C 
BRANCH  10  11
HETATM   11  C   UNL     1      44.038 -18.460   3.022  1.00  0.00     0.011 A 
HETATM   12  C   UNL     1      44.223 -19.880   3.105  1.00  0.00     0.004 A 
HETATM   13  C   UNL     1      44.405 -20.199   4.453  1.00  0.00     0.043 A 
HETATM   14  C   UNL     1      44.266 -20.931   2.162  1.00  0.00     0.014 A 
HETATM   15  C   UNL     1      44.622 -21.508   4.902  1.00  0.00     0.030 A 
HETATM   16  N   UNL     1      44.336 -19.023   5.162  1.00  0.00    -0.364 N 
HETATM   17  C   UNL     1      44.660 -22.526   3.946  1.00  0.00     0.002 A 
HETATM   18  C   UNL     1      44.486 -22.245   2.593  1.00  0.00     0.001 A 
HETATM   19  H   UNL     1      44.442 -18.955   6.166  1.00  0.00     0.165 HD
HETATM   20  C   UNL     1      44.122 -17.970   4.313  1.00  0.00     0.102 A 
ENDBRANCH  10  11
ENDBRANCH   7   9
ENDBRANCH   3   7
BRANCH   1  21
HETATM   21  N   UNL     1      39.322 -14.198   2.350  1.00  0.00    -0.210 N 
HETATM   22  C   UNL     1      38.744 -12.851   2.386  1.00  0.00     0.169 C 
HETATM   23  C   UNL     1      39.810 -11.817   2.804  1.00  0.00     0.254 C 
HETATM   24  N   UNL     1      40.468 -12.238   4.127  1.00  0.00    -0.072 N 
HETATM   25  C   UNL     1      41.491 -11.245   4.583  1.00  0.00     0.269 C 
HETATM   26  H   UNL     1      39.724 -12.262   4.835  1.00  0.00     0.279 HD
HETATM   27  C   UNL     1      41.042 -13.664   4.044  1.00  0.00     0.254 C 
HETATM   28  C   UNL     1      39.936 -14.650   3.607  1.00  0.00     0.169 C 
ENDBRANCH   1  21
BRANCH   5  29
HETATM   29  N   UNL     1      40.010 -13.864  -2.293  1.00  0.00    -0.187 N 
HETATM   30  H   UNL     1      40.718 -13.211  -2.603  1.00  0.00     0.184 HD
BRANCH  29  31
HETATM   31  C   UNL     1      38.814 -13.867  -3.020  1.00  0.00     0.049 A 
HETATM   32  C   UNL     1      37.986 -12.741  -3.125  1.00  0.00     0.032 A 
HETATM   33  C   UNL     1      36.783 -12.788  -3.835  1.00  0.00     0.038 A 
HETATM   34  C   UNL     1      36.382 -13.988  -4.431  1.00  0.00     0.103 A 
HETATM   35  C   UNL     1      37.178 -15.132  -4.322  1.00  0.00     0.038 A 
HETATM   36  C   UNL     1      38.386 -15.063  -3.617  1.00  0.00     0.032 A 
BRANCH  34  37
HETATM   37  N   UNL     1      35.116 -14.041  -5.173  1.00  0.00    -0.116 N 
HETATM   38  O   UNL     1      34.161 -13.394  -4.718  1.00  0.00    -0.532 OA
HETATM   39  O   UNL     1      35.077 -14.731  -6.199  1.00  0.00    -0.532 OA
ENDBRANCH  34  37
ENDBRANCH  29  31
ENDBRANCH   5  29
TORSDOF 7
ENDMDL
MODEL 3
REMARK VINA RESULT:      -9.4      3.993      6.007
REMARK  7 active torsions:
REMARK  status: ('A' for Active; 'I' for Inactive)
REMARK    1  A    between atoms: N_6  and  C_7 
REMARK    2  A    between atoms: C_9  and  N_10 
REMARK    3  A    between atoms: N_10  and  N_11 
REMARK    4  A    between atoms: C_12  and  C_13 
REMARK    5  A    between atoms: C_24  and  N_25 
REMARK    6  A    between atoms: N_25  and  C_26 
REMARK    7  A    between atoms: C_29  and  N_30 
ROOT
HETATM    1  C   UNL     1      40.631 -14.414  -0.450  1.00  0.00     0.756 A 
HETATM    2  N   UNL     1      41.585 -15.317  -0.563  1.00  0.00     0.133 NA
HETATM    3  C   UNL     1      41.858 -16.049   0.515  1.00  0.00     0.774 A 
HETATM    4  N   UNL     1      41.193 -15.948   1.658  1.00  0.00     0.133 NA
HETATM    5  C   UNL     1      40.191 -15.083   1.664  1.00  0.00     0.758 A 
HETATM    6  N   UNL     1      39.864 -14.318   0.624  1.00  0.00     0.131 NA
ENDROOT
BRANCH   3   7
HETATM    7  N   UNL     1      42.882 -17.012   0.471  1.00  0.00    -0.105 N 
HETATM    8  H   UNL     1      42.965 -17.353  -0.484  1.00  0.00     0.208 HD
BRANCH   7   9
HETATM    9  N   UNL     1      42.977 -17.885   1.516  1.00  0.00    -0.171 NA
HETATM   10  C   UNL     1      43.958 -17.663   2.331  1.00  0.00     0.153 C 
BRANCH  10  11
HETATM   11  C   UNL     1      44.176 -18.550   3.454  1.00  0.00     0.011 A 
HETATM   12  C   UNL     1      44.330 -19.976   3.476  1.00  0.00     0.004 A 
HETATM   13  C   UNL     1      44.529 -20.353   4.806  1.00  0.00     0.043 A 
HETATM   14  C   UNL     1      44.332 -20.988   2.491  1.00  0.00     0.014 A 
HETATM   15  C   UNL     1      44.723 -21.683   5.198  1.00  0.00     0.030 A 
HETATM   16  N   UNL     1      44.499 -19.206   5.563  1.00  0.00    -0.364 N 
HETATM   17  C   UNL     1      44.721 -22.662   4.201  1.00  0.00     0.002 A 
HETATM   18  C   UNL     1      44.530 -22.323   2.865  1.00  0.00     0.001 A 
HETATM   19  H   UNL     1      44.624 -19.181   6.567  1.00  0.00     0.165 HD
HETATM   20  C   UNL     1      44.294 -18.115   4.762  1.00  0.00     0.102 A 
ENDBRANCH  10  11
ENDBRANCH   7   9
ENDBRANCH   3   7
BRANCH   1  21
HETATM   21  N   UNL     1      40.412 -13.547  -1.523  1.00  0.00    -0.210 N 
HETATM   22  C   UNL     1      39.165 -12.775  -1.491  1.00  0.00     0.169 C 
HETATM   23  C   UNL     1      37.991 -13.625  -2.019  1.00  0.00     0.254 C 
HETATM   24  N   UNL     1      38.327 -14.191  -3.407  1.00  0.00    -0.072 N 
HETATM   25  C   UNL     1      37.200 -15.001  -3.968  1.00  0.00     0.269 C 
HETATM   26  H   UNL     1      38.469 -13.386  -4.030  1.00  0.00     0.279 HD
HETATM   27  C   UNL     1      39.652 -14.975  -3.392  1.00  0.00     0.254 C 
HETATM   28  C   UNL     1      40.784 -14.080  -2.841  1.00  0.00     0.169 C 
ENDBRANCH   1  21
BRANCH   5  29
HETATM   29  N   UNL     1      39.491 -14.976   2.865  1.00  0.00    -0.187 N 
HETATM   30  H   UNL     1      38.694 -15.600   2.867  1.00  0.00     0.184 HD
BRANCH  29  31
HETATM   31  C   UNL     1      39.524 -14.015   3.882  1.00  0.00     0.049 A 
HETATM   32  C   UNL     1      39.849 -14.325   5.209  1.00  0.00     0.032 A 
HETATM   33  C   UNL     1      39.845 -13.344   6.206  1.00  0.00     0.038 A 
HETATM   34  C   UNL     1      39.482 -12.033   5.880  1.00  0.00     0.103 A 
HETATM   35  C   UNL     1      39.131 -11.703   4.567  1.00  0.00     0.038 A 
HETATM   36  C   UNL     1      39.153 -12.696   3.580  1.00  0.00     0.032 A 
BRANCH  34  37
HETATM   37  N   UNL     1      39.470 -11.003   6.925  1.00  0.00    -0.116 N 
HETATM   38  O   UNL     1      39.983 -11.293   8.016  1.00  0.00    -0.532 OA
HETATM   39  O   UNL     1      38.947  -9.914   6.658  1.00  0.00    -0.532 OA
ENDBRANCH  34  37
ENDBRANCH  29  31
ENDBRANCH   5  29
TORSDOF 7
ENDMDL
MODEL 4
REMARK VINA RESULT:      -9.4      4.047      5.848
REMARK  7 active torsions:
REMARK  status: ('A' for Active; 'I' for Inactive)
REMARK    1  A    between atoms: N_6  and  C_7 
REMARK    2  A    between atoms: C_9  and  N_10 
REMARK    3  A    between atoms: N_10  and  N_11 
REMARK    4  A    between atoms: C_12  and  C_13 
REMARK    5  A    between atoms: C_24  and  N_25 
REMARK    6  A    between atoms: N_25  and  C_26 
REMARK    7  A    between atoms: C_29  and  N_30 
ROOT
HETATM    1  C   UNL     1      41.726 -13.609  -1.045  1.00  0.00     0.756 A 
HETATM    2  N   UNL     1      41.385 -14.879  -0.948  1.00  0.00     0.133 NA
HETATM    3  C   UNL     1      41.358 -15.409   0.272  1.00  0.00     0.774 A 
HETATM    4  N   UNL     1      41.606 -14.719   1.377  1.00  0.00     0.133 NA
HETATM    5  C   UNL     1      41.852 -13.429   1.205  1.00  0.00     0.758 A 
HETATM    6  N   UNL     1      41.896 -12.834   0.015  1.00  0.00     0.131 NA
ENDROOT
BRANCH   3   7
HETATM    7  N   UNL     1      41.029 -16.765   0.444  1.00  0.00    -0.105 N 
HETATM    8  H   UNL     1      40.053 -16.897   0.186  1.00  0.00     0.208 HD
BRANCH   7   9
HETATM    9  N   UNL     1      41.537 -17.408   1.536  1.00  0.00    -0.171 NA
HETATM   10  C   UNL     1      42.783 -17.744   1.446  1.00  0.00     0.153 C 
BRANCH  10  11
HETATM   11  C   UNL     1      43.415 -18.464   2.531  1.00  0.00     0.011 A 
HETATM   12  C   UNL     1      43.766 -19.852   2.626  1.00  0.00     0.004 A 
HETATM   13  C   UNL     1      44.363 -20.047   3.873  1.00  0.00     0.043 A 
HETATM   14  C   UNL     1      43.645 -20.966   1.765  1.00  0.00     0.014 A 
HETATM   15  C   UNL     1      44.839 -21.293   4.302  1.00  0.00     0.030 A 
HETATM   16  N   UNL     1      44.379 -18.830   4.512  1.00  0.00    -0.364 N 
HETATM   17  C   UNL     1      44.705 -22.375   3.428  1.00  0.00     0.002 A 
HETATM   18  C   UNL     1      44.119 -22.217   2.176  1.00  0.00     0.001 A 
HETATM   19  H   UNL     1      44.763 -18.674   5.435  1.00  0.00     0.165 HD
HETATM   20  C   UNL     1      43.817 -17.869   3.714  1.00  0.00     0.102 A 
ENDBRANCH  10  11
ENDBRANCH   7   9
ENDBRANCH   3   7
BRANCH   1  21
HETATM   21  N   UNL     1      41.885 -13.062  -2.320  1.00  0.00    -0.210 N 
HETATM   22  C   UNL     1      41.751 -11.606  -2.425  1.00  0.00     0.169 C 
HETATM   23  C   UNL     1      40.264 -11.205  -2.507  1.00  0.00     0.254 C 
HETATM   24  N   UNL     1      39.570 -11.968  -3.646  1.00  0.00    -0.072 N 
HETATM   25  C   UNL     1      38.129 -11.586  -3.777  1.00  0.00     0.269 C 
HETATM   26  H   UNL     1      40.043 -11.696  -4.517  1.00  0.00     0.279 HD
HETATM   27  C   UNL     1      39.756 -13.490  -3.502  1.00  0.00     0.254 C 
HETATM   28  C   UNL     1      41.260 -13.828  -3.408  1.00  0.00     0.169 C 
ENDBRANCH   1  21
BRANCH   5  29
HETATM   29  N   UNL     1      42.112 -12.703   2.366  1.00  0.00    -0.187 N 
HETATM   30  H   UNL     1      42.149 -11.712   2.163  1.00  0.00     0.184 HD
BRANCH  29  31
HETATM   31  C   UNL     1      42.586 -13.092   3.624  1.00  0.00     0.049 A 
HETATM   32  C   UNL     1      42.034 -12.622   4.822  1.00  0.00     0.032 A 
HETATM   33  C   UNL     1      42.553 -13.010   6.062  1.00  0.00     0.038 A 
HETATM   34  C   UNL     1      43.661 -13.862   6.109  1.00  0.00     0.103 A 
HETATM   35  C   UNL     1      44.244 -14.327   4.926  1.00  0.00     0.038 A 
HETATM   36  C   UNL     1      43.704 -13.938   3.695  1.00  0.00     0.032 A 
BRANCH  34  37
HETATM   37  N   UNL     1      44.210 -14.266   7.409  1.00  0.00    -0.116 N 
HETATM   38  O   UNL     1      44.728 -13.383   8.108  1.00  0.00    -0.532 OA
HETATM   39  O   UNL     1      44.129 -15.459   7.724  1.00  0.00    -0.532 OA
ENDBRANCH  34  37
ENDBRANCH  29  31
ENDBRANCH   5  29
TORSDOF 7
ENDMDL
MODEL 5
REMARK VINA RESULT:      -9.3      4.254      9.934
REMARK  7 active torsions:
REMARK  status: ('A' for Active; 'I' for Inactive)
REMARK    1  A    between atoms: N_6  and  C_7 
REMARK    2  A    between atoms: C_9  and  N_10 
REMARK    3  A    between atoms: N_10  and  N_11 
REMARK    4  A    between atoms: C_12  and  C_13 
REMARK    5  A    between atoms: C_24  and  N_25 
REMARK    6  A    between atoms: N_25  and  C_26 
REMARK    7  A    between atoms: C_29  and  N_30 
ROOT
HETATM    1  C   UNL     1      42.647 -14.526   5.419  1.00  0.00     0.756 A 
HETATM    2  N   UNL     1      43.261 -13.643   6.182  1.00  0.00     0.133 NA
HETATM    3  C   UNL     1      44.181 -14.106   7.026  1.00  0.00     0.774 A 
HETATM    4  N   UNL     1      44.535 -15.382   7.097  1.00  0.00     0.133 NA
HETATM    5  C   UNL     1      43.938 -16.192   6.236  1.00  0.00     0.758 A 
HETATM    6  N   UNL     1      43.010 -15.798   5.366  1.00  0.00     0.131 NA
ENDROOT
BRANCH   3   7
HETATM    7  N   UNL     1      44.854 -13.222   7.888  1.00  0.00    -0.105 N 
HETATM    8  H   UNL     1      45.321 -13.767   8.610  1.00  0.00     0.208 HD
BRANCH   7   9
HETATM    9  N   UNL     1      44.226 -12.055   8.215  1.00  0.00    -0.171 NA
HETATM   10  C   UNL     1      43.738 -12.011   9.413  1.00  0.00     0.153 C 
BRANCH  10  11
HETATM   11  C   UNL     1      43.019 -10.834   9.854  1.00  0.00     0.011 A 
HETATM   12  C   UNL     1      43.041 -10.172  11.125  1.00  0.00     0.004 A 
HETATM   13  C   UNL     1      42.179  -9.076  11.041  1.00  0.00     0.043 A 
HETATM   14  C   UNL     1      43.722 -10.390  12.344  1.00  0.00     0.014 A 
HETATM   15  C   UNL     1      41.962  -8.195  12.108  1.00  0.00     0.030 A 
HETATM   16  N   UNL     1      41.654  -9.069   9.770  1.00  0.00    -0.364 N 
HETATM   17  C   UNL     1      42.650  -8.436  13.300  1.00  0.00     0.002 A 
HETATM   18  C   UNL     1      43.520  -9.516  13.419  1.00  0.00     0.001 A 
HETATM   19  H   UNL     1      41.001  -8.377   9.426  1.00  0.00     0.165 HD
HETATM   20  C   UNL     1      42.155 -10.117   9.045  1.00  0.00     0.102 A 
ENDBRANCH  10  11
ENDBRANCH   7   9
ENDBRANCH   3   7
BRANCH   1  21
HETATM   21  N   UNL     1      41.591 -14.086   4.618  1.00  0.00    -0.210 N 
HETATM   22  C   UNL     1      40.626 -15.107   4.195  1.00  0.00     0.169 C 
HETATM   23  C   UNL     1      41.156 -15.875   2.967  1.00  0.00     0.254 C 
HETATM   24  N   UNL     1      41.538 -14.892   1.850  1.00  0.00    -0.072 N 
HETATM   25  C   UNL     1      42.031 -15.601   0.627  1.00  0.00     0.269 C 
HETATM   26  H   UNL     1      40.680 -14.390   1.590  1.00  0.00     0.279 HD
HETATM   27  C   UNL     1      42.536 -13.831   2.347  1.00  0.00     0.254 C 
HETATM   28  C   UNL     1      41.959 -13.108   3.584  1.00  0.00     0.169 C 
ENDBRANCH   1  21
BRANCH   5  29
HETATM   29  N   UNL     1      44.310 -17.534   6.309  1.00  0.00    -0.187 N 
HETATM   30  H   UNL     1      44.827 -17.712   7.161  1.00  0.00     0.184 HD
BRANCH  29  31
HETATM   31  C   UNL     1      44.345 -18.546   5.344  1.00  0.00     0.049 A 
HETATM   32  C   UNL     1      44.012 -18.327   4.001  1.00  0.00     0.032 A 
HETATM   33  C   UNL     1      44.030 -19.369   3.068  1.00  0.00     0.038 A 
HETATM   34  C   UNL     1      44.360 -20.662   3.488  1.00  0.00     0.103 A 
HETATM   35  C   UNL     1      44.675 -20.911   4.827  1.00  0.00     0.038 A 
HETATM   36  C   UNL     1      44.663 -19.853   5.743  1.00  0.00     0.032 A 
BRANCH  34  37
HETATM   37  N   UNL     1      44.374 -21.759   2.512  1.00  0.00    -0.116 N 
HETATM   38  O   UNL     1      44.711 -22.880   2.920  1.00  0.00    -0.532 OA
HETATM   39  O   UNL     1      44.056 -21.498   1.345  1.00  0.00    -0.532 OA
ENDBRANCH  34  37
ENDBRANCH  29  31
ENDBRANCH   5  29
TORSDOF 7
ENDMDL
MODEL 6
REMARK VINA RESULT:      -9.2      4.255      9.509
REMARK  7 active torsions:
REMARK  status: ('A' for Active; 'I' for Inactive)
REMARK    1  A    between atoms: N_6  and  C_7 
REMARK    2  A    between atoms: C_9  and  N_10 
REMARK    3  A    between atoms: N_10  and  N_11 
REMARK    4  A    between atoms: C_12  and  C_13 
REMARK    5  A    between atoms: C_24  and  N_25 
REMARK    6  A    between atoms: N_25  and  C_26 
REMARK    7  A    between atoms: C_29  and  N_30 
ROOT
HETATM    1  C   UNL     1      42.854 -14.637   5.054  1.00  0.00     0.756 A 
HETATM    2  N   UNL     1      43.662 -13.832   5.715  1.00  0.00     0.133 NA
HETATM    3  C   UNL     1      44.480 -14.390   6.604  1.00  0.00     0.774 A 
HETATM    4  N   UNL     1      44.553 -15.697   6.815  1.00  0.00     0.133 NA
HETATM    5  C   UNL     1      43.775 -16.446   6.049  1.00  0.00     0.758 A 
HETATM    6  N   UNL     1      42.932 -15.956   5.142  1.00  0.00     0.131 NA
ENDROOT
BRANCH   3   7
HETATM    7  N   UNL     1      45.349 -13.586   7.363  1.00  0.00    -0.105 N 
HETATM    8  H   UNL     1      46.303 -13.906   7.210  1.00  0.00     0.208 HD
BRANCH   7   9
HETATM    9  N   UNL     1      44.946 -13.223   8.616  1.00  0.00    -0.171 NA
HETATM   10  C   UNL     1      44.285 -12.113   8.681  1.00  0.00     0.153 C 
BRANCH  10  11
HETATM   11  C   UNL     1      43.841 -11.614   9.965  1.00  0.00     0.011 A 
HETATM   12  C   UNL     1      42.879 -10.593  10.267  1.00  0.00     0.004 A 
HETATM   13  C   UNL     1      42.800 -10.492  11.658  1.00  0.00     0.043 A 
HETATM   14  C   UNL     1      42.054  -9.748   9.491  1.00  0.00     0.014 A 
HETATM   15  C   UNL     1      41.946  -9.592  12.307  1.00  0.00     0.030 A 
HETATM   16  N   UNL     1      43.675 -11.414  12.183  1.00  0.00    -0.364 N 
HETATM   17  C   UNL     1      41.142  -8.770  11.514  1.00  0.00     0.002 A 
HETATM   18  C   UNL     1      41.192  -8.846  10.125  1.00  0.00     0.001 A 
HETATM   19  H   UNL     1      43.819 -11.564  13.173  1.00  0.00     0.165 HD
HETATM   20  C   UNL     1      44.302 -12.098  11.177  1.00  0.00     0.102 A 
ENDBRANCH  10  11
ENDBRANCH   7   9
ENDBRANCH   3   7
BRANCH   1  21
HETATM   21  N   UNL     1      41.898 -14.068   4.210  1.00  0.00    -0.210 N 
HETATM   22  C   UNL     1      42.118 -12.669   3.828  1.00  0.00     0.169 C 
HETATM   23  C   UNL     1      41.615 -11.721   4.936  1.00  0.00     0.254 C 
HETATM   24  N   UNL     1      40.153 -12.038   5.283  1.00  0.00    -0.072 N 
HETATM   25  C   UNL     1      39.616 -11.120   6.337  1.00  0.00     0.269 C 
HETATM   26  H   UNL     1      39.604 -11.882   4.428  1.00  0.00     0.279 HD
HETATM   27  C   UNL     1      39.969 -13.520   5.658  1.00  0.00     0.254 C 
HETATM   28  C   UNL     1      40.504 -14.419   4.521  1.00  0.00     0.169 C 
ENDBRANCH   1  21
BRANCH   5  29
HETATM   29  N   UNL     1      43.851 -17.821   6.269  1.00  0.00    -0.187 N 
HETATM   30  H   UNL     1      44.038 -18.013   7.245  1.00  0.00     0.184 HD
BRANCH  29  31
HETATM   31  C   UNL     1      43.994 -18.900   5.390  1.00  0.00     0.049 A 
HETATM   32  C   UNL     1      44.378 -20.179   5.814  1.00  0.00     0.032 A 
HETATM   33  C   UNL     1      44.539 -21.228   4.903  1.00  0.00     0.038 A 
HETATM   34  C   UNL     1      44.339 -20.992   3.539  1.00  0.00     0.103 A 
HETATM   35  C   UNL     1      43.976 -19.719   3.088  1.00  0.00     0.038 A 
HETATM   36  C   UNL     1      43.809 -18.684   4.016  1.00  0.00     0.032 A 
BRANCH  34  37
HETATM   37  N   UNL     1      44.512 -22.090   2.580  1.00  0.00    -0.116 N 
HETATM   38  O   UNL     1      44.939 -23.168   3.019  1.00  0.00    -0.532 OA
HETATM   39  O   UNL     1      44.229 -21.872   1.395  1.00  0.00    -0.532 OA
ENDBRANCH  34  37
ENDBRANCH  29  31
ENDBRANCH   5  29
TORSDOF 7
ENDMDL
MODEL 7
REMARK VINA RESULT:      -9.1      5.339      9.838
REMARK  7 active torsions:
REMARK  status: ('A' for Active; 'I' for Inactive)
REMARK    1  A    between atoms: N_6  and  C_7 
REMARK    2  A    between atoms: C_9  and  N_10 
REMARK    3  A    between atoms: N_10  and  N_11 
REMARK    4  A    between atoms: C_12  and  C_13 
REMARK    5  A    between atoms: C_24  and  N_25 
REMARK    6  A    between atoms: N_25  and  C_26 
REMARK    7  A    between atoms: C_29  and  N_30 
ROOT
HETATM    1  C   UNL     1      40.898 -15.189   3.554  1.00  0.00     0.756 A 
HETATM    2  N   UNL     1      40.066 -14.872   2.581  1.00  0.00     0.133 NA
HETATM    3  C   UNL     1      40.363 -15.311   1.360  1.00  0.00     0.774 A 
HETATM    4  N   UNL     1      41.410 -16.079   1.092  1.00  0.00     0.133 NA
HETATM    5  C   UNL     1      42.147 -16.430   2.136  1.00  0.00     0.758 A 
HETATM    6  N   UNL     1      41.909 -16.026   3.382  1.00  0.00     0.131 NA
ENDROOT
BRANCH   3   7
HETATM    7  N   UNL     1      39.532 -14.986   0.274  1.00  0.00    -0.105 N 
HETATM    8  H   UNL     1      39.297 -15.843  -0.222  1.00  0.00     0.208 HD
BRANCH   7   9
HETATM    9  N   UNL     1      39.822 -13.852  -0.429  1.00  0.00    -0.171 NA
HETATM   10  C   UNL     1      40.427 -14.045  -1.557  1.00  0.00     0.153 C 
BRANCH  10  11
HETATM   11  C   UNL     1      40.816 -12.910  -2.368  1.00  0.00     0.011 A 
HETATM   12  C   UNL     1      41.730 -11.845  -2.072  1.00  0.00     0.004 A 
HETATM   13  C   UNL     1      41.767 -11.005  -3.187  1.00  0.00     0.043 A 
HETATM   14  C   UNL     1      42.544 -11.517  -0.965  1.00  0.00     0.014 A 
HETATM   15  C   UNL     1      42.568  -9.858  -3.249  1.00  0.00     0.030 A 
HETATM   16  N   UNL     1      40.913 -11.536  -4.125  1.00  0.00    -0.364 N 
HETATM   17  C   UNL     1      43.363  -9.559  -2.139  1.00  0.00     0.002 A 
HETATM   18  C   UNL     1      43.355 -10.376  -1.012  1.00  0.00     0.001 A 
HETATM   19  H   UNL     1      40.747 -11.134  -5.039  1.00  0.00     0.165 HD
HETATM   20  C   UNL     1      40.340 -12.684  -3.647  1.00  0.00     0.102 A 
ENDBRANCH  10  11
ENDBRANCH   7   9
ENDBRANCH   3   7
BRANCH   1  21
HETATM   21  N   UNL     1      40.679 -14.636   4.817  1.00  0.00    -0.210 N 
HETATM   22  C   UNL     1      41.217 -13.290   5.040  1.00  0.00     0.169 C 
HETATM   23  C   UNL     1      42.716 -13.358   5.397  1.00  0.00     0.254 C 
HETATM   24  N   UNL     1      42.936 -14.310   6.583  1.00  0.00    -0.072 N 
HETATM   25  C   UNL     1      44.377 -14.384   6.980  1.00  0.00     0.269 C 
HETATM   26  H   UNL     1      42.416 -13.919   7.378  1.00  0.00     0.279 HD
HETATM   27  C   UNL     1      42.338 -15.702   6.309  1.00  0.00     0.254 C 
HETATM   28  C   UNL     1      40.844 -15.569   5.942  1.00  0.00     0.169 C 
ENDBRANCH   1  21
BRANCH   5  29
HETATM   29  N   UNL     1      43.247 -17.238   1.855  1.00  0.00    -0.187 N 
HETATM   30  H   UNL     1      43.691 -16.946   0.994  1.00  0.00     0.184 HD
BRANCH  29  31
HETATM   31  C   UNL     1      43.648 -18.478   2.365  1.00  0.00     0.049 A 
HETATM   32  C   UNL     1      43.545 -19.669   1.634  1.00  0.00     0.032 A 
HETATM   33  C   UNL     1      43.929 -20.895   2.186  1.00  0.00     0.038 A 
HETATM   34  C   UNL     1      44.399 -20.941   3.502  1.00  0.00     0.103 A 
HETATM   35  C   UNL     1      44.490 -19.770   4.260  1.00  0.00     0.038 A 
HETATM   36  C   UNL     1      44.113 -18.550   3.687  1.00  0.00     0.032 A 
BRANCH  34  37
HETATM   37  N   UNL     1      44.797 -22.227   4.086  1.00  0.00    -0.116 N 
HETATM   38  O   UNL     1      44.815 -23.213   3.334  1.00  0.00    -0.532 OA
HETATM   39  O   UNL     1      45.084 -22.252   5.289  1.00  0.00    -0.532 OA
ENDBRANCH  34  37
ENDBRANCH  29  31
ENDBRANCH   5  29
TORSDOF 7
ENDMDL
MODEL 8
REMARK VINA RESULT:      -9.1      4.915      8.419
REMARK  7 active torsions:
REMARK  status: ('A' for Active; 'I' for Inactive)
REMARK    1  A    between atoms: N_6  and  C_7 
REMARK    2  A    between atoms: C_9  and  N_10 
REMARK    3  A    between atoms: N_10  and  N_11 
REMARK    4  A    between atoms: C_12  and  C_13 
REMARK    5  A    between atoms: C_24  and  N_25 
REMARK    6  A    between atoms: N_25  and  C_26 
REMARK    7  A    between atoms: C_29  and  N_30 
ROOT
HETATM    1  C   UNL     1      40.910 -13.220  -0.517  1.00  0.00     0.756 A 
HETATM    2  N   UNL     1      41.377 -12.574   0.533  1.00  0.00     0.133 NA
HETATM    3  C   UNL     1      41.991 -13.296   1.467  1.00  0.00     0.774 A 
HETATM    4  N   UNL     1      42.193 -14.603   1.368  1.00  0.00     0.133 NA
HETATM    5  C   UNL     1      41.776 -15.165   0.244  1.00  0.00     0.758 A 
HETATM    6  N   UNL     1      41.154 -14.504  -0.730  1.00  0.00     0.131 NA
ENDROOT
BRANCH   3   7
HETATM    7  N   UNL     1      42.488 -12.673   2.626  1.00  0.00    -0.105 N 
HETATM    8  H   UNL     1      43.330 -12.157   2.380  1.00  0.00     0.208 HD
BRANCH   7   9
HETATM    9  N   UNL     1      42.438 -13.375   3.795  1.00  0.00    -0.171 NA
HETATM   10  C   UNL     1      43.585 -13.600   4.350  1.00  0.00     0.153 C 
BRANCH  10  11
HETATM   11  C   UNL     1      43.653 -14.368   5.576  1.00  0.00     0.011 A 
HETATM   12  C   UNL     1      43.285 -15.732   5.821  1.00  0.00     0.004 A 
HETATM   13  C   UNL     1      43.554 -16.002   7.165  1.00  0.00     0.043 A 
HETATM   14  C   UNL     1      42.759 -16.775   5.027  1.00  0.00     0.014 A 
HETATM   15  C   UNL     1      43.319 -17.252   7.752  1.00  0.00     0.030 A 
HETATM   16  N   UNL     1      44.066 -14.851   7.716  1.00  0.00    -0.364 N 
HETATM   17  C   UNL     1      42.799 -18.263   6.941  1.00  0.00     0.002 A 
HETATM   18  C   UNL     1      42.523 -18.033   5.596  1.00  0.00     0.001 A 
HETATM   19  H   UNL     1      44.356 -14.760   8.681  1.00  0.00     0.165 HD
HETATM   20  C   UNL     1      44.136 -13.864   6.770  1.00  0.00     0.102 A 
ENDBRANCH  10  11
ENDBRANCH   7   9
ENDBRANCH   3   7
BRANCH   1  21
HETATM   21  N   UNL     1      40.152 -12.508  -1.449  1.00  0.00    -0.210 N 
HETATM   22  C   UNL     1      38.719 -12.383  -1.162  1.00  0.00     0.169 C 
HETATM   23  C   UNL     1      37.965 -13.652  -1.611  1.00  0.00     0.254 C 
HETATM   24  N   UNL     1      38.271 -13.957  -3.085  1.00  0.00    -0.072 N 
HETATM   25  C   UNL     1      37.536 -15.168  -3.569  1.00  0.00     0.269 C 
HETATM   26  H   UNL     1      37.936 -13.154  -3.631  1.00  0.00     0.279 HD
HETATM   27  C   UNL     1      39.786 -14.060  -3.339  1.00  0.00     0.254 C 
HETATM   28  C   UNL     1      40.487 -12.771  -2.856  1.00  0.00     0.169 C 
ENDBRANCH   1  21
BRANCH   5  29
HETATM   29  N   UNL     1      41.990 -16.539   0.139  1.00  0.00    -0.187 N 
HETATM   30  H   UNL     1      41.371 -16.941  -0.553  1.00  0.00     0.184 HD
BRANCH  29  31
HETATM   31  C   UNL     1      42.659 -17.445   0.969  1.00  0.00     0.049 A 
HETATM   32  C   UNL     1      44.008 -17.302   1.318  1.00  0.00     0.032 A 
HETATM   33  C   UNL     1      44.653 -18.244   2.126  1.00  0.00     0.038 A 
HETATM   34  C   UNL     1      43.947 -19.365   2.574  1.00  0.00     0.103 A 
HETATM   35  C   UNL     1      42.606 -19.543   2.221  1.00  0.00     0.038 A 
HETATM   36  C   UNL     1      41.974 -18.584   1.421  1.00  0.00     0.032 A 
BRANCH  34  37
HETATM   37  N   UNL     1      44.623 -20.358   3.418  1.00  0.00    -0.116 N 
HETATM   38  O   UNL     1      44.557 -21.545   3.067  1.00  0.00    -0.532 OA
HETATM   39  O   UNL     1      45.211 -19.952   4.428  1.00  0.00    -0.532 OA
ENDBRANCH  34  37
ENDBRANCH  29  31
ENDBRANCH   5  29
TORSDOF 7
ENDMDL
MODEL 9
REMARK VINA RESULT:      -9.0      3.809      5.937
REMARK  7 active torsions:
REMARK  status: ('A' for Active; 'I' for Inactive)
REMARK    1  A    between atoms: N_6  and  C_7 
REMARK    2  A    between atoms: C_9  and  N_10 
REMARK    3  A    between atoms: N_10  and  N_11 
REMARK    4  A    between atoms: C_12  and  C_13 
REMARK    5  A    between atoms: C_24  and  N_25 
REMARK    6  A    between atoms: N_25  and  C_26 
REMARK    7  A    between atoms: C_29  and  N_30 
ROOT
HETATM    1  C   UNL     1      39.965 -13.813   0.736  1.00  0.00     0.756 A 
HETATM    2  N   UNL     1      40.714 -14.691   0.098  1.00  0.00     0.133 NA
HETATM    3  C   UNL     1      41.615 -15.356   0.818  1.00  0.00     0.774 A 
HETATM    4  N   UNL     1      41.757 -15.213   2.128  1.00  0.00     0.133 NA
HETATM    5  C   UNL     1      40.908 -14.380   2.710  1.00  0.00     0.758 A 
HETATM    6  N   UNL     1      39.983 -13.683   2.053  1.00  0.00     0.131 NA
ENDROOT
BRANCH   3   7
HETATM    7  N   UNL     1      42.465 -16.287   0.195  1.00  0.00    -0.105 N 
HETATM    8  H   UNL     1      41.964 -16.713  -0.582  1.00  0.00     0.208 HD
BRANCH   7   9
HETATM    9  N   UNL     1      43.260 -17.056   0.996  1.00  0.00    -0.171 NA
HETATM   10  C   UNL     1      42.635 -17.715   1.918  1.00  0.00     0.153 C 
BRANCH  10  11
HETATM   11  C   UNL     1      43.383 -18.534   2.848  1.00  0.00     0.011 A 
HETATM   12  C   UNL     1      43.754 -19.916   2.757  1.00  0.00     0.004 A 
HETATM   13  C   UNL     1      44.480 -20.231   3.907  1.00  0.00     0.043 A 
HETATM   14  C   UNL     1      43.555 -20.935   1.797  1.00  0.00     0.014 A 
HETATM   15  C   UNL     1      45.009 -21.505   4.148  1.00  0.00     0.030 A 
HETATM   16  N   UNL     1      44.551 -19.089   4.669  1.00  0.00    -0.364 N 
HETATM   17  C   UNL     1      44.796 -22.492   3.181  1.00  0.00     0.002 A 
HETATM   18  C   UNL     1      44.081 -22.213   2.020  1.00  0.00     0.001 A 
HETATM   19  H   UNL     1      45.027 -19.025   5.559  1.00  0.00     0.165 HD
HETATM   20  C   UNL     1      43.900 -18.060   4.041  1.00  0.00     0.102 A 
ENDBRANCH  10  11
ENDBRANCH   7   9
ENDBRANCH   3   7
BRANCH   1  21
HETATM   21  N   UNL     1      39.101 -13.013  -0.015  1.00  0.00    -0.210 N 
HETATM   22  C   UNL     1      38.479 -13.644  -1.184  1.00  0.00     0.169 C 
HETATM   23  C   UNL     1      39.444 -13.623  -2.387  1.00  0.00     0.254 C 
HETATM   24  N   UNL     1      39.933 -12.190  -2.651  1.00  0.00    -0.072 N 
HETATM   25  C   UNL     1      40.852 -12.122  -3.830  1.00  0.00     0.269 C 
HETATM   26  H   UNL     1      39.101 -11.630  -2.874  1.00  0.00     0.279 HD
HETATM   27  C   UNL     1      40.559 -11.565  -1.391  1.00  0.00     0.254 C 
HETATM   28  C   UNL     1      39.555 -11.629  -0.219  1.00  0.00     0.169 C 
ENDBRANCH   1  21
BRANCH   5  29
HETATM   29  N   UNL     1      41.056 -14.230   4.088  1.00  0.00    -0.187 N 
HETATM   30  H   UNL     1      40.911 -13.265   4.357  1.00  0.00     0.184 HD
BRANCH  29  31
HETATM   31  C   UNL     1      41.616 -15.064   5.063  1.00  0.00     0.049 A 
HETATM   32  C   UNL     1      40.932 -16.157   5.611  1.00  0.00     0.032 A 
HETATM   33  C   UNL     1      41.512 -16.952   6.605  1.00  0.00     0.038 A 
HETATM   34  C   UNL     1      42.788 -16.635   7.082  1.00  0.00     0.103 A 
HETATM   35  C   UNL     1      43.481 -15.536   6.568  1.00  0.00     0.038 A 
HETATM   36  C   UNL     1      42.890 -14.759   5.565  1.00  0.00     0.032 A 
BRANCH  34  37
HETATM   37  N   UNL     1      43.396 -17.465   8.129  1.00  0.00    -0.116 N 
HETATM   38  O   UNL     1      43.500 -16.969   9.261  1.00  0.00    -0.532 OA
HETATM   39  O   UNL     1      43.772 -18.602   7.820  1.00  0.00    -0.532 OA
ENDBRANCH  34  37
ENDBRANCH  29  31
ENDBRANCH   5  29
TORSDOF 7
ENDMDL
MODEL 10
REMARK VINA RESULT:      -8.9      5.330      9.505
REMARK  7 active torsions:
REMARK  status: ('A' for Active; 'I' for Inactive)
REMARK    1  A    between atoms: N_6  and  C_7 
REMARK    2  A    between atoms: C_9  and  N_10 
REMARK    3  A    between atoms: N_10  and  N_11 
REMARK    4  A    between atoms: C_12  and  C_13 
REMARK    5  A    between atoms: C_24  and  N_25 
REMARK    6  A    between atoms: N_25  and  C_26 
REMARK    7  A    between atoms: C_29  and  N_30 
ROOT
HETATM    1  C   UNL     1      40.439 -14.595   3.927  1.00  0.00     0.756 A 
HETATM    2  N   UNL     1      39.829 -14.635   2.759  1.00  0.00     0.133 NA
HETATM    3  C   UNL     1      40.450 -15.276   1.771  1.00  0.00     0.774 A 
HETATM    4  N   UNL     1      41.608 -15.905   1.919  1.00  0.00     0.133 NA
HETATM    5  C   UNL     1      42.114 -15.896   3.143  1.00  0.00     0.758 A 
HETATM    6  N   UNL     1      41.547 -15.274   4.176  1.00  0.00     0.131 NA
ENDROOT
BRANCH   3   7
HETATM    7  N   UNL     1      39.867 -15.334   0.493  1.00  0.00    -0.105 N 
HETATM    8  H   UNL     1      39.908 -16.295   0.161  1.00  0.00     0.208 HD
BRANCH   7   9
HETATM    9  N   UNL     1      40.124 -14.306  -0.368  1.00  0.00    -0.171 NA
HETATM   10  C   UNL     1      41.126 -14.495  -1.165  1.00  0.00     0.153 C 
BRANCH  10  11
HETATM   11  C   UNL     1      41.512 -13.455  -2.095  1.00  0.00     0.011 A 
HETATM   12  C   UNL     1      42.091 -12.168  -1.840  1.00  0.00     0.004 A 
HETATM   13  C   UNL     1      42.286 -11.544  -3.074  1.00  0.00     0.043 A 
HETATM   14  C   UNL     1      42.483 -11.471  -0.674  1.00  0.00     0.014 A 
HETATM   15  C   UNL     1      42.844 -10.267  -3.202  1.00  0.00     0.030 A 
HETATM   16  N   UNL     1      41.846 -12.415  -4.043  1.00  0.00    -0.364 N 
HETATM   17  C   UNL     1      43.222  -9.603  -2.032  1.00  0.00     0.002 A 
HETATM   18  C   UNL     1      43.047 -10.195  -0.784  1.00  0.00     0.001 A 
HETATM   19  H   UNL     1      41.874 -12.226  -5.037  1.00  0.00     0.165 HD
HETATM   20  C   UNL     1      41.384 -13.569  -3.469  1.00  0.00     0.102 A 
ENDBRANCH  10  11
ENDBRANCH   7   9
ENDBRANCH   3   7
BRANCH   1  21
HETATM   21  N   UNL     1      39.872 -13.822   4.943  1.00  0.00    -0.210 N 
HETATM   22  C   UNL     1      38.947 -12.766   4.517  1.00  0.00     0.169 C 
HETATM   23  C   UNL     1      39.726 -11.509   4.081  1.00  0.00     0.254 C 
HETATM   24  N   UNL     1      40.690 -11.068   5.194  1.00  0.00    -0.072 N 
HETATM   25  C   UNL     1      41.447  -9.832   4.821  1.00  0.00     0.269 C 
HETATM   26  H   UNL     1      40.113 -10.842   6.014  1.00  0.00     0.279 HD
HETATM   27  C   UNL     1      41.625 -12.215   5.619  1.00  0.00     0.254 C 
HETATM   28  C   UNL     1      40.791 -13.449   6.028  1.00  0.00     0.169 C 
ENDBRANCH   1  21
BRANCH   5  29
HETATM   29  N   UNL     1      43.331 -16.557   3.300  1.00  0.00    -0.187 N 
HETATM   30  H   UNL     1      44.101 -15.904   3.230  1.00  0.00     0.184 HD
BRANCH  29  31
HETATM   31  C   UNL     1      43.668 -17.915   3.252  1.00  0.00     0.049 A 
HETATM   32  C   UNL     1      43.574 -18.679   2.082  1.00  0.00     0.032 A 
HETATM   33  C   UNL     1      43.892 -20.041   2.077  1.00  0.00     0.038 A 
HETATM   34  C   UNL     1      44.285 -20.661   3.268  1.00  0.00     0.103 A 
HETATM   35  C   UNL     1      44.365 -19.925   4.454  1.00  0.00     0.038 A 
HETATM   36  C   UNL     1      44.054 -18.560   4.437  1.00  0.00     0.032 A 
BRANCH  34  37
HETATM   37  N   UNL     1      44.614 -22.091   3.267  1.00  0.00    -0.116 N 
HETATM   38  O   UNL     1      44.772 -22.641   4.366  1.00  0.00    -0.532 OA
HETATM   39  O   UNL     1      44.719 -22.659   2.172  1.00  0.00    -0.532 OA
ENDBRANCH  34  37
ENDBRANCH  29  31
ENDBRANCH   5  29
TORSDOF 7
ENDMDL
