MODEL 1
REMARK VINA RESULT:      -8.3      0.000      0.000
REMARK  5 active torsions:
REMARK  status: ('A' for Active; 'I' for Inactive)
REMARK    1  A    between atoms: O_2  and  C_3 
REMARK    2  A    between atoms: C_5  and  C_15 
REMARK    3  A    between atoms: C_8  and  C_9 
REMARK       I    between atoms: C_15  and  N_17 
REMARK    4  A    between atoms: N_17  and  C_18 
REMARK    5  A    between atoms: C_20  and  C_21 
ROOT
HETATM    1  C   UNL     1      40.969 -14.774  -2.487  1.00  0.00     0.080 A 
HETATM    2  C   UNL     1      41.015 -15.684  -1.421  1.00  0.00     0.054 A 
HETATM    3  C   UNL     1      41.305 -15.251  -0.119  1.00  0.00     0.034 A 
HETATM    4  C   UNL     1      41.538 -13.897   0.125  1.00  0.00     0.018 A 
HETATM    5  C   UNL     1      41.505 -12.985  -0.933  1.00  0.00     0.016 A 
HETATM    6  C   UNL     1      41.225 -13.407  -2.246  1.00  0.00     0.010 A 
ENDROOT
BRANCH   3   7
HETATM    7  C   UNL     1      41.308 -16.264   0.972  1.00  0.00     0.252 C 
HETATM    8  O   UNL     1      40.313 -16.399   1.677  1.00  0.00    -0.268 OA
HETATM    9  N   UNL     1      42.456 -17.021   1.106  1.00  0.00    -0.352 N 
HETATM   10  H   UNL     1      43.167 -16.984   0.386  1.00  0.00     0.163 HD
BRANCH   9  11
HETATM   11  C   UNL     1      42.581 -18.022   2.123  1.00  0.00     0.094 A 
HETATM   12  C   UNL     1      43.006 -17.635   3.509  1.00  0.00     0.037 A 
HETATM   13  C   UNL     1      43.943 -18.440   2.641  1.00  0.00     0.043 A 
BRANCH  13  14
HETATM   14  C   UNL     1      44.216 -19.887   2.981  1.00  0.00    -0.052 A 
HETATM   15  C   UNL     1      44.623 -20.275   4.269  1.00  0.00     0.007 A 
HETATM   16  C   UNL     1      44.865 -21.616   4.583  1.00  0.00     0.001 A 
HETATM   17  C   UNL     1      44.696 -22.600   3.614  1.00  0.00     0.000 A 
HETATM   18  C   UNL     1      44.284 -22.244   2.333  1.00  0.00     0.001 A 
HETATM   19  C   UNL     1      44.044 -20.903   2.025  1.00  0.00     0.007 A 
ENDBRANCH  13  14
ENDBRANCH   9  11
ENDBRANCH   3   7
BRANCH   1  20
HETATM   20  O   UNL     1      40.687 -15.141  -3.779  1.00  0.00    -0.355 OA
HETATM   21  C   UNL     1      39.470 -15.840  -4.015  1.00  0.00     0.210 C 
ENDBRANCH   1  20
BRANCH   6  22
HETATM   22  C   UNL     1      41.202 -12.418  -3.316  1.00  0.00     0.013 A 
HETATM   23  C   UNL     1      40.122 -11.771  -3.965  1.00  0.00     0.152 A 
HETATM   24  N   UNL     1      40.522 -10.918  -4.912  1.00  0.00    -0.187 NA
HETATM   25  N   UNL     1      41.860 -10.995  -4.858  1.00  0.00    -0.289 N 
HETATM   26  H   UNL     1      42.400 -10.411  -5.486  1.00  0.00     0.188 HD
HETATM   27  C   UNL     1      42.318 -11.884  -3.928  1.00  0.00     0.123 A 
ENDBRANCH   6  22
TORSDOF 5
ENDMDL
MODEL 2
REMARK VINA RESULT:      -8.3      8.952     11.533
REMARK  5 active torsions:
REMARK  status: ('A' for Active; 'I' for Inactive)
REMARK    1  A    between atoms: O_2  and  C_3 
REMARK    2  A    between atoms: C_5  and  C_15 
REMARK    3  A    between atoms: C_8  and  C_9 
REMARK       I    between atoms: C_15  and  N_17 
REMARK    4  A    between atoms: N_17  and  C_18 
REMARK    5  A    between atoms: C_20  and  C_21 
ROOT
HETATM    1  C   UNL     1      42.759 -10.571  10.205  1.00  0.00     0.080 A 
HETATM    2  C   UNL     1      43.225 -11.424   9.195  1.00  0.00     0.054 A 
HETATM    3  C   UNL     1      44.554 -11.872   9.190  1.00  0.00     0.034 A 
HETATM    4  C   UNL     1      45.422 -11.477  10.209  1.00  0.00     0.018 A 
HETATM    5  C   UNL     1      44.968 -10.618  11.213  1.00  0.00     0.016 A 
HETATM    6  C   UNL     1      43.641 -10.153  11.224  1.00  0.00     0.010 A 
ENDROOT
BRANCH   3   7
HETATM    7  C   UNL     1      44.977 -12.801   8.107  1.00  0.00     0.252 C 
HETATM    8  O   UNL     1      46.148 -12.810   7.739  1.00  0.00    -0.268 OA
HETATM    9  N   UNL     1      44.001 -13.632   7.591  1.00  0.00    -0.352 N 
HETATM   10  H   UNL     1      43.105 -13.700   8.057  1.00  0.00     0.163 HD
BRANCH   9  11
HETATM   11  C   UNL     1      44.286 -14.564   6.542  1.00  0.00     0.094 A 
HETATM   12  C   UNL     1      43.624 -14.412   5.204  1.00  0.00     0.037 A 
HETATM   13  C   UNL     1      43.247 -15.573   6.093  1.00  0.00     0.043 A 
BRANCH  13  14
HETATM   14  C   UNL     1      43.663 -16.974   5.708  1.00  0.00    -0.052 A 
HETATM   15  C   UNL     1      44.088 -17.904   6.672  1.00  0.00     0.007 A 
HETATM   16  C   UNL     1      44.462 -19.203   6.315  1.00  0.00     0.001 A 
HETATM   17  C   UNL     1      44.411 -19.602   4.983  1.00  0.00     0.000 A 
HETATM   18  C   UNL     1      43.983 -18.703   4.009  1.00  0.00     0.001 A 
HETATM   19  C   UNL     1      43.611 -17.406   4.373  1.00  0.00     0.007 A 
ENDBRANCH  13  14
ENDBRANCH   9  11
ENDBRANCH   3   7
BRANCH   1  20
HETATM   20  O   UNL     1      41.469 -10.104  10.261  1.00  0.00    -0.355 OA
HETATM   21  C   UNL     1      40.457 -11.015  10.676  1.00  0.00     0.210 C 
ENDBRANCH   1  20
BRANCH   6  22
HETATM   22  C   UNL     1      43.215  -9.257  12.294  1.00  0.00     0.013 A 
HETATM   23  C   UNL     1      42.660  -7.956  12.254  1.00  0.00     0.152 A 
HETATM   24  N   UNL     1      42.402  -7.464  13.470  1.00  0.00    -0.187 NA
HETATM   25  N   UNL     1      42.768  -8.458  14.292  1.00  0.00    -0.289 N 
HETATM   26  H   UNL     1      42.648  -8.324  15.290  1.00  0.00     0.188 HD
HETATM   27  C   UNL     1      43.269  -9.549  13.642  1.00  0.00     0.123 A 
ENDBRANCH   6  22
TORSDOF 5
ENDMDL
MODEL 3
REMARK VINA RESULT:      -8.2      6.632     10.669
REMARK  5 active torsions:
REMARK  status: ('A' for Active; 'I' for Inactive)
REMARK    1  A    between atoms: O_2  and  C_3 
REMARK    2  A    between atoms: C_5  and  C_15 
REMARK    3  A    between atoms: C_8  and  C_9 
REMARK       I    between atoms: C_15  and  N_17 
REMARK    4  A    between atoms: N_17  and  C_18 
REMARK    5  A    between atoms: C_20  and  C_21 
ROOT
HETATM    1  C   UNL     1      43.232 -17.784   4.643  1.00  0.00     0.080 A 
HETATM    2  C   UNL     1      43.093 -16.496   5.179  1.00  0.00     0.054 A 
HETATM    3  C   UNL     1      43.932 -16.055   6.213  1.00  0.00     0.034 A 
HETATM    4  C   UNL     1      44.925 -16.900   6.708  1.00  0.00     0.018 A 
HETATM    5  C   UNL     1      45.063 -18.189   6.187  1.00  0.00     0.016 A 
HETATM    6  C   UNL     1      44.222 -18.649   5.157  1.00  0.00     0.010 A 
ENDROOT
BRANCH   3   7
HETATM    7  C   UNL     1      43.752 -14.665   6.716  1.00  0.00     0.252 C 
HETATM    8  O   UNL     1      42.940 -13.923   6.173  1.00  0.00    -0.268 OA
HETATM    9  N   UNL     1      44.517 -14.302   7.808  1.00  0.00    -0.352 N 
HETATM   10  H   UNL     1      45.032 -15.010   8.315  1.00  0.00     0.163 HD
BRANCH   9  11
HETATM   11  C   UNL     1      44.437 -12.991   8.378  1.00  0.00     0.094 A 
HETATM   12  C   UNL     1      45.678 -12.159   8.524  1.00  0.00     0.037 A 
HETATM   13  C   UNL     1      44.998 -12.705   9.757  1.00  0.00     0.043 A 
BRANCH  13  14
HETATM   14  C   UNL     1      44.277 -11.762  10.692  1.00  0.00    -0.052 A 
HETATM   15  C   UNL     1      43.658 -12.222  11.866  1.00  0.00     0.007 A 
HETATM   16  C   UNL     1      43.001 -11.346  12.735  1.00  0.00     0.001 A 
HETATM   17  C   UNL     1      42.957  -9.984  12.450  1.00  0.00     0.000 A 
HETATM   18  C   UNL     1      43.572  -9.500  11.298  1.00  0.00     0.001 A 
HETATM   19  C   UNL     1      44.227 -10.381  10.435  1.00  0.00     0.007 A 
ENDBRANCH  13  14
ENDBRANCH   9  11
ENDBRANCH   3   7
BRANCH   1  20
HETATM   20  O   UNL     1      42.442 -18.267   3.629  1.00  0.00    -0.355 OA
HETATM   21  C   UNL     1      41.880 -17.323   2.726  1.00  0.00     0.210 C 
ENDBRANCH   1  20
BRANCH   6  22
HETATM   22  C   UNL     1      44.405 -20.002   4.647  1.00  0.00     0.013 A 
HETATM   23  C   UNL     1      44.505 -20.494   3.324  1.00  0.00     0.152 A 
HETATM   24  N   UNL     1      44.668 -21.819   3.273  1.00  0.00    -0.187 NA
HETATM   25  N   UNL     1      44.697 -22.180   4.565  1.00  0.00    -0.289 N 
HETATM   26  H   UNL     1      44.833 -23.160   4.786  1.00  0.00     0.188 HD
HETATM   27  C   UNL     1      44.535 -21.134   5.427  1.00  0.00     0.123 A 
ENDBRANCH   6  22
TORSDOF 5
ENDMDL
MODEL 4
REMARK VINA RESULT:      -8.2      6.854     10.627
REMARK  5 active torsions:
REMARK  status: ('A' for Active; 'I' for Inactive)
REMARK    1  A    between atoms: O_2  and  C_3 
REMARK    2  A    between atoms: C_5  and  C_15 
REMARK    3  A    between atoms: C_8  and  C_9 
REMARK       I    between atoms: C_15  and  N_17 
REMARK    4  A    between atoms: N_17  and  C_18 
REMARK    5  A    between atoms: C_20  and  C_21 
ROOT
HETATM    1  C   UNL     1      44.221 -17.499   5.922  1.00  0.00     0.080 A 
HETATM    2  C   UNL     1      44.135 -16.252   6.556  1.00  0.00     0.054 A 
HETATM    3  C   UNL     1      43.678 -15.123   5.861  1.00  0.00     0.034 A 
HETATM    4  C   UNL     1      43.290 -15.241   4.525  1.00  0.00     0.018 A 
HETATM    5  C   UNL     1      43.382 -16.478   3.883  1.00  0.00     0.016 A 
HETATM    6  C   UNL     1      43.849 -17.617   4.565  1.00  0.00     0.010 A 
ENDROOT
BRANCH   3   7
HETATM    7  C   UNL     1      43.582 -13.834   6.601  1.00  0.00     0.252 C 
HETATM    8  O   UNL     1      42.764 -12.992   6.248  1.00  0.00    -0.268 OA
HETATM    9  N   UNL     1      44.429 -13.681   7.682  1.00  0.00    -0.352 N 
HETATM   10  H   UNL     1      44.950 -14.478   8.027  1.00  0.00     0.163 HD
BRANCH   9  11
HETATM   11  C   UNL     1      44.434 -12.484   8.468  1.00  0.00     0.094 A 
HETATM   12  C   UNL     1      45.735 -11.860   8.877  1.00  0.00     0.037 A 
HETATM   13  C   UNL     1      44.860 -12.508   9.923  1.00  0.00     0.043 A 
BRANCH  13  14
HETATM   14  C   UNL     1      44.148 -11.646  10.939  1.00  0.00    -0.052 A 
HETATM   15  C   UNL     1      43.479 -12.209  12.040  1.00  0.00     0.007 A 
HETATM   16  C   UNL     1      42.831 -11.408  12.984  1.00  0.00     0.001 A 
HETATM   17  C   UNL     1      42.844 -10.023  12.852  1.00  0.00     0.000 A 
HETATM   18  C   UNL     1      43.509  -9.439  11.777  1.00  0.00     0.001 A 
HETATM   19  C   UNL     1      44.155 -10.245  10.836  1.00  0.00     0.007 A 
ENDBRANCH  13  14
ENDBRANCH   9  11
ENDBRANCH   3   7
BRANCH   1  20
HETATM   20  O   UNL     1      44.657 -18.637   6.553  1.00  0.00    -0.355 OA
HETATM   21  C   UNL     1      43.912 -19.095   7.675  1.00  0.00     0.210 C 
ENDBRANCH   1  20
BRANCH   6  22
HETATM   22  C   UNL     1      43.927 -18.886   3.851  1.00  0.00     0.013 A 
HETATM   23  C   UNL     1      44.697 -20.047   4.097  1.00  0.00     0.152 A 
HETATM   24  N   UNL     1      44.483 -21.012   3.197  1.00  0.00    -0.187 NA
HETATM   25  N   UNL     1      43.556 -20.482   2.386  1.00  0.00    -0.289 N 
HETATM   26  H   UNL     1      43.212 -21.047   1.617  1.00  0.00     0.188 HD
HETATM   27  C   UNL     1      43.196 -19.210   2.726  1.00  0.00     0.123 A 
ENDBRANCH   6  22
TORSDOF 5
ENDMDL
MODEL 5
REMARK VINA RESULT:      -8.1      2.132      2.499
REMARK  5 active torsions:
REMARK  status: ('A' for Active; 'I' for Inactive)
REMARK    1  A    between atoms: O_2  and  C_3 
REMARK    2  A    between atoms: C_5  and  C_15 
REMARK    3  A    between atoms: C_8  and  C_9 
REMARK       I    between atoms: C_15  and  N_17 
REMARK    4  A    between atoms: N_17  and  C_18 
REMARK    5  A    between atoms: C_20  and  C_21 
ROOT
HETATM    1  C   UNL     1      40.063 -14.453  -0.879  1.00  0.00     0.080 A 
HETATM    2  C   UNL     1      40.705 -15.153   0.152  1.00  0.00     0.054 A 
HETATM    3  C   UNL     1      40.089 -15.317   1.401  1.00  0.00     0.034 A 
HETATM    4  C   UNL     1      38.815 -14.791   1.620  1.00  0.00     0.018 A 
HETATM    5  C   UNL     1      38.173 -14.083   0.601  1.00  0.00     0.016 A 
HETATM    6  C   UNL     1      38.783 -13.902  -0.653  1.00  0.00     0.010 A 
ENDROOT
BRANCH   3   7
HETATM    7  C   UNL     1      40.812 -16.097   2.443  1.00  0.00     0.252 C 
HETATM    8  O   UNL     1      40.609 -15.859   3.629  1.00  0.00    -0.268 OA
HETATM    9  N   UNL     1      41.669 -17.082   1.991  1.00  0.00    -0.352 N 
HETATM   10  H   UNL     1      41.657 -17.346   1.013  1.00  0.00     0.163 HD
BRANCH   9  11
HETATM   11  C   UNL     1      42.425 -17.893   2.897  1.00  0.00     0.094 A 
HETATM   12  C   UNL     1      43.718 -17.383   3.463  1.00  0.00     0.037 A 
HETATM   13  C   UNL     1      43.738 -18.521   2.472  1.00  0.00     0.043 A 
BRANCH  13  14
HETATM   14  C   UNL     1      44.104 -19.911   2.938  1.00  0.00    -0.052 A 
HETATM   15  C   UNL     1      44.553 -20.151   4.248  1.00  0.00     0.007 A 
HETATM   16  C   UNL     1      44.881 -21.440   4.680  1.00  0.00     0.001 A 
HETATM   17  C   UNL     1      44.757 -22.520   3.811  1.00  0.00     0.000 A 
HETATM   18  C   UNL     1      44.303 -22.311   2.511  1.00  0.00     0.001 A 
HETATM   19  C   UNL     1      43.978 -21.020   2.085  1.00  0.00     0.007 A 
ENDBRANCH  13  14
ENDBRANCH   9  11
ENDBRANCH   3   7
BRANCH   1  20
HETATM   20  O   UNL     1      40.617 -14.265  -2.121  1.00  0.00    -0.355 OA
HETATM   21  C   UNL     1      41.001 -15.422  -2.853  1.00  0.00     0.210 C 
ENDBRANCH   1  20
BRANCH   6  22
HETATM   22  C   UNL     1      38.072 -13.155  -1.684  1.00  0.00     0.013 A 
HETATM   23  C   UNL     1      37.616 -13.541  -2.967  1.00  0.00     0.152 A 
HETATM   24  N   UNL     1      37.000 -12.550  -3.619  1.00  0.00    -0.187 NA
HETATM   25  N   UNL     1      37.038 -11.532  -2.746  1.00  0.00    -0.289 N 
HETATM   26  H   UNL     1      36.606 -10.654  -3.015  1.00  0.00     0.188 HD
HETATM   27  C   UNL     1      37.676 -11.837  -1.579  1.00  0.00     0.123 A 
ENDBRANCH   6  22
TORSDOF 5
ENDMDL
MODEL 6
REMARK VINA RESULT:      -7.8      2.657      9.735
REMARK  5 active torsions:
REMARK  status: ('A' for Active; 'I' for Inactive)
REMARK    1  A    between atoms: O_2  and  C_3 
REMARK    2  A    between atoms: C_5  and  C_15 
REMARK    3  A    between atoms: C_8  and  C_9 
REMARK       I    between atoms: C_15  and  N_17 
REMARK    4  A    between atoms: N_17  and  C_18 
REMARK    5  A    between atoms: C_20  and  C_21 
ROOT
HETATM    1  C   UNL     1      43.167 -18.490   3.872  1.00  0.00     0.080 A 
HETATM    2  C   UNL     1      42.747 -17.270   3.323  1.00  0.00     0.054 A 
HETATM    3  C   UNL     1      42.981 -16.972   1.972  1.00  0.00     0.034 A 
HETATM    4  C   UNL     1      43.627 -17.904   1.159  1.00  0.00     0.018 A 
HETATM    5  C   UNL     1      44.059 -19.117   1.701  1.00  0.00     0.016 A 
HETATM    6  C   UNL     1      43.840 -19.425   3.056  1.00  0.00     0.010 A 
ENDROOT
BRANCH   3   7
HETATM    7  C   UNL     1      42.483 -15.672   1.444  1.00  0.00     0.252 C 
HETATM    8  O   UNL     1      42.460 -14.689   2.177  1.00  0.00    -0.268 OA
HETATM    9  N   UNL     1      42.093 -15.655   0.119  1.00  0.00    -0.352 N 
HETATM   10  H   UNL     1      42.303 -16.448  -0.475  1.00  0.00     0.163 HD
BRANCH   9  11
HETATM   11  C   UNL     1      41.590 -14.466  -0.501  1.00  0.00     0.094 A 
HETATM   12  C   UNL     1      40.500 -14.557  -1.528  1.00  0.00     0.037 A 
HETATM   13  C   UNL     1      41.892 -14.156  -1.954  1.00  0.00     0.043 A 
BRANCH  13  14
HETATM   14  C   UNL     1      42.159 -12.734  -2.390  1.00  0.00    -0.052 A 
HETATM   15  C   UNL     1      42.846 -11.829  -1.563  1.00  0.00     0.007 A 
HETATM   16  C   UNL     1      43.101 -10.517  -1.973  1.00  0.00     0.001 A 
HETATM   17  C   UNL     1      42.681 -10.085  -3.227  1.00  0.00     0.000 A 
HETATM   18  C   UNL     1      42.008 -10.965  -4.071  1.00  0.00     0.001 A 
HETATM   19  C   UNL     1      41.756 -12.275  -3.655  1.00  0.00     0.007 A 
ENDBRANCH  13  14
ENDBRANCH   9  11
ENDBRANCH   3   7
BRANCH   1  20
HETATM   20  O   UNL     1      42.962 -18.835   5.184  1.00  0.00    -0.355 OA
HETATM   21  C   UNL     1      43.266 -17.861   6.176  1.00  0.00     0.210 C 
ENDBRANCH   1  20
BRANCH   6  22
HETATM   22  C   UNL     1      44.309 -20.704   3.575  1.00  0.00     0.013 A 
HETATM   23  C   UNL     1      44.877 -21.051   4.824  1.00  0.00     0.152 A 
HETATM   24  N   UNL     1      45.181 -22.350   4.913  1.00  0.00    -0.187 NA
HETATM   25  N   UNL     1      44.786 -22.844   3.731  1.00  0.00    -0.289 N 
HETATM   26  H   UNL     1      44.900 -23.838   3.564  1.00  0.00     0.188 HD
HETATM   27  C   UNL     1      44.266 -21.902   2.891  1.00  0.00     0.123 A 
ENDBRANCH   6  22
TORSDOF 5
ENDMDL
MODEL 7
REMARK VINA RESULT:      -7.8      7.879     11.015
REMARK  5 active torsions:
REMARK  status: ('A' for Active; 'I' for Inactive)
REMARK    1  A    between atoms: O_2  and  C_3 
REMARK    2  A    between atoms: C_5  and  C_15 
REMARK    3  A    between atoms: C_8  and  C_9 
REMARK       I    between atoms: C_15  and  N_17 
REMARK    4  A    between atoms: N_17  and  C_18 
REMARK    5  A    between atoms: C_20  and  C_21 
ROOT
HETATM    1  C   UNL     1      43.833 -16.235   6.006  1.00  0.00     0.080 A 
HETATM    2  C   UNL     1      44.288 -15.386   7.025  1.00  0.00     0.054 A 
HETATM    3  C   UNL     1      44.246 -13.993   6.871  1.00  0.00     0.034 A 
HETATM    4  C   UNL     1      43.733 -13.441   5.696  1.00  0.00     0.018 A 
HETATM    5  C   UNL     1      43.288 -14.280   4.672  1.00  0.00     0.016 A 
HETATM    6  C   UNL     1      43.334 -15.679   4.808  1.00  0.00     0.010 A 
ENDROOT
BRANCH   3   7
HETATM    7  C   UNL     1      44.716 -13.148   8.003  1.00  0.00     0.252 C 
HETATM    8  O   UNL     1      45.911 -13.110   8.276  1.00  0.00    -0.268 OA
HETATM    9  N   UNL     1      43.750 -12.422   8.672  1.00  0.00    -0.352 N 
HETATM   10  H   UNL     1      42.815 -12.359   8.287  1.00  0.00     0.163 HD
BRANCH   9  11
HETATM   11  C   UNL     1      44.079 -11.578   9.781  1.00  0.00     0.094 A 
HETATM   12  C   UNL     1      44.558 -12.183  11.068  1.00  0.00     0.037 A 
HETATM   13  C   UNL     1      43.197 -11.532  11.014  1.00  0.00     0.043 A 
BRANCH  13  14
HETATM   14  C   UNL     1      42.965 -10.225  11.736  1.00  0.00    -0.052 A 
HETATM   15  C   UNL     1      42.288  -9.158  11.121  1.00  0.00     0.007 A 
HETATM   16  C   UNL     1      42.065  -7.953  11.795  1.00  0.00     0.001 A 
HETATM   17  C   UNL     1      42.508  -7.794  13.105  1.00  0.00     0.000 A 
HETATM   18  C   UNL     1      43.171  -8.841  13.740  1.00  0.00     0.001 A 
HETATM   19  C   UNL     1      43.391 -10.042  13.062  1.00  0.00     0.007 A 
ENDBRANCH  13  14
ENDBRANCH   9  11
ENDBRANCH   3   7
BRANCH   1  20
HETATM   20  O   UNL     1      43.848 -17.604   6.104  1.00  0.00    -0.355 OA
HETATM   21  C   UNL     1      45.113 -18.241   6.246  1.00  0.00     0.210 C 
ENDBRANCH   1  20
BRANCH   6  22
HETATM   22  C   UNL     1      42.857 -16.513   3.711  1.00  0.00     0.013 A 
HETATM   23  C   UNL     1      41.551 -16.920   3.349  1.00  0.00     0.152 A 
HETATM   24  N   UNL     1      41.532 -17.697   2.262  1.00  0.00    -0.187 NA
HETATM   25  N   UNL     1      42.824 -17.770   1.908  1.00  0.00    -0.289 N 
HETATM   26  H   UNL     1      43.065 -18.304   1.080  1.00  0.00     0.188 HD
HETATM   27  C   UNL     1      43.659 -17.088   2.746  1.00  0.00     0.123 A 
ENDBRANCH   6  22
TORSDOF 5
ENDMDL
MODEL 8
REMARK VINA RESULT:      -7.8      1.290      2.368
REMARK  5 active torsions:
REMARK  status: ('A' for Active; 'I' for Inactive)
REMARK    1  A    between atoms: O_2  and  C_3 
REMARK    2  A    between atoms: C_5  and  C_15 
REMARK    3  A    between atoms: C_8  and  C_9 
REMARK       I    between atoms: C_15  and  N_17 
REMARK    4  A    between atoms: N_17  and  C_18 
REMARK    5  A    between atoms: C_20  and  C_21 
ROOT
HETATM    1  C   UNL     1      40.501 -13.264  -0.390  1.00  0.00     0.080 A 
HETATM    2  C   UNL     1      40.643 -14.220   0.626  1.00  0.00     0.054 A 
HETATM    3  C   UNL     1      40.937 -15.556   0.318  1.00  0.00     0.034 A 
HETATM    4  C   UNL     1      41.104 -15.940  -1.013  1.00  0.00     0.018 A 
HETATM    5  C   UNL     1      40.953 -14.996  -2.032  1.00  0.00     0.016 A 
HETATM    6  C   UNL     1      40.648 -13.655  -1.738  1.00  0.00     0.010 A 
ENDROOT
BRANCH   3   7
HETATM    7  C   UNL     1      41.106 -16.515   1.445  1.00  0.00     0.252 C 
HETATM    8  O   UNL     1      40.143 -16.797   2.150  1.00  0.00    -0.268 OA
HETATM    9  N   UNL     1      42.366 -17.057   1.608  1.00  0.00    -0.352 N 
HETATM   10  H   UNL     1      43.066 -16.922   0.890  1.00  0.00     0.163 HD
BRANCH   9  11
HETATM   11  C   UNL     1      42.653 -17.986   2.660  1.00  0.00     0.094 A 
HETATM   12  C   UNL     1      43.439 -17.543   3.859  1.00  0.00     0.037 A 
HETATM   13  C   UNL     1      44.060 -18.507   2.877  1.00  0.00     0.043 A 
BRANCH  13  14
HETATM   14  C   UNL     1      44.285 -19.945   3.283  1.00  0.00    -0.052 A 
HETATM   15  C   UNL     1      44.164 -20.997   2.360  1.00  0.00     0.007 A 
HETATM   16  C   UNL     1      44.383 -22.325   2.736  1.00  0.00     0.001 A 
HETATM   17  C   UNL     1      44.739 -22.629   4.046  1.00  0.00     0.000 A 
HETATM   18  C   UNL     1      44.877 -21.605   4.979  1.00  0.00     0.001 A 
HETATM   19  C   UNL     1      44.656 -20.279   4.597  1.00  0.00     0.007 A 
ENDBRANCH  13  14
ENDBRANCH   9  11
ENDBRANCH   3   7
BRANCH   1  20
HETATM   20  O   UNL     1      40.216 -11.943  -0.146  1.00  0.00    -0.355 OA
HETATM   21  C   UNL     1      40.612 -11.406   1.110  1.00  0.00     0.210 C 
ENDBRANCH   1  20
BRANCH   6  22
HETATM   22  C   UNL     1      40.500 -12.707  -2.836  1.00  0.00     0.013 A 
HETATM   23  C   UNL     1      41.433 -11.837  -3.449  1.00  0.00     0.152 A 
HETATM   24  N   UNL     1      40.898 -11.115  -4.438  1.00  0.00    -0.187 NA
HETATM   25  N   UNL     1      39.625 -11.536  -4.479  1.00  0.00    -0.289 N 
HETATM   26  H   UNL     1      39.010 -11.135  -5.178  1.00  0.00     0.188 HD
HETATM   27  C   UNL     1      39.332 -12.480  -3.537  1.00  0.00     0.123 A 
ENDBRANCH   6  22
TORSDOF 5
ENDMDL
MODEL 9
REMARK VINA RESULT:      -7.5      5.279      6.329
REMARK  5 active torsions:
REMARK  status: ('A' for Active; 'I' for Inactive)
REMARK    1  A    between atoms: O_2  and  C_3 
REMARK    2  A    between atoms: C_5  and  C_15 
REMARK    3  A    between atoms: C_8  and  C_9 
REMARK       I    between atoms: C_15  and  N_17 
REMARK    4  A    between atoms: N_17  and  C_18 
REMARK    5  A    between atoms: C_20  and  C_21 
ROOT
HETATM    1  C   UNL     1      39.498 -12.164   5.662  1.00  0.00     0.080 A 
HETATM    2  C   UNL     1      39.973 -13.454   5.938  1.00  0.00     0.054 A 
HETATM    3  C   UNL     1      40.351 -14.317   4.899  1.00  0.00     0.034 A 
HETATM    4  C   UNL     1      40.269 -13.885   3.574  1.00  0.00     0.018 A 
HETATM    5  C   UNL     1      39.787 -12.605   3.291  1.00  0.00     0.016 A 
HETATM    6  C   UNL     1      39.394 -11.733   4.322  1.00  0.00     0.010 A 
ENDROOT
BRANCH   3   7
HETATM    7  C   UNL     1      40.876 -15.662   5.261  1.00  0.00     0.252 C 
HETATM    8  O   UNL     1      40.517 -16.191   6.308  1.00  0.00    -0.268 OA
HETATM    9  N   UNL     1      41.735 -16.252   4.354  1.00  0.00    -0.352 N 
HETATM   10  H   UNL     1      41.849 -15.845   3.435  1.00  0.00     0.163 HD
BRANCH   9  11
HETATM   11  C   UNL     1      42.309 -17.542   4.595  1.00  0.00     0.094 A 
HETATM   12  C   UNL     1      43.525 -17.673   5.464  1.00  0.00     0.037 A 
HETATM   13  C   UNL     1      43.641 -17.929   3.981  1.00  0.00     0.043 A 
BRANCH  13  14
HETATM   14  C   UNL     1      43.868 -19.337   3.482  1.00  0.00    -0.052 A 
HETATM   15  C   UNL     1      43.408 -19.753   2.221  1.00  0.00     0.007 A 
HETATM   16  C   UNL     1      43.630 -21.053   1.757  1.00  0.00     0.001 A 
HETATM   17  C   UNL     1      44.326 -21.965   2.544  1.00  0.00     0.000 A 
HETATM   18  C   UNL     1      44.803 -21.575   3.793  1.00  0.00     0.001 A 
HETATM   19  C   UNL     1      44.577 -20.275   4.251  1.00  0.00     0.007 A 
ENDBRANCH  13  14
ENDBRANCH   9  11
ENDBRANCH   3   7
BRANCH   1  20
HETATM   20  O   UNL     1      39.117 -11.277   6.638  1.00  0.00    -0.355 OA
HETATM   21  C   UNL     1      39.380 -11.633   7.990  1.00  0.00     0.210 C 
ENDBRANCH   1  20
BRANCH   6  22
HETATM   22  C   UNL     1      38.897 -10.406   3.975  1.00  0.00     0.013 A 
HETATM   23  C   UNL     1      37.582  -9.931   3.760  1.00  0.00     0.152 A 
HETATM   24  N   UNL     1      37.544  -8.630   3.453  1.00  0.00    -0.187 NA
HETATM   25  N   UNL     1      38.833  -8.262   3.495  1.00  0.00    -0.289 N 
HETATM   26  H   UNL     1      39.061  -7.291   3.310  1.00  0.00     0.188 HD
HETATM   27  C   UNL     1      39.684  -9.287   3.793  1.00  0.00     0.123 A 
ENDBRANCH   6  22
TORSDOF 5
ENDMDL
MODEL 10
REMARK VINA RESULT:      -7.3      8.178     10.260
REMARK  5 active torsions:
REMARK  status: ('A' for Active; 'I' for Inactive)
REMARK    1  A    between atoms: O_2  and  C_3 
REMARK    2  A    between atoms: C_5  and  C_15 
REMARK    3  A    between atoms: C_8  and  C_9 
REMARK       I    between atoms: C_15  and  N_17 
REMARK    4  A    between atoms: N_17  and  C_18 
REMARK    5  A    between atoms: C_20  and  C_21 
ROOT
HETATM    1  C   UNL     1      40.279 -13.379   5.203  1.00  0.00     0.080 A 
HETATM    2  C   UNL     1      40.788 -12.599   6.252  1.00  0.00     0.054 A 
HETATM    3  C   UNL     1      41.341 -11.335   6.003  1.00  0.00     0.034 A 
HETATM    4  C   UNL     1      41.376 -10.837   4.700  1.00  0.00     0.018 A 
HETATM    5  C   UNL     1      40.881 -11.612   3.648  1.00  0.00     0.016 A 
HETATM    6  C   UNL     1      40.332 -12.886   3.881  1.00  0.00     0.010 A 
ENDROOT
BRANCH   3   7
HETATM    7  C   UNL     1      41.837 -10.546   7.165  1.00  0.00     0.252 C 
HETATM    8  O   UNL     1      41.773  -9.321   7.137  1.00  0.00    -0.268 OA
HETATM    9  N   UNL     1      42.325 -11.268   8.236  1.00  0.00    -0.352 N 
HETATM   10  H   UNL     1      42.186 -12.270   8.270  1.00  0.00     0.163 HD
BRANCH   9  11
HETATM   11  C   UNL     1      42.835 -10.620   9.408  1.00  0.00     0.094 A 
HETATM   12  C   UNL     1      44.243 -10.880   9.857  1.00  0.00     0.037 A 
HETATM   13  C   UNL     1      43.091 -11.402  10.682  1.00  0.00     0.043 A 
BRANCH  13  14
HETATM   14  C   UNL     1      42.795 -10.782  12.028  1.00  0.00    -0.052 A 
HETATM   15  C   UNL     1      41.640 -11.119  12.754  1.00  0.00     0.007 A 
HETATM   16  C   UNL     1      41.375 -10.553  14.004  1.00  0.00     0.001 A 
HETATM   17  C   UNL     1      42.266  -9.640  14.559  1.00  0.00     0.000 A 
HETATM   18  C   UNL     1      43.424  -9.297  13.866  1.00  0.00     0.001 A 
HETATM   19  C   UNL     1      43.683  -9.866  12.617  1.00  0.00     0.007 A 
ENDBRANCH  13  14
ENDBRANCH   9  11
ENDBRANCH   3   7
BRANCH   1  20
HETATM   20  O   UNL     1      39.723 -14.620   5.389  1.00  0.00    -0.355 OA
HETATM   21  C   UNL     1      40.551 -15.636   5.943  1.00  0.00     0.210 C 
ENDBRANCH   1  20
BRANCH   6  22
HETATM   22  C   UNL     1      39.828 -13.657   2.751  1.00  0.00     0.013 A 
HETATM   23  C   UNL     1      38.672 -13.492   1.952  1.00  0.00     0.152 A 
HETATM   24  N   UNL     1      38.562 -14.424   1.000  1.00  0.00    -0.187 NA
HETATM   25  N   UNL     1      39.660 -15.174   1.169  1.00  0.00    -0.289 N 
HETATM   26  H   UNL     1      39.811 -15.952   0.536  1.00  0.00     0.188 HD
HETATM   27  C   UNL     1      40.446 -14.765   2.207  1.00  0.00     0.123 A 
ENDBRANCH   6  22
TORSDOF 5
ENDMDL
