MODEL 1
REMARK VINA RESULT:      -8.9      0.000      0.000
REMARK  7 active torsions:
REMARK  status: ('A' for Active; 'I' for Inactive)
REMARK    1  A    between atoms: C_2  and  C_3 
REMARK    2  A    between atoms: C_4  and  O_5 
REMARK    3  A    between atoms: C_7  and  O_8 
REMARK    4  A    between atoms: C_9  and  C_10 
REMARK    5  A    between atoms: C_14  and  C_15 
REMARK    6  A    between atoms: C_19  and  C_20 
REMARK    7  A    between atoms: N_22  and  C_23 
ROOT
HETATM    1  C   UNL     1      41.023 -14.165   1.971  1.00  0.00     0.103 A 
HETATM    2  N   UNL     1      40.121 -13.374   2.584  1.00  0.00    -0.173 NA
HETATM    3  N   UNL     1      40.097 -13.801   3.851  1.00  0.00    -0.272 N 
HETATM    4  H   UNL     1      39.489 -13.318   4.508  1.00  0.00     0.189 HD
HETATM    5  C   UNL     1      40.895 -14.876   4.087  1.00  0.00     0.147 A 
HETATM    6  C   UNL     1      41.505 -15.159   2.883  1.00  0.00     0.042 A 
ENDROOT
BRANCH   1   7
HETATM    7  C   UNL     1      41.338 -13.940   0.557  1.00  0.00     0.029 A 
HETATM    8  C   UNL     1      42.040 -12.819   0.101  1.00  0.00     0.081 A 
HETATM    9  C   UNL     1      42.345 -12.674  -1.254  1.00  0.00     0.074 A 
HETATM   10  C   UNL     1      41.921 -13.634  -2.172  1.00  0.00     0.074 A 
HETATM   11  C   UNL     1      41.168 -14.739  -1.765  1.00  0.00    -0.024 A 
HETATM   12  C   UNL     1      40.898 -14.883  -0.391  1.00  0.00     0.026 A 
BRANCH   8  13
HETATM   13  O   UNL     1      42.421 -11.838   0.976  1.00  0.00    -0.360 OA
HETATM   14  H   UNL     1      42.059 -12.039   1.855  1.00  0.00     0.217 HD
ENDBRANCH   8  13
BRANCH  10  15
HETATM   15  O   UNL     1      42.283 -13.412  -3.470  1.00  0.00    -0.360 OA
HETATM   16  H   UNL     1      42.650 -12.519  -3.556  1.00  0.00     0.217 HD
ENDBRANCH  10  15
BRANCH  11  17
HETATM   17  C   UNL     1      40.635 -15.781  -2.717  1.00  0.00     0.037 C 
HETATM   18  C   UNL     1      39.431 -15.278  -3.498  1.00  0.00     0.010 C 
ENDBRANCH  11  17
ENDBRANCH   1   7
BRANCH   6  19
HETATM   19  C   UNL     1      42.432 -16.247   2.611  1.00  0.00     0.016 A 
HETATM   20  C   UNL     1      42.312 -17.571   2.958  1.00  0.00     0.132 A 
HETATM   21  N   UNL     1      43.456 -18.209   2.522  1.00  0.00    -0.245 N 
HETATM   22  N   UNL     1      44.278 -17.347   1.863  1.00  0.00    -0.179 NA
HETATM   23  C   UNL     1      43.654 -16.170   1.926  1.00  0.00     0.153 A 
BRANCH  21  24
HETATM   24  C   UNL     1      43.819 -19.573   2.707  1.00  0.00     0.058 A 
HETATM   25  C   UNL     1      43.540 -20.540   1.730  1.00  0.00     0.031 A 
HETATM   26  C   UNL     1      43.896 -21.875   1.943  1.00  0.00     0.002 A 
HETATM   27  C   UNL     1      44.526 -22.254   3.127  1.00  0.00     0.000 A 
HETATM   28  C   UNL     1      44.808 -21.299   4.102  1.00  0.00     0.002 A 
HETATM   29  C   UNL     1      44.459 -19.963   3.894  1.00  0.00     0.031 A 
ENDBRANCH  21  24
ENDBRANCH   6  19
BRANCH   5  30
HETATM   30  C   UNL     1      40.938 -15.487   5.417  1.00  0.00     0.435 C 
HETATM   31  F   UNL     1      40.210 -14.770   6.313  1.00  0.00    -0.165 F 
HETATM   32  F   UNL     1      40.436 -16.745   5.426  1.00  0.00    -0.165 F 
HETATM   33  F   UNL     1      42.199 -15.552   5.911  1.00  0.00    -0.165 F 
ENDBRANCH   5  30
TORSDOF 7
ENDMDL
MODEL 2
REMARK VINA RESULT:      -8.9      4.238      7.866
REMARK  7 active torsions:
REMARK  status: ('A' for Active; 'I' for Inactive)
REMARK    1  A    between atoms: C_2  and  C_3 
REMARK    2  A    between atoms: C_4  and  O_5 
REMARK    3  A    between atoms: C_7  and  O_8 
REMARK    4  A    between atoms: C_9  and  C_10 
REMARK    5  A    between atoms: C_14  and  C_15 
REMARK    6  A    between atoms: C_19  and  C_20 
REMARK    7  A    between atoms: N_22  and  C_23 
ROOT
HETATM    1  C   UNL     1      44.227 -19.652   5.205  1.00  0.00     0.103 A 
HETATM    2  N   UNL     1      44.588 -20.856   5.693  1.00  0.00    -0.173 NA
HETATM    3  N   UNL     1      44.686 -21.645   4.618  1.00  0.00    -0.272 N 
HETATM    4  H   UNL     1      44.975 -22.610   4.757  1.00  0.00     0.189 HD
HETATM    5  C   UNL     1      44.347 -21.034   3.452  1.00  0.00     0.147 A 
HETATM    6  C   UNL     1      44.023 -19.737   3.790  1.00  0.00     0.042 A 
ENDROOT
BRANCH   1   7
HETATM    7  C   UNL     1      44.072 -18.518   6.122  1.00  0.00     0.029 A 
HETATM    8  C   UNL     1      43.807 -18.673   7.487  1.00  0.00     0.081 A 
HETATM    9  C   UNL     1      43.706 -17.559   8.323  1.00  0.00     0.074 A 
HETATM   10  C   UNL     1      43.837 -16.275   7.793  1.00  0.00     0.074 A 
HETATM   11  C   UNL     1      44.046 -16.076   6.425  1.00  0.00    -0.024 A 
HETATM   12  C   UNL     1      44.175 -17.213   5.606  1.00  0.00     0.026 A 
BRANCH   8  13
HETATM   13  O   UNL     1      43.622 -19.920   8.020  1.00  0.00    -0.360 OA
HETATM   14  H   UNL     1      43.430 -19.835   8.968  1.00  0.00     0.217 HD
ENDBRANCH   8  13
BRANCH  10  15
HETATM   15  O   UNL     1      43.740 -15.252   8.692  1.00  0.00    -0.360 OA
HETATM   16  H   UNL     1      44.536 -14.700   8.641  1.00  0.00     0.217 HD
ENDBRANCH  10  15
BRANCH  11  17
HETATM   17  C   UNL     1      44.140 -14.713   5.786  1.00  0.00     0.037 C 
HETATM   18  C   UNL     1      43.343 -14.631   4.493  1.00  0.00     0.010 C 
ENDBRANCH  11  17
ENDBRANCH   1   7
BRANCH   6  19
HETATM   19  C   UNL     1      43.562 -18.691   2.889  1.00  0.00     0.016 A 
HETATM   20  C   UNL     1      42.383 -17.988   2.937  1.00  0.00     0.132 A 
HETATM   21  N   UNL     1      42.376 -17.136   1.851  1.00  0.00    -0.245 N 
HETATM   22  N   UNL     1      43.534 -17.234   1.142  1.00  0.00    -0.179 NA
HETATM   23  C   UNL     1      44.238 -18.175   1.773  1.00  0.00     0.153 A 
BRANCH  21  24
HETATM   24  C   UNL     1      41.338 -16.252   1.441  1.00  0.00     0.058 A 
HETATM   25  C   UNL     1      41.424 -15.533   0.240  1.00  0.00     0.031 A 
HETATM   26  C   UNL     1      40.396 -14.660  -0.130  1.00  0.00     0.002 A 
HETATM   27  C   UNL     1      39.282 -14.499   0.692  1.00  0.00     0.000 A 
HETATM   28  C   UNL     1      39.188 -15.211   1.885  1.00  0.00     0.002 A 
HETATM   29  C   UNL     1      40.209 -16.086   2.260  1.00  0.00     0.031 A 
ENDBRANCH  21  24
ENDBRANCH   6  19
BRANCH   5  30
HETATM   30  C   UNL     1      44.358 -21.785   2.194  1.00  0.00     0.435 C 
HETATM   31  F   UNL     1      44.719 -23.080   2.395  1.00  0.00    -0.165 F 
HETATM   32  F   UNL     1      43.144 -21.808   1.594  1.00  0.00    -0.165 F 
HETATM   33  F   UNL     1      45.239 -21.273   1.300  1.00  0.00    -0.165 F 
ENDBRANCH   5  30
TORSDOF 7
ENDMDL
MODEL 3
REMARK VINA RESULT:      -8.8      3.611      7.055
REMARK  7 active torsions:
REMARK  status: ('A' for Active; 'I' for Inactive)
REMARK    1  A    between atoms: C_2  and  C_3 
REMARK    2  A    between atoms: C_4  and  O_5 
REMARK    3  A    between atoms: C_7  and  O_8 
REMARK    4  A    between atoms: C_9  and  C_10 
REMARK    5  A    between atoms: C_14  and  C_15 
REMARK    6  A    between atoms: C_19  and  C_20 
REMARK    7  A    between atoms: N_22  and  C_23 
ROOT
HETATM    1  C   UNL     1      43.675 -16.814   6.018  1.00  0.00     0.103 A 
HETATM    2  N   UNL     1      44.289 -16.207   7.054  1.00  0.00    -0.173 NA
HETATM    3  N   UNL     1      43.829 -14.951   7.034  1.00  0.00    -0.272 N 
HETATM    4  H   UNL     1      44.150 -14.312   7.757  1.00  0.00     0.189 HD
HETATM    5  C   UNL     1      42.989 -14.686   5.999  1.00  0.00     0.147 A 
HETATM    6  C   UNL     1      42.875 -15.869   5.300  1.00  0.00     0.042 A 
ENDROOT
BRANCH   1   7
HETATM    7  C   UNL     1      43.918 -18.238   5.770  1.00  0.00     0.029 A 
HETATM    8  C   UNL     1      43.848 -19.210   6.774  1.00  0.00     0.081 A 
HETATM    9  C   UNL     1      44.052 -20.559   6.474  1.00  0.00     0.074 A 
HETATM   10  C   UNL     1      44.362 -20.945   5.170  1.00  0.00     0.074 A 
HETATM   11  C   UNL     1      44.498 -19.998   4.150  1.00  0.00    -0.024 A 
HETATM   12  C   UNL     1      44.258 -18.648   4.467  1.00  0.00     0.026 A 
BRANCH   8  13
HETATM   13  O   UNL     1      43.597 -18.850   8.071  1.00  0.00    -0.360 OA
HETATM   14  H   UNL     1      42.752 -18.372   8.108  1.00  0.00     0.217 HD
ENDBRANCH   8  13
BRANCH  10  15
HETATM   15  O   UNL     1      44.527 -22.286   4.973  1.00  0.00    -0.360 OA
HETATM   16  H   UNL     1      44.618 -22.730   5.830  1.00  0.00     0.217 HD
ENDBRANCH  10  15
BRANCH  11  17
HETATM   17  C   UNL     1      44.886 -20.348   2.735  1.00  0.00     0.037 C 
HETATM   18  C   UNL     1      43.683 -20.746   1.895  1.00  0.00     0.010 C 
ENDBRANCH  11  17
ENDBRANCH   1   7
BRANCH   6  19
HETATM   19  C   UNL     1      42.106 -16.091   4.083  1.00  0.00     0.016 A 
HETATM   20  C   UNL     1      42.159 -15.385   2.906  1.00  0.00     0.132 A 
HETATM   21  N   UNL     1      41.218 -15.939   2.060  1.00  0.00    -0.245 N 
HETATM   22  N   UNL     1      40.605 -17.007   2.640  1.00  0.00    -0.179 NA
HETATM   23  C   UNL     1      41.143 -17.086   3.858  1.00  0.00     0.153 A 
BRANCH  21  24
HETATM   24  C   UNL     1      40.860 -15.509   0.751  1.00  0.00     0.058 A 
HETATM   25  C   UNL     1      41.422 -16.100  -0.390  1.00  0.00     0.031 A 
HETATM   26  C   UNL     1      41.062 -15.647  -1.663  1.00  0.00     0.002 A 
HETATM   27  C   UNL     1      40.147 -14.606  -1.806  1.00  0.00     0.000 A 
HETATM   28  C   UNL     1      39.583 -14.015  -0.678  1.00  0.00     0.002 A 
HETATM   29  C   UNL     1      39.935 -14.464   0.597  1.00  0.00     0.031 A 
ENDBRANCH  21  24
ENDBRANCH   6  19
BRANCH   5  30
HETATM   30  C   UNL     1      42.442 -13.340   5.817  1.00  0.00     0.435 C 
HETATM   31  F   UNL     1      41.084 -13.361   5.773  1.00  0.00    -0.165 F 
HETATM   32  F   UNL     1      42.785 -12.501   6.824  1.00  0.00    -0.165 F 
HETATM   33  F   UNL     1      42.856 -12.770   4.659  1.00  0.00    -0.165 F 
ENDBRANCH   5  30
TORSDOF 7
ENDMDL
MODEL 4
REMARK VINA RESULT:      -8.7      2.232      3.002
REMARK  7 active torsions:
REMARK  status: ('A' for Active; 'I' for Inactive)
REMARK    1  A    between atoms: C_2  and  C_3 
REMARK    2  A    between atoms: C_4  and  O_5 
REMARK    3  A    between atoms: C_7  and  O_8 
REMARK    4  A    between atoms: C_9  and  C_10 
REMARK    5  A    between atoms: C_14  and  C_15 
REMARK    6  A    between atoms: C_19  and  C_20 
REMARK    7  A    between atoms: N_22  and  C_23 
ROOT
HETATM    1  C   UNL     1      41.942 -14.144   4.251  1.00  0.00     0.103 A 
HETATM    2  N   UNL     1      41.720 -13.264   5.249  1.00  0.00    -0.173 NA
HETATM    3  N   UNL     1      42.483 -13.694   6.260  1.00  0.00    -0.272 N 
HETATM    4  H   UNL     1      42.487 -13.153   7.120  1.00  0.00     0.189 HD
HETATM    5  C   UNL     1      43.150 -14.849   5.996  1.00  0.00     0.147 A 
HETATM    6  C   UNL     1      42.812 -15.188   4.703  1.00  0.00     0.042 A 
ENDROOT
BRANCH   1   7
HETATM    7  C   UNL     1      41.287 -13.945   2.955  1.00  0.00     0.029 A 
HETATM    8  C   UNL     1      40.227 -14.740   2.506  1.00  0.00     0.081 A 
HETATM    9  C   UNL     1      39.615 -14.482   1.278  1.00  0.00     0.074 A 
HETATM   10  C   UNL     1      40.080 -13.445   0.470  1.00  0.00     0.074 A 
HETATM   11  C   UNL     1      41.174 -12.664   0.857  1.00  0.00    -0.024 A 
HETATM   12  C   UNL     1      41.756 -12.920   2.112  1.00  0.00     0.026 A 
BRANCH   8  13
HETATM   13  O   UNL     1      39.787 -15.796   3.258  1.00  0.00    -0.360 OA
HETATM   14  H   UNL     1      39.033 -16.213   2.808  1.00  0.00     0.217 HD
ENDBRANCH   8  13
BRANCH  10  15
HETATM   15  O   UNL     1      39.406 -13.260  -0.703  1.00  0.00    -0.360 OA
HETATM   16  H   UNL     1      38.709 -12.598  -0.575  1.00  0.00     0.217 HD
ENDBRANCH  10  15
BRANCH  11  17
HETATM   17  C   UNL     1      41.757 -11.565   0.002  1.00  0.00     0.037 C 
HETATM   18  C   UNL     1      42.675 -12.111  -1.080  1.00  0.00     0.010 C 
ENDBRANCH  11  17
ENDBRANCH   1   7
BRANCH   6  19
HETATM   19  C   UNL     1      43.248 -16.367   3.969  1.00  0.00     0.016 A 
HETATM   20  C   UNL     1      43.294 -17.669   4.406  1.00  0.00     0.132 A 
HETATM   21  N   UNL     1      43.815 -18.423   3.374  1.00  0.00    -0.245 N 
HETATM   22  N   UNL     1      44.054 -17.655   2.276  1.00  0.00    -0.179 NA
HETATM   23  C   UNL     1      43.714 -16.420   2.647  1.00  0.00     0.153 A 
BRANCH  21  24
HETATM   24  C   UNL     1      44.112 -19.816   3.373  1.00  0.00     0.058 A 
HETATM   25  C   UNL     1      43.920 -20.602   2.227  1.00  0.00     0.031 A 
HETATM   26  C   UNL     1      44.206 -21.970   2.260  1.00  0.00     0.002 A 
HETATM   27  C   UNL     1      44.680 -22.561   3.429  1.00  0.00     0.000 A 
HETATM   28  C   UNL     1      44.875 -21.787   4.571  1.00  0.00     0.002 A 
HETATM   29  C   UNL     1      44.595 -20.419   4.545  1.00  0.00     0.031 A 
ENDBRANCH  21  24
ENDBRANCH   6  19
BRANCH   5  30
HETATM   30  C   UNL     1      43.989 -15.469   7.023  1.00  0.00     0.435 C 
HETATM   31  F   UNL     1      44.374 -14.562   7.960  1.00  0.00    -0.165 F 
HETATM   32  F   UNL     1      43.348 -16.462   7.685  1.00  0.00    -0.165 F 
HETATM   33  F   UNL     1      45.126 -15.997   6.507  1.00  0.00    -0.165 F 
ENDBRANCH   5  30
TORSDOF 7
ENDMDL
MODEL 5
REMARK VINA RESULT:      -8.4      1.039      2.024
REMARK  7 active torsions:
REMARK  status: ('A' for Active; 'I' for Inactive)
REMARK    1  A    between atoms: C_2  and  C_3 
REMARK    2  A    between atoms: C_4  and  O_5 
REMARK    3  A    between atoms: C_7  and  O_8 
REMARK    4  A    between atoms: C_9  and  C_10 
REMARK    5  A    between atoms: C_14  and  C_15 
REMARK    6  A    between atoms: C_19  and  C_20 
REMARK    7  A    between atoms: N_22  and  C_23 
ROOT
HETATM    1  C   UNL     1      41.059 -14.215   1.948  1.00  0.00     0.103 A 
HETATM    2  N   UNL     1      40.163 -13.406   2.549  1.00  0.00    -0.173 NA
HETATM    3  N   UNL     1      40.162 -13.789   3.830  1.00  0.00    -0.272 N 
HETATM    4  H   UNL     1      39.565 -13.286   4.480  1.00  0.00     0.189 HD
HETATM    5  C   UNL     1      40.969 -14.853   4.089  1.00  0.00     0.147 A 
HETATM    6  C   UNL     1      41.559 -15.175   2.885  1.00  0.00     0.042 A 
ENDROOT
BRANCH   1   7
HETATM    7  C   UNL     1      41.348 -14.038   0.522  1.00  0.00     0.029 A 
HETATM    8  C   UNL     1      41.062 -15.012  -0.441  1.00  0.00     0.081 A 
HETATM    9  C   UNL     1      41.324 -14.775  -1.792  1.00  0.00     0.074 A 
HETATM   10  C   UNL     1      41.907 -13.572  -2.190  1.00  0.00     0.074 A 
HETATM   11  C   UNL     1      42.260 -12.596  -1.252  1.00  0.00    -0.024 A 
HETATM   12  C   UNL     1      41.959 -12.842   0.100  1.00  0.00     0.026 A 
BRANCH   8  13
HETATM   13  O   UNL     1      40.539 -16.221  -0.069  1.00  0.00    -0.360 OA
HETATM   14  H   UNL     1      40.412 -16.768  -0.862  1.00  0.00     0.217 HD
ENDBRANCH   8  13
BRANCH  10  15
HETATM   15  O   UNL     1      42.108 -13.427  -3.532  1.00  0.00    -0.360 OA
HETATM   16  H   UNL     1      42.976 -13.022  -3.688  1.00  0.00     0.217 HD
ENDBRANCH  10  15
BRANCH  11  17
HETATM   17  C   UNL     1      42.943 -11.300  -1.615  1.00  0.00     0.037 C 
HETATM   18  C   UNL     1      41.945 -10.181  -1.868  1.00  0.00     0.010 C 
ENDBRANCH  11  17
ENDBRANCH   1   7
BRANCH   6  19
HETATM   19  C   UNL     1      42.485 -16.269   2.635  1.00  0.00     0.016 A 
HETATM   20  C   UNL     1      42.354 -17.590   2.989  1.00  0.00     0.132 A 
HETATM   21  N   UNL     1      43.502 -18.236   2.576  1.00  0.00    -0.245 N 
HETATM   22  N   UNL     1      44.338 -17.382   1.923  1.00  0.00    -0.179 NA
HETATM   23  C   UNL     1      43.718 -16.202   1.969  1.00  0.00     0.153 A 
BRANCH  21  24
HETATM   24  C   UNL     1      43.856 -19.601   2.774  1.00  0.00     0.058 A 
HETATM   25  C   UNL     1      43.611 -20.568   1.789  1.00  0.00     0.031 A 
HETATM   26  C   UNL     1      43.956 -21.904   2.017  1.00  0.00     0.002 A 
HETATM   27  C   UNL     1      44.542 -22.282   3.223  1.00  0.00     0.000 A 
HETATM   28  C   UNL     1      44.790 -21.327   4.206  1.00  0.00     0.002 A 
HETATM   29  C   UNL     1      44.451 -19.990   3.984  1.00  0.00     0.031 A 
ENDBRANCH  21  24
ENDBRANCH   6  19
BRANCH   5  30
HETATM   30  C   UNL     1      41.036 -15.417   5.439  1.00  0.00     0.435 C 
HETATM   31  F   UNL     1      42.311 -15.415   5.911  1.00  0.00    -0.165 F 
HETATM   32  F   UNL     1      40.290 -14.721   6.329  1.00  0.00    -0.165 F 
HETATM   33  F   UNL     1      40.613 -16.705   5.478  1.00  0.00    -0.165 F 
ENDBRANCH   5  30
TORSDOF 7
ENDMDL
MODEL 6
REMARK VINA RESULT:      -8.3      2.542      3.444
REMARK  7 active torsions:
REMARK  status: ('A' for Active; 'I' for Inactive)
REMARK    1  A    between atoms: C_2  and  C_3 
REMARK    2  A    between atoms: C_4  and  O_5 
REMARK    3  A    between atoms: C_7  and  O_8 
REMARK    4  A    between atoms: C_9  and  C_10 
REMARK    5  A    between atoms: C_14  and  C_15 
REMARK    6  A    between atoms: C_19  and  C_20 
REMARK    7  A    between atoms: N_22  and  C_23 
ROOT
HETATM    1  C   UNL     1      41.887 -13.617   4.403  1.00  0.00     0.103 A 
HETATM    2  N   UNL     1      42.102 -12.387   4.911  1.00  0.00    -0.173 NA
HETATM    3  N   UNL     1      42.985 -12.575   5.898  1.00  0.00    -0.272 N 
HETATM    4  H   UNL     1      43.311 -11.760   6.411  1.00  0.00     0.189 HD
HETATM    5  C   UNL     1      43.314 -13.879   6.104  1.00  0.00     0.147 A 
HETATM    6  C   UNL     1      42.607 -14.595   5.162  1.00  0.00     0.042 A 
ENDROOT
BRANCH   1   7
HETATM    7  C   UNL     1      40.990 -13.777   3.254  1.00  0.00     0.029 A 
HETATM    8  C   UNL     1      39.706 -13.220   3.207  1.00  0.00     0.081 A 
HETATM    9  C   UNL     1      38.908 -13.371   2.072  1.00  0.00     0.074 A 
HETATM   10  C   UNL     1      39.373 -14.110   0.984  1.00  0.00     0.074 A 
HETATM   11  C   UNL     1      40.626 -14.729   1.015  1.00  0.00    -0.024 A 
HETATM   12  C   UNL     1      41.428 -14.539   2.155  1.00  0.00     0.026 A 
BRANCH   8  13
HETATM   13  O   UNL     1      39.208 -12.536   4.283  1.00  0.00    -0.360 OA
HETATM   14  H   UNL     1      39.225 -11.584   4.088  1.00  0.00     0.217 HD
ENDBRANCH   8  13
BRANCH  10  15
HETATM   15  O   UNL     1      38.527 -14.186  -0.085  1.00  0.00    -0.360 OA
HETATM   16  H   UNL     1      38.904 -13.695  -0.832  1.00  0.00     0.217 HD
ENDBRANCH  10  15
BRANCH  11  17
HETATM   17  C   UNL     1      41.160 -15.585  -0.107  1.00  0.00     0.037 C 
HETATM   18  C   UNL     1      41.545 -16.977   0.370  1.00  0.00     0.010 C 
ENDBRANCH  11  17
ENDBRANCH   1   7
BRANCH   6  19
HETATM   19  C   UNL     1      42.597 -16.041   4.995  1.00  0.00     0.016 A 
HETATM   20  C   UNL     1      43.432 -16.812   4.224  1.00  0.00     0.132 A 
HETATM   21  N   UNL     1      43.009 -18.120   4.353  1.00  0.00    -0.245 N 
HETATM   22  N   UNL     1      41.965 -18.215   5.221  1.00  0.00    -0.179 NA
HETATM   23  C   UNL     1      41.723 -16.958   5.597  1.00  0.00     0.153 A 
BRANCH  21  24
HETATM   24  C   UNL     1      43.524 -19.273   3.695  1.00  0.00     0.058 A 
HETATM   25  C   UNL     1      44.422 -20.138   4.336  1.00  0.00     0.031 A 
HETATM   26  C   UNL     1      44.923 -21.255   3.660  1.00  0.00     0.002 A 
HETATM   27  C   UNL     1      44.535 -21.514   2.347  1.00  0.00     0.000 A 
HETATM   28  C   UNL     1      43.641 -20.661   1.704  1.00  0.00     0.002 A 
HETATM   29  C   UNL     1      43.135 -19.544   2.374  1.00  0.00     0.031 A 
ENDBRANCH  21  24
ENDBRANCH   6  19
BRANCH   5  30
HETATM   30  C   UNL     1      44.234 -14.247   7.183  1.00  0.00     0.435 C 
HETATM   31  F   UNL     1      43.802 -15.354   7.843  1.00  0.00    -0.165 F 
HETATM   32  F   UNL     1      45.479 -14.526   6.729  1.00  0.00    -0.165 F 
HETATM   33  F   UNL     1      44.354 -13.266   8.111  1.00  0.00    -0.165 F 
ENDBRANCH   5  30
TORSDOF 7
ENDMDL
MODEL 7
REMARK VINA RESULT:      -8.2      3.335      6.549
REMARK  7 active torsions:
REMARK  status: ('A' for Active; 'I' for Inactive)
REMARK    1  A    between atoms: C_2  and  C_3 
REMARK    2  A    between atoms: C_4  and  O_5 
REMARK    3  A    between atoms: C_7  and  O_8 
REMARK    4  A    between atoms: C_9  and  C_10 
REMARK    5  A    between atoms: C_14  and  C_15 
REMARK    6  A    between atoms: C_19  and  C_20 
REMARK    7  A    between atoms: N_22  and  C_23 
ROOT
HETATM    1  C   UNL     1      43.028 -15.424   5.288  1.00  0.00     0.103 A 
HETATM    2  N   UNL     1      43.406 -14.803   6.424  1.00  0.00    -0.173 NA
HETATM    3  N   UNL     1      42.796 -13.614   6.383  1.00  0.00    -0.272 N 
HETATM    4  H   UNL     1      42.926 -12.981   7.168  1.00  0.00     0.189 HD
HETATM    5  C   UNL     1      42.084 -13.397   5.245  1.00  0.00     0.147 A 
HETATM    6  C   UNL     1      42.223 -14.546   4.494  1.00  0.00     0.042 A 
ENDROOT
BRANCH   1   7
HETATM    7  C   UNL     1      43.486 -16.792   5.027  1.00  0.00     0.029 A 
HETATM    8  C   UNL     1      43.905 -17.662   6.039  1.00  0.00     0.081 A 
HETATM    9  C   UNL     1      44.295 -18.968   5.738  1.00  0.00     0.074 A 
HETATM   10  C   UNL     1      44.302 -19.407   4.414  1.00  0.00     0.074 A 
HETATM   11  C   UNL     1      43.945 -18.551   3.368  1.00  0.00    -0.024 A 
HETATM   12  C   UNL     1      43.525 -17.248   3.696  1.00  0.00     0.026 A 
BRANCH   8  13
HETATM   13  O   UNL     1      43.956 -17.238   7.340  1.00  0.00    -0.360 OA
HETATM   14  H   UNL     1      43.690 -17.969   7.922  1.00  0.00     0.217 HD
ENDBRANCH   8  13
BRANCH  10  15
HETATM   15  O   UNL     1      44.683 -20.704   4.222  1.00  0.00    -0.360 OA
HETATM   16  H   UNL     1      44.250 -21.269   4.881  1.00  0.00     0.217 HD
ENDBRANCH  10  15
BRANCH  11  17
HETATM   17  C   UNL     1      43.986 -18.949   1.913  1.00  0.00     0.037 C 
HETATM   18  C   UNL     1      43.645 -17.788   0.992  1.00  0.00     0.010 C 
ENDBRANCH  11  17
ENDBRANCH   1   7
BRANCH   6  19
HETATM   19  C   UNL     1      41.669 -14.793   3.171  1.00  0.00     0.016 A 
HETATM   20  C   UNL     1      42.203 -14.455   1.951  1.00  0.00     0.132 A 
HETATM   21  N   UNL     1      41.299 -14.857   0.988  1.00  0.00    -0.245 N 
HETATM   22  N   UNL     1      40.231 -15.487   1.550  1.00  0.00    -0.179 NA
HETATM   23  C   UNL     1      40.462 -15.438   2.863  1.00  0.00     0.153 A 
BRANCH  21  24
HETATM   24  C   UNL     1      41.381 -14.668  -0.421  1.00  0.00     0.058 A 
HETATM   25  C   UNL     1      41.837 -13.460  -0.968  1.00  0.00     0.031 A 
HETATM   26  C   UNL     1      41.894 -13.296  -2.356  1.00  0.00     0.002 A 
HETATM   27  C   UNL     1      41.496 -14.330  -3.202  1.00  0.00     0.000 A 
HETATM   28  C   UNL     1      41.044 -15.533  -2.666  1.00  0.00     0.002 A 
HETATM   29  C   UNL     1      40.987 -15.705  -1.281  1.00  0.00     0.031 A 
ENDBRANCH  21  24
ENDBRANCH   6  19
BRANCH   5  30
HETATM   30  C   UNL     1      41.399 -12.121   5.033  1.00  0.00     0.435 C 
HETATM   31  F   UNL     1      41.702 -11.229   6.014  1.00  0.00    -0.165 F 
HETATM   32  F   UNL     1      41.741 -11.538   3.859  1.00  0.00    -0.165 F 
HETATM   33  F   UNL     1      40.050 -12.255   5.039  1.00  0.00    -0.165 F 
ENDBRANCH   5  30
TORSDOF 7
ENDMDL
MODEL 8
REMARK VINA RESULT:      -8.1      1.914      2.739
REMARK  7 active torsions:
REMARK  status: ('A' for Active; 'I' for Inactive)
REMARK    1  A    between atoms: C_2  and  C_3 
REMARK    2  A    between atoms: C_4  and  O_5 
REMARK    3  A    between atoms: C_7  and  O_8 
REMARK    4  A    between atoms: C_9  and  C_10 
REMARK    5  A    between atoms: C_14  and  C_15 
REMARK    6  A    between atoms: C_19  and  C_20 
REMARK    7  A    between atoms: N_22  and  C_23 
ROOT
HETATM    1  C   UNL     1      39.650 -13.402   1.968  1.00  0.00     0.103 A 
HETATM    2  N   UNL     1      39.181 -12.296   2.581  1.00  0.00    -0.173 NA
HETATM    3  N   UNL     1      39.439 -12.489   3.879  1.00  0.00    -0.272 N 
HETATM    4  H   UNL     1      39.185 -11.753   4.532  1.00  0.00     0.189 HD
HETATM    5  C   UNL     1      39.999 -13.697   4.157  1.00  0.00     0.147 A 
HETATM    6  C   UNL     1      40.137 -14.333   2.941  1.00  0.00     0.042 A 
ENDROOT
BRANCH   1   7
HETATM    7  C   UNL     1      39.570 -13.506   0.508  1.00  0.00     0.029 A 
HETATM    8  C   UNL     1      38.381 -13.795  -0.172  1.00  0.00     0.081 A 
HETATM    9  C   UNL     1      38.354 -13.845  -1.567  1.00  0.00     0.074 A 
HETATM   10  C   UNL     1      39.526 -13.639  -2.296  1.00  0.00     0.074 A 
HETATM   11  C   UNL     1      40.745 -13.404  -1.652  1.00  0.00    -0.024 A 
HETATM   12  C   UNL     1      40.744 -13.327  -0.247  1.00  0.00     0.026 A 
BRANCH   8  13
HETATM   13  O   UNL     1      37.231 -14.053   0.523  1.00  0.00    -0.360 OA
HETATM   14  H   UNL     1      36.479 -13.663   0.047  1.00  0.00     0.217 HD
ENDBRANCH   8  13
BRANCH  10  15
HETATM   15  O   UNL     1      39.395 -13.691  -3.654  1.00  0.00    -0.360 OA
HETATM   16  H   UNL     1      39.724 -12.865  -4.043  1.00  0.00     0.217 HD
ENDBRANCH  10  15
BRANCH  11  17
HETATM   17  C   UNL     1      42.053 -13.229  -2.383  1.00  0.00     0.037 C 
HETATM   18  C   UNL     1      42.860 -12.061  -1.838  1.00  0.00     0.010 C 
ENDBRANCH  11  17
ENDBRANCH   1   7
BRANCH   6  19
HETATM   19  C   UNL     1      40.661 -15.671   2.713  1.00  0.00     0.016 A 
HETATM   20  C   UNL     1      41.705 -16.294   3.352  1.00  0.00     0.132 A 
HETATM   21  N   UNL     1      41.856 -17.535   2.766  1.00  0.00    -0.245 N 
HETATM   22  N   UNL     1      40.910 -17.745   1.810  1.00  0.00    -0.179 NA
HETATM   23  C   UNL     1      40.200 -16.616   1.783  1.00  0.00     0.153 A 
BRANCH  21  24
HETATM   24  C   UNL     1      42.846 -18.519   3.047  1.00  0.00     0.058 A 
HETATM   25  C   UNL     1      43.535 -18.532   4.268  1.00  0.00     0.031 A 
HETATM   26  C   UNL     1      44.512 -19.502   4.511  1.00  0.00     0.002 A 
HETATM   27  C   UNL     1      44.809 -20.458   3.542  1.00  0.00     0.000 A 
HETATM   28  C   UNL     1      44.128 -20.453   2.327  1.00  0.00     0.002 A 
HETATM   29  C   UNL     1      43.148 -19.489   2.079  1.00  0.00     0.031 A 
ENDBRANCH  21  24
ENDBRANCH   6  19
BRANCH   5  30
HETATM   30  C   UNL     1      40.294 -14.073   5.541  1.00  0.00     0.435 C 
HETATM   31  F   UNL     1      39.855 -15.330   5.815  1.00  0.00    -0.165 F 
HETATM   32  F   UNL     1      41.622 -14.059   5.809  1.00  0.00    -0.165 F 
HETATM   33  F   UNL     1      39.693 -13.251   6.435  1.00  0.00    -0.165 F 
ENDBRANCH   5  30
TORSDOF 7
ENDMDL
MODEL 9
REMARK VINA RESULT:      -8.0      3.923      7.298
REMARK  7 active torsions:
REMARK  status: ('A' for Active; 'I' for Inactive)
REMARK    1  A    between atoms: C_2  and  C_3 
REMARK    2  A    between atoms: C_4  and  O_5 
REMARK    3  A    between atoms: C_7  and  O_8 
REMARK    4  A    between atoms: C_9  and  C_10 
REMARK    5  A    between atoms: C_14  and  C_15 
REMARK    6  A    between atoms: C_19  and  C_20 
REMARK    7  A    between atoms: N_22  and  C_23 
ROOT
HETATM    1  C   UNL     1      41.438 -17.017   2.952  1.00  0.00     0.103 A 
HETATM    2  N   UNL     1      40.357 -17.418   2.253  1.00  0.00    -0.173 NA
HETATM    3  N   UNL     1      39.663 -16.298   2.024  1.00  0.00    -0.272 N 
HETATM    4  H   UNL     1      38.807 -16.368   1.481  1.00  0.00     0.189 HD
HETATM    5  C   UNL     1      40.204 -15.187   2.592  1.00  0.00     0.147 A 
HETATM    6  C   UNL     1      41.353 -15.613   3.223  1.00  0.00     0.042 A 
ENDROOT
BRANCH   1   7
HETATM    7  C   UNL     1      42.454 -18.001   3.338  1.00  0.00     0.029 A 
HETATM    8  C   UNL     1      43.255 -18.674   2.409  1.00  0.00     0.081 A 
HETATM    9  C   UNL     1      44.234 -19.573   2.835  1.00  0.00     0.074 A 
HETATM   10  C   UNL     1      44.399 -19.834   4.195  1.00  0.00     0.074 A 
HETATM   11  C   UNL     1      43.580 -19.226   5.151  1.00  0.00    -0.024 A 
HETATM   12  C   UNL     1      42.621 -18.299   4.703  1.00  0.00     0.026 A 
BRANCH   8  13
HETATM   13  O   UNL     1      43.077 -18.473   1.067  1.00  0.00    -0.360 OA
HETATM   14  H   UNL     1      42.731 -19.289   0.668  1.00  0.00     0.217 HD
ENDBRANCH   8  13
BRANCH  10  15
HETATM   15  O   UNL     1      45.393 -20.715   4.513  1.00  0.00    -0.360 OA
HETATM   16  H   UNL     1      45.556 -20.688   5.468  1.00  0.00     0.217 HD
ENDBRANCH  10  15
BRANCH  11  17
HETATM   17  C   UNL     1      43.673 -19.509   6.630  1.00  0.00     0.037 C 
HETATM   18  C   UNL     1      44.397 -18.402   7.380  1.00  0.00     0.010 C 
ENDBRANCH  11  17
ENDBRANCH   1   7
BRANCH   6  19
HETATM   19  C   UNL     1      42.271 -14.797   4.005  1.00  0.00     0.016 A 
HETATM   20  C   UNL     1      42.183 -14.455   5.332  1.00  0.00     0.132 A 
HETATM   21  N   UNL     1      43.258 -13.636   5.612  1.00  0.00    -0.245 N 
HETATM   22  N   UNL     1      44.058 -13.487   4.520  1.00  0.00    -0.179 NA
HETATM   23  C   UNL     1      43.452 -14.185   3.559  1.00  0.00     0.153 A 
BRANCH  21  24
HETATM   24  C   UNL     1      43.561 -12.981   6.839  1.00  0.00     0.058 A 
HETATM   25  C   UNL     1      44.653 -13.376   7.626  1.00  0.00     0.031 A 
HETATM   26  C   UNL     1      44.919 -12.724   8.834  1.00  0.00     0.002 A 
HETATM   27  C   UNL     1      44.101 -11.680   9.264  1.00  0.00     0.000 A 
HETATM   28  C   UNL     1      43.016 -11.281   8.487  1.00  0.00     0.002 A 
HETATM   29  C   UNL     1      42.746 -11.926   7.277  1.00  0.00     0.031 A 
ENDBRANCH  21  24
ENDBRANCH   6  19
BRANCH   5  30
HETATM   30  C   UNL     1      39.531 -13.892   2.469  1.00  0.00     0.435 C 
HETATM   31  F   UNL     1      40.279 -13.014   1.750  1.00  0.00    -0.165 F 
HETATM   32  F   UNL     1      38.334 -13.988   1.841  1.00  0.00    -0.165 F 
HETATM   33  F   UNL     1      39.308 -13.314   3.674  1.00  0.00    -0.165 F 
ENDBRANCH   5  30
TORSDOF 7
ENDMDL
MODEL 10
REMARK VINA RESULT:      -7.7      3.066      6.910
REMARK  7 active torsions:
REMARK  status: ('A' for Active; 'I' for Inactive)
REMARK    1  A    between atoms: C_2  and  C_3 
REMARK    2  A    between atoms: C_4  and  O_5 
REMARK    3  A    between atoms: C_7  and  O_8 
REMARK    4  A    between atoms: C_9  and  C_10 
REMARK    5  A    between atoms: C_14  and  C_15 
REMARK    6  A    between atoms: C_19  and  C_20 
REMARK    7  A    between atoms: N_22  and  C_23 
ROOT
HETATM    1  C   UNL     1      41.057 -15.879   4.761  1.00  0.00     0.103 A 
HETATM    2  N   UNL     1      40.561 -16.120   5.991  1.00  0.00    -0.173 NA
HETATM    3  N   UNL     1      40.011 -14.961   6.371  1.00  0.00    -0.272 N 
HETATM    4  H   UNL     1      39.550 -14.924   7.276  1.00  0.00     0.189 HD
HETATM    5  C   UNL     1      40.176 -13.952   5.476  1.00  0.00     0.147 A 
HETATM    6  C   UNL     1      40.869 -14.501   4.418  1.00  0.00     0.042 A 
ENDROOT
BRANCH   1   7
HETATM    7  C   UNL     1      41.701 -16.965   4.016  1.00  0.00     0.029 A 
HETATM    8  C   UNL     1      41.227 -17.430   2.784  1.00  0.00     0.081 A 
HETATM    9  C   UNL     1      41.902 -18.443   2.100  1.00  0.00     0.074 A 
HETATM   10  C   UNL     1      43.039 -19.025   2.658  1.00  0.00     0.074 A 
HETATM   11  C   UNL     1      43.511 -18.628   3.913  1.00  0.00    -0.024 A 
HETATM   12  C   UNL     1      42.835 -17.585   4.572  1.00  0.00     0.026 A 
BRANCH   8  13
HETATM   13  O   UNL     1      40.083 -16.910   2.241  1.00  0.00    -0.360 OA
HETATM   14  H   UNL     1      40.252 -15.995   1.963  1.00  0.00     0.217 HD
ENDBRANCH   8  13
BRANCH  10  15
HETATM   15  O   UNL     1      43.638 -19.995   1.906  1.00  0.00    -0.360 OA
HETATM   16  H   UNL     1      43.060 -20.233   1.165  1.00  0.00     0.217 HD
ENDBRANCH  10  15
BRANCH  11  17
HETATM   17  C   UNL     1      44.702 -19.258   4.593  1.00  0.00     0.037 C 
HETATM   18  C   UNL     1      44.291 -20.159   5.747  1.00  0.00     0.010 C 
ENDBRANCH  11  17
ENDBRANCH   1   7
BRANCH   6  19
HETATM   19  C   UNL     1      41.316 -13.810   3.217  1.00  0.00     0.016 A 
HETATM   20  C   UNL     1      40.608 -13.562   2.067  1.00  0.00     0.132 A 
HETATM   21  N   UNL     1      41.463 -12.917   1.196  1.00  0.00    -0.245 N 
HETATM   22  N   UNL     1      42.677 -12.699   1.771  1.00  0.00    -0.179 NA
HETATM   23  C   UNL     1      42.579 -13.245   2.985  1.00  0.00     0.153 A 
BRANCH  21  24
HETATM   24  C   UNL     1      41.203 -12.512  -0.144  1.00  0.00     0.058 A 
HETATM   25  C   UNL     1      39.909 -12.564  -0.683  1.00  0.00     0.031 A 
HETATM   26  C   UNL     1      39.685 -12.174  -2.007  1.00  0.00     0.002 A 
HETATM   27  C   UNL     1      40.744 -11.734  -2.798  1.00  0.00     0.000 A 
HETATM   28  C   UNL     1      42.032 -11.677  -2.270  1.00  0.00     0.002 A 
HETATM   29  C   UNL     1      42.263 -12.063  -0.947  1.00  0.00     0.031 A 
ENDBRANCH  21  24
ENDBRANCH   6  19
BRANCH   5  30
HETATM   30  C   UNL     1      39.670 -12.610   5.774  1.00  0.00     0.435 C 
HETATM   31  F   UNL     1      39.047 -12.574   6.981  1.00  0.00    -0.165 F 
HETATM   32  F   UNL     1      40.657 -11.683   5.818  1.00  0.00    -0.165 F 
HETATM   33  F   UNL     1      38.762 -12.190   4.859  1.00  0.00    -0.165 F 
ENDBRANCH   5  30
TORSDOF 7
ENDMDL
