MODEL 1
REMARK VINA RESULT:      -9.2      0.000      0.000
REMARK  6 active torsions:
REMARK  status: ('A' for Active; 'I' for Inactive)
REMARK    1  A    between atoms: C_4  and  C_5 
REMARK    2  A    between atoms: C_7  and  N_8 
REMARK       I    between atoms: N_8  and  C_9 
REMARK    3  A    between atoms: C_9  and  C_10 
REMARK    4  A    between atoms: C_10  and  N_11 
REMARK    5  A    between atoms: C_10  and  C_15 
REMARK       I    between atoms: N_11  and  C_12 
REMARK       I    between atoms: C_12  and  N_13 
REMARK    6  A    between atoms: C_15  and  C_16 
ROOT
HETATM    1  N   UNL     1      44.827 -14.203   7.413  1.00  0.00    -0.325 N 
HETATM    2  C   UNL     1      43.818 -14.329   6.478  1.00  0.00     0.245 C 
HETATM    3  O   UNL     1      43.059 -13.433   6.109  1.00  0.00    -0.271 OA
HETATM    4  H   UNL     1      45.474 -14.990   7.477  1.00  0.00     0.169 HD
ENDROOT
BRANCH   2   5
HETATM    5  C   UNL     1      43.698 -15.736   5.846  1.00  0.00     0.182 C 
BRANCH   5   6
HETATM    6  N   UNL     1      43.359 -16.727   6.877  1.00  0.00    -0.334 N 
HETATM    7  C   UNL     1      44.182 -17.750   7.224  1.00  0.00     0.292 C 
HETATM    8  N   UNL     1      43.686 -18.493   8.241  1.00  0.00    -0.254 NA
HETATM    9  O   UNL     1      45.253 -18.005   6.691  1.00  0.00    -0.254 OA
HETATM   10  H   UNL     1      42.687 -18.643   8.246  1.00  0.00     0.128 HD
HETATM   11  H   UNL     1      44.229 -19.327   8.431  1.00  0.00     0.128 HD
HETATM   12  H   UNL     1      42.700 -16.438   7.585  1.00  0.00     0.164 HD
ENDBRANCH   5   6
BRANCH   5  13
HETATM   13  C   UNL     1      42.784 -15.809   4.607  1.00  0.00     0.073 C 
BRANCH  13  14
HETATM   14  C   UNL     1      43.073 -16.851   3.545  1.00  0.00    -0.056 A 
HETATM   15  C   UNL     1      42.702 -18.198   3.642  1.00  0.00     0.007 A 
HETATM   16  C   UNL     1      43.022 -19.099   2.621  1.00  0.00     0.001 A 
HETATM   17  C   UNL     1      43.697 -18.666   1.484  1.00  0.00     0.000 A 
HETATM   18  C   UNL     1      44.054 -17.327   1.362  1.00  0.00     0.001 A 
HETATM   19  C   UNL     1      43.742 -16.428   2.383  1.00  0.00     0.007 A 
ENDBRANCH  13  14
ENDBRANCH   5  13
ENDBRANCH   2   5
BRANCH   1  20
HETATM   20  C   UNL     1      45.120 -13.094   8.230  1.00  0.00     0.035 A 
HETATM   21  C   UNL     1      44.351 -12.705   9.332  1.00  0.00     0.045 A 
HETATM   22  C   UNL     1      44.709 -11.590  10.109  1.00  0.00     0.019 A 
HETATM   23  C   UNL     1      45.873 -10.883   9.779  1.00  0.00     0.016 A 
HETATM   24  C   UNL     1      46.648 -11.262   8.684  1.00  0.00     0.003 A 
HETATM   25  C   UNL     1      46.265 -12.356   7.908  1.00  0.00     0.029 A 
BRANCH  22  26
HETATM   26  C   UNL     1      43.893 -11.145  11.236  1.00  0.00     0.180 A 
HETATM   27  N   UNL     1      44.174 -10.257  12.173  1.00  0.00    -0.226 NA
HETATM   28  C   UNL     1      43.033 -10.201  12.942  1.00  0.00     0.063 A 
HETATM   29  C   UNL     1      42.943  -9.311  14.117  1.00  0.00     0.073 C 
HETATM   30  C   UNL     1      42.087 -11.058  12.424  1.00  0.00     0.076 A 
HETATM   31  O   UNL     1      42.633 -11.675  11.334  1.00  0.00    -0.294 OA
HETATM   32  C   UNL     1      40.705 -11.420  12.780  1.00  0.00     0.079 C 
ENDBRANCH  22  26
ENDBRANCH   1  20
TORSDOF 6
ENDMDL
MODEL 2
REMARK VINA RESULT:      -8.8      1.743      2.394
REMARK  6 active torsions:
REMARK  status: ('A' for Active; 'I' for Inactive)
REMARK    1  A    between atoms: C_4  and  C_5 
REMARK    2  A    between atoms: C_7  and  N_8 
REMARK       I    between atoms: N_8  and  C_9 
REMARK    3  A    between atoms: C_9  and  C_10 
REMARK    4  A    between atoms: C_10  and  N_11 
REMARK    5  A    between atoms: C_10  and  C_15 
REMARK       I    between atoms: N_11  and  C_12 
REMARK       I    between atoms: C_12  and  N_13 
REMARK    6  A    between atoms: C_15  and  C_16 
ROOT
HETATM    1  N   UNL     1      44.363 -14.356   7.257  1.00  0.00    -0.325 N 
HETATM    2  C   UNL     1      44.009 -14.444   5.925  1.00  0.00     0.245 C 
HETATM    3  O   UNL     1      44.137 -13.555   5.082  1.00  0.00    -0.271 OA
HETATM    4  H   UNL     1      44.355 -15.234   7.777  1.00  0.00     0.169 HD
ENDROOT
BRANCH   2   5
HETATM    5  C   UNL     1      43.436 -15.817   5.499  1.00  0.00     0.182 C 
BRANCH   5   6
HETATM    6  N   UNL     1      42.092 -16.001   6.065  1.00  0.00    -0.334 N 
HETATM    7  C   UNL     1      40.981 -15.414   5.548  1.00  0.00     0.292 C 
HETATM    8  N   UNL     1      39.851 -15.782   6.195  1.00  0.00    -0.254 NA
HETATM    9  O   UNL     1      40.970 -14.631   4.608  1.00  0.00    -0.254 OA
HETATM   10  H   UNL     1      39.922 -15.902   7.196  1.00  0.00     0.128 HD
HETATM   11  H   UNL     1      39.032 -15.264   5.900  1.00  0.00     0.128 HD
HETATM   12  H   UNL     1      41.933 -16.846   6.592  1.00  0.00     0.164 HD
ENDBRANCH   5   6
BRANCH   5  13
HETATM   13  C   UNL     1      43.505 -16.102   3.986  1.00  0.00     0.073 C 
BRANCH  13  14
HETATM   14  C   UNL     1      43.684 -17.532   3.519  1.00  0.00    -0.056 A 
HETATM   15  C   UNL     1      43.390 -17.981   2.225  1.00  0.00     0.007 A 
HETATM   16  C   UNL     1      43.570 -19.324   1.879  1.00  0.00     0.001 A 
HETATM   17  C   UNL     1      44.063 -20.232   2.811  1.00  0.00     0.000 A 
HETATM   18  C   UNL     1      44.381 -19.799   4.094  1.00  0.00     0.001 A 
HETATM   19  C   UNL     1      44.194 -18.461   4.443  1.00  0.00     0.007 A 
ENDBRANCH  13  14
ENDBRANCH   5  13
ENDBRANCH   2   5
BRANCH   1  20
HETATM   20  C   UNL     1      44.809 -13.223   7.963  1.00  0.00     0.035 A 
HETATM   21  C   UNL     1      44.017 -12.488   8.850  1.00  0.00     0.045 A 
HETATM   22  C   UNL     1      44.533 -11.371   9.530  1.00  0.00     0.019 A 
HETATM   23  C   UNL     1      45.873 -11.017   9.325  1.00  0.00     0.016 A 
HETATM   24  C   UNL     1      46.673 -11.743   8.445  1.00  0.00     0.003 A 
HETATM   25  C   UNL     1      46.139 -12.834   7.759  1.00  0.00     0.029 A 
BRANCH  22  26
HETATM   26  C   UNL     1      43.705 -10.566  10.426  1.00  0.00     0.180 A 
HETATM   27  N   UNL     1      42.537  -9.994  10.196  1.00  0.00    -0.226 NA
HETATM   28  C   UNL     1      42.202  -9.409  11.397  1.00  0.00     0.063 A 
HETATM   29  C   UNL     1      40.944  -8.653  11.558  1.00  0.00     0.073 C 
HETATM   30  C   UNL     1      43.188  -9.668  12.324  1.00  0.00     0.076 A 
HETATM   31  O   UNL     1      44.161 -10.402  11.708  1.00  0.00    -0.294 OA
HETATM   32  C   UNL     1      43.393  -9.338  13.745  1.00  0.00     0.079 C 
ENDBRANCH  22  26
ENDBRANCH   1  20
TORSDOF 6
ENDMDL
MODEL 3
REMARK VINA RESULT:      -8.7      5.974      9.536
REMARK  6 active torsions:
REMARK  status: ('A' for Active; 'I' for Inactive)
REMARK    1  A    between atoms: C_4  and  C_5 
REMARK    2  A    between atoms: C_7  and  N_8 
REMARK       I    between atoms: N_8  and  C_9 
REMARK    3  A    between atoms: C_9  and  C_10 
REMARK    4  A    between atoms: C_10  and  N_11 
REMARK    5  A    between atoms: C_10  and  C_15 
REMARK       I    between atoms: N_11  and  C_12 
REMARK       I    between atoms: C_12  and  N_13 
REMARK    6  A    between atoms: C_15  and  C_16 
ROOT
HETATM    1  N   UNL     1      42.428 -14.847   2.008  1.00  0.00    -0.325 N 
HETATM    2  C   UNL     1      41.298 -14.974   1.225  1.00  0.00     0.245 C 
HETATM    3  O   UNL     1      40.364 -15.752   1.422  1.00  0.00    -0.271 OA
HETATM    4  H   UNL     1      43.019 -14.040   1.808  1.00  0.00     0.169 HD
ENDROOT
BRANCH   2   5
HETATM    5  C   UNL     1      41.235 -14.001   0.023  1.00  0.00     0.182 C 
BRANCH   5   6
HETATM    6  N   UNL     1      42.153 -12.873   0.237  1.00  0.00    -0.334 N 
HETATM    7  C   UNL     1      41.860 -11.597  -0.123  1.00  0.00     0.292 C 
HETATM    8  N   UNL     1      42.829 -10.722   0.232  1.00  0.00    -0.254 NA
HETATM    9  O   UNL     1      40.847 -11.245  -0.711  1.00  0.00    -0.254 OA
HETATM   10  H   UNL     1      43.783 -11.047   0.155  1.00  0.00     0.128 HD
HETATM   11  H   UNL     1      42.682  -9.789  -0.133  1.00  0.00     0.128 HD
HETATM   12  H   UNL     1      42.829 -12.972   0.980  1.00  0.00     0.164 HD
ENDBRANCH   5   6
BRANCH   5  13
HETATM   13  C   UNL     1      41.401 -14.669  -1.356  1.00  0.00     0.073 C 
BRANCH  13  14
HETATM   14  C   UNL     1      40.174 -14.881  -2.219  1.00  0.00    -0.056 A 
HETATM   15  C   UNL     1      38.990 -14.142  -2.100  1.00  0.00     0.007 A 
HETATM   16  C   UNL     1      37.896 -14.413  -2.928  1.00  0.00     0.001 A 
HETATM   17  C   UNL     1      37.974 -15.409  -3.896  1.00  0.00     0.000 A 
HETATM   18  C   UNL     1      39.150 -16.138  -4.043  1.00  0.00     0.001 A 
HETATM   19  C   UNL     1      40.240 -15.874  -3.212  1.00  0.00     0.007 A 
ENDBRANCH  13  14
ENDBRANCH   5  13
ENDBRANCH   2   5
BRANCH   1  20
HETATM   20  C   UNL     1      42.823 -15.648   3.097  1.00  0.00     0.035 A 
HETATM   21  C   UNL     1      43.264 -16.969   2.982  1.00  0.00     0.045 A 
HETATM   22  C   UNL     1      43.652 -17.707   4.114  1.00  0.00     0.019 A 
HETATM   23  C   UNL     1      43.617 -17.085   5.369  1.00  0.00     0.016 A 
HETATM   24  C   UNL     1      43.180 -15.768   5.496  1.00  0.00     0.003 A 
HETATM   25  C   UNL     1      42.775 -15.057   4.366  1.00  0.00     0.029 A 
BRANCH  22  26
HETATM   26  C   UNL     1      44.074 -19.103   4.015  1.00  0.00     0.180 A 
HETATM   27  N   UNL     1      44.489 -19.920   4.966  1.00  0.00    -0.226 NA
HETATM   28  C   UNL     1      44.704 -21.116   4.317  1.00  0.00     0.063 A 
HETATM   29  C   UNL     1      45.187 -22.306   5.044  1.00  0.00     0.073 C 
HETATM   30  C   UNL     1      44.392 -20.976   2.982  1.00  0.00     0.076 A 
HETATM   31  O   UNL     1      43.995 -19.686   2.777  1.00  0.00    -0.294 OA
HETATM   32  C   UNL     1      44.399 -21.872   1.813  1.00  0.00     0.079 C 
ENDBRANCH  22  26
ENDBRANCH   1  20
TORSDOF 6
ENDMDL
MODEL 4
REMARK VINA RESULT:      -8.6      6.301      9.917
REMARK  6 active torsions:
REMARK  status: ('A' for Active; 'I' for Inactive)
REMARK    1  A    between atoms: C_4  and  C_5 
REMARK    2  A    between atoms: C_7  and  N_8 
REMARK       I    between atoms: N_8  and  C_9 
REMARK    3  A    between atoms: C_9  and  C_10 
REMARK    4  A    between atoms: C_10  and  N_11 
REMARK    5  A    between atoms: C_10  and  C_15 
REMARK       I    between atoms: N_11  and  C_12 
REMARK       I    between atoms: C_12  and  N_13 
REMARK    6  A    between atoms: C_15  and  C_16 
ROOT
HETATM    1  N   UNL     1      42.272 -15.183   1.478  1.00  0.00    -0.325 N 
HETATM    2  C   UNL     1      41.571 -15.712   0.412  1.00  0.00     0.245 C 
HETATM    3  O   UNL     1      41.130 -16.859   0.334  1.00  0.00    -0.271 OA
HETATM    4  H   UNL     1      42.413 -14.173   1.460  1.00  0.00     0.169 HD
ENDROOT
BRANCH   2   5
HETATM    5  C   UNL     1      41.315 -14.719  -0.747  1.00  0.00     0.182 C 
BRANCH   5   6
HETATM    6  N   UNL     1      40.280 -15.248  -1.646  1.00  0.00    -0.334 N 
HETATM    7  C   UNL     1      40.516 -15.568  -2.945  1.00  0.00     0.292 C 
HETATM    8  N   UNL     1      39.430 -16.096  -3.555  1.00  0.00    -0.254 NA
HETATM    9  O   UNL     1      41.578 -15.402  -3.530  1.00  0.00    -0.254 OA
HETATM   10  H   UNL     1      38.534 -15.705  -3.301  1.00  0.00     0.128 HD
HETATM   11  H   UNL     1      39.554 -16.229  -4.552  1.00  0.00     0.128 HD
HETATM   12  H   UNL     1      39.503 -15.725  -1.214  1.00  0.00     0.164 HD
ENDBRANCH   5   6
BRANCH   5  13
HETATM   13  C   UNL     1      41.052 -13.266  -0.304  1.00  0.00     0.073 C 
BRANCH  13  14
HETATM   14  C   UNL     1      41.792 -12.143  -1.002  1.00  0.00    -0.056 A 
HETATM   15  C   UNL     1      41.845 -11.980  -2.392  1.00  0.00     0.007 A 
HETATM   16  C   UNL     1      42.564 -10.922  -2.958  1.00  0.00     0.001 A 
HETATM   17  C   UNL     1      43.223 -10.005  -2.146  1.00  0.00     0.000 A 
HETATM   18  C   UNL     1      43.164 -10.139  -0.763  1.00  0.00     0.001 A 
HETATM   19  C   UNL     1      42.452 -11.198  -0.197  1.00  0.00     0.007 A 
ENDBRANCH  13  14
ENDBRANCH   5  13
ENDBRANCH   2   5
BRANCH   1  20
HETATM   20  C   UNL     1      42.747 -15.853   2.622  1.00  0.00     0.035 A 
HETATM   21  C   UNL     1      43.200 -17.176   2.627  1.00  0.00     0.045 A 
HETATM   22  C   UNL     1      43.669 -17.779   3.807  1.00  0.00     0.019 A 
HETATM   23  C   UNL     1      43.703 -17.020   4.984  1.00  0.00     0.016 A 
HETATM   24  C   UNL     1      43.255 -15.700   4.992  1.00  0.00     0.003 A 
HETATM   25  C   UNL     1      42.769 -15.124   3.817  1.00  0.00     0.029 A 
BRANCH  22  26
HETATM   26  C   UNL     1      44.104 -19.173   3.838  1.00  0.00     0.180 A 
HETATM   27  N   UNL     1      44.481 -19.909   4.868  1.00  0.00    -0.226 NA
HETATM   28  C   UNL     1      44.734 -21.150   4.326  1.00  0.00     0.063 A 
HETATM   29  C   UNL     1      45.192 -22.274   5.166  1.00  0.00     0.073 C 
HETATM   30  C   UNL     1      44.482 -21.119   2.972  1.00  0.00     0.076 A 
HETATM   31  O   UNL     1      44.086 -19.853   2.648  1.00  0.00    -0.294 OA
HETATM   32  C   UNL     1      44.548 -22.104   1.879  1.00  0.00     0.079 C 
ENDBRANCH  22  26
ENDBRANCH   1  20
TORSDOF 6
ENDMDL
MODEL 5
REMARK VINA RESULT:      -8.5      7.230     10.509
REMARK  6 active torsions:
REMARK  status: ('A' for Active; 'I' for Inactive)
REMARK    1  A    between atoms: C_4  and  C_5 
REMARK    2  A    between atoms: C_7  and  N_8 
REMARK       I    between atoms: N_8  and  C_9 
REMARK    3  A    between atoms: C_9  and  C_10 
REMARK    4  A    between atoms: C_10  and  N_11 
REMARK    5  A    between atoms: C_10  and  C_15 
REMARK       I    between atoms: N_11  and  C_12 
REMARK       I    between atoms: C_12  and  N_13 
REMARK    6  A    between atoms: C_15  and  C_16 
ROOT
HETATM    1  N   UNL     1      40.035 -15.427   0.393  1.00  0.00    -0.325 N 
HETATM    2  C   UNL     1      40.582 -14.531  -0.503  1.00  0.00     0.245 C 
HETATM    3  O   UNL     1      41.750 -14.142  -0.516  1.00  0.00    -0.271 OA
HETATM    4  H   UNL     1      39.104 -15.776   0.161  1.00  0.00     0.169 HD
ENDROOT
BRANCH   2   5
HETATM    5  C   UNL     1      39.602 -14.027  -1.589  1.00  0.00     0.182 C 
BRANCH   5   6
HETATM    6  N   UNL     1      39.070 -15.162  -2.356  1.00  0.00    -0.334 N 
HETATM    7  C   UNL     1      39.693 -15.682  -3.445  1.00  0.00     0.292 C 
HETATM    8  N   UNL     1      39.050 -16.762  -3.946  1.00  0.00    -0.254 NA
HETATM    9  O   UNL     1      40.718 -15.242  -3.947  1.00  0.00    -0.254 OA
HETATM   10  H   UNL     1      38.040 -16.737  -3.923  1.00  0.00     0.128 HD
HETATM   11  H   UNL     1      39.435 -17.088  -4.824  1.00  0.00     0.128 HD
HETATM   12  H   UNL     1      38.452 -15.791  -1.866  1.00  0.00     0.164 HD
ENDBRANCH   5   6
BRANCH   5  13
HETATM   13  C   UNL     1      38.507 -13.071  -1.076  1.00  0.00     0.073 C 
BRANCH  13  14
HETATM   14  C   UNL     1      38.802 -12.199   0.127  1.00  0.00    -0.056 A 
HETATM   15  C   UNL     1      39.671 -11.100   0.108  1.00  0.00     0.007 A 
HETATM   16  C   UNL     1      39.901 -10.354   1.269  1.00  0.00     0.001 A 
HETATM   17  C   UNL     1      39.254 -10.682   2.456  1.00  0.00     0.000 A 
HETATM   18  C   UNL     1      38.371 -11.756   2.488  1.00  0.00     0.001 A 
HETATM   19  C   UNL     1      38.147 -12.506   1.332  1.00  0.00     0.007 A 
ENDBRANCH  13  14
ENDBRANCH   5  13
ENDBRANCH   2   5
BRANCH   1  20
HETATM   20  C   UNL     1      40.632 -15.979   1.543  1.00  0.00     0.035 A 
HETATM   21  C   UNL     1      41.443 -17.119   1.536  1.00  0.00     0.045 A 
HETATM   22  C   UNL     1      42.015 -17.610   2.722  1.00  0.00     0.019 A 
HETATM   23  C   UNL     1      41.783 -16.919   3.919  1.00  0.00     0.016 A 
HETATM   24  C   UNL     1      40.978 -15.782   3.938  1.00  0.00     0.003 A 
HETATM   25  C   UNL     1      40.397 -15.321   2.756  1.00  0.00     0.029 A 
BRANCH  22  26
HETATM   26  C   UNL     1      42.828 -18.824   2.739  1.00  0.00     0.180 A 
HETATM   27  N   UNL     1      42.919 -19.781   1.834  1.00  0.00    -0.226 NA
HETATM   28  C   UNL     1      43.861 -20.646   2.346  1.00  0.00     0.063 A 
HETATM   29  C   UNL     1      44.252 -21.871   1.621  1.00  0.00     0.073 C 
HETATM   30  C   UNL     1      44.320 -20.162   3.552  1.00  0.00     0.076 A 
HETATM   31  O   UNL     1      43.657 -18.999   3.816  1.00  0.00    -0.294 OA
HETATM   32  C   UNL     1      45.311 -20.613   4.543  1.00  0.00     0.079 C 
ENDBRANCH  22  26
ENDBRANCH   1  20
TORSDOF 6
ENDMDL
MODEL 6
REMARK VINA RESULT:      -8.5      4.354      8.885
REMARK  6 active torsions:
REMARK  status: ('A' for Active; 'I' for Inactive)
REMARK    1  A    between atoms: C_4  and  C_5 
REMARK    2  A    between atoms: C_7  and  N_8 
REMARK       I    between atoms: N_8  and  C_9 
REMARK    3  A    between atoms: C_9  and  C_10 
REMARK    4  A    between atoms: C_10  and  N_11 
REMARK    5  A    between atoms: C_10  and  C_15 
REMARK       I    between atoms: N_11  and  C_12 
REMARK       I    between atoms: C_12  and  N_13 
REMARK    6  A    between atoms: C_15  and  C_16 
ROOT
HETATM    1  N   UNL     1      41.509 -14.674   4.465  1.00  0.00    -0.325 N 
HETATM    2  C   UNL     1      42.887 -14.618   4.536  1.00  0.00     0.245 C 
HETATM    3  O   UNL     1      43.615 -13.861   3.893  1.00  0.00    -0.271 OA
HETATM    4  H   UNL     1      41.050 -15.230   5.187  1.00  0.00     0.169 HD
ENDROOT
BRANCH   2   5
HETATM    5  C   UNL     1      43.520 -15.593   5.558  1.00  0.00     0.182 C 
BRANCH   5   6
HETATM    6  N   UNL     1      43.556 -14.974   6.891  1.00  0.00    -0.334 N 
HETATM    7  C   UNL     1      44.556 -14.153   7.303  1.00  0.00     0.292 C 
HETATM    8  N   UNL     1      44.341 -13.653   8.542  1.00  0.00    -0.254 NA
HETATM    9  O   UNL     1      45.558 -13.881   6.654  1.00  0.00    -0.254 OA
HETATM   10  H   UNL     1      43.909 -14.275   9.211  1.00  0.00     0.128 HD
HETATM   11  H   UNL     1      45.130 -13.136   8.910  1.00  0.00     0.128 HD
HETATM   12  H   UNL     1      42.671 -14.851   7.359  1.00  0.00     0.164 HD
ENDBRANCH   5   6
BRANCH   5  13
HETATM   13  C   UNL     1      42.911 -17.009   5.559  1.00  0.00     0.073 C 
BRANCH  13  14
HETATM   14  C   UNL     1      43.360 -17.999   4.505  1.00  0.00    -0.056 A 
HETATM   15  C   UNL     1      42.991 -17.934   3.155  1.00  0.00     0.007 A 
HETATM   16  C   UNL     1      43.438 -18.899   2.247  1.00  0.00     0.001 A 
HETATM   17  C   UNL     1      44.272 -19.930   2.669  1.00  0.00     0.000 A 
HETATM   18  C   UNL     1      44.666 -19.998   4.001  1.00  0.00     0.001 A 
HETATM   19  C   UNL     1      44.215 -19.040   4.909  1.00  0.00     0.007 A 
ENDBRANCH  13  14
ENDBRANCH   5  13
ENDBRANCH   2   5
BRANCH   1  20
HETATM   20  C   UNL     1      40.658 -13.997   3.571  1.00  0.00     0.035 A 
HETATM   21  C   UNL     1      40.495 -14.344   2.226  1.00  0.00     0.045 A 
HETATM   22  C   UNL     1      39.619 -13.627   1.393  1.00  0.00     0.019 A 
HETATM   23  C   UNL     1      38.884 -12.567   1.939  1.00  0.00     0.016 A 
HETATM   24  C   UNL     1      39.037 -12.213   3.278  1.00  0.00     0.003 A 
HETATM   25  C   UNL     1      39.929 -12.919   4.087  1.00  0.00     0.029 A 
BRANCH  22  26
HETATM   26  C   UNL     1      39.471 -13.950  -0.025  1.00  0.00     0.180 A 
HETATM   27  N   UNL     1      38.491 -13.639  -0.855  1.00  0.00    -0.226 NA
HETATM   28  C   UNL     1      38.895 -14.154  -2.067  1.00  0.00     0.063 A 
HETATM   29  C   UNL     1      38.058 -14.018  -3.275  1.00  0.00     0.073 C 
HETATM   30  C   UNL     1      40.128 -14.753  -1.923  1.00  0.00     0.076 A 
HETATM   31  O   UNL     1      40.501 -14.634  -0.615  1.00  0.00    -0.294 OA
HETATM   32  C   UNL     1      41.061 -15.445  -2.828  1.00  0.00     0.079 C 
ENDBRANCH  22  26
ENDBRANCH   1  20
TORSDOF 6
ENDMDL
MODEL 7
REMARK VINA RESULT:      -8.4      5.114      8.123
REMARK  6 active torsions:
REMARK  status: ('A' for Active; 'I' for Inactive)
REMARK    1  A    between atoms: C_4  and  C_5 
REMARK    2  A    between atoms: C_7  and  N_8 
REMARK       I    between atoms: N_8  and  C_9 
REMARK    3  A    between atoms: C_9  and  C_10 
REMARK    4  A    between atoms: C_10  and  N_11 
REMARK    5  A    between atoms: C_10  and  C_15 
REMARK       I    between atoms: N_11  and  C_12 
REMARK       I    between atoms: C_12  and  N_13 
REMARK    6  A    between atoms: C_15  and  C_16 
ROOT
HETATM    1  N   UNL     1      41.828 -15.301   4.133  1.00  0.00    -0.325 N 
HETATM    2  C   UNL     1      42.807 -15.374   5.105  1.00  0.00     0.245 C 
HETATM    3  O   UNL     1      43.407 -14.420   5.600  1.00  0.00    -0.271 OA
HETATM    4  H   UNL     1      41.311 -16.163   3.959  1.00  0.00     0.169 HD
ENDROOT
BRANCH   2   5
HETATM    5  C   UNL     1      43.114 -16.806   5.604  1.00  0.00     0.182 C 
BRANCH   5   6
HETATM    6  N   UNL     1      42.963 -16.875   7.065  1.00  0.00    -0.334 N 
HETATM    7  C   UNL     1      43.832 -17.539   7.871  1.00  0.00     0.292 C 
HETATM    8  N   UNL     1      43.525 -17.409   9.183  1.00  0.00    -0.254 NA
HETATM    9  O   UNL     1      44.789 -18.196   7.487  1.00  0.00    -0.254 OA
HETATM   10  H   UNL     1      42.543 -17.402   9.419  1.00  0.00     0.128 HD
HETATM   11  H   UNL     1      44.090 -17.992   9.788  1.00  0.00     0.128 HD
HETATM   12  H   UNL     1      42.444 -16.130   7.504  1.00  0.00     0.164 HD
ENDBRANCH   5   6
BRANCH   5  13
HETATM   13  C   UNL     1      42.356 -17.924   4.861  1.00  0.00     0.073 C 
BRANCH  13  14
HETATM   14  C   UNL     1      43.141 -18.889   3.996  1.00  0.00    -0.056 A 
HETATM   15  C   UNL     1      42.917 -19.080   2.626  1.00  0.00     0.007 A 
HETATM   16  C   UNL     1      43.678 -20.004   1.903  1.00  0.00     0.001 A 
HETATM   17  C   UNL     1      44.682 -20.735   2.530  1.00  0.00     0.000 A 
HETATM   18  C   UNL     1      44.932 -20.543   3.885  1.00  0.00     0.001 A 
HETATM   19  C   UNL     1      44.169 -19.626   4.609  1.00  0.00     0.007 A 
ENDBRANCH  13  14
ENDBRANCH   5  13
ENDBRANCH   2   5
BRANCH   1  20
HETATM   20  C   UNL     1      41.403 -14.169   3.413  1.00  0.00     0.035 A 
HETATM   21  C   UNL     1      41.912 -13.795   2.165  1.00  0.00     0.045 A 
HETATM   22  C   UNL     1      41.433 -12.654   1.498  1.00  0.00     0.019 A 
HETATM   23  C   UNL     1      40.409 -11.905   2.093  1.00  0.00     0.016 A 
HETATM   24  C   UNL     1      39.893 -12.268   3.335  1.00  0.00     0.003 A 
HETATM   25  C   UNL     1      40.397 -13.389   3.996  1.00  0.00     0.029 A 
BRANCH  22  26
HETATM   26  C   UNL     1      41.985 -12.226   0.215  1.00  0.00     0.180 A 
HETATM   27  N   UNL     1      41.823 -12.756  -0.984  1.00  0.00    -0.226 NA
HETATM   28  C   UNL     1      42.527 -11.921  -1.824  1.00  0.00     0.063 A 
HETATM   29  C   UNL     1      42.598 -12.177  -3.276  1.00  0.00     0.073 C 
HETATM   30  C   UNL     1      43.084 -10.896  -1.091  1.00  0.00     0.076 A 
HETATM   31  O   UNL     1      42.748 -11.088   0.219  1.00  0.00    -0.294 OA
HETATM   32  C   UNL     1      43.908  -9.718  -1.409  1.00  0.00     0.079 C 
ENDBRANCH  22  26
ENDBRANCH   1  20
TORSDOF 6
ENDMDL
MODEL 8
REMARK VINA RESULT:      -8.4      4.373      8.620
REMARK  6 active torsions:
REMARK  status: ('A' for Active; 'I' for Inactive)
REMARK    1  A    between atoms: C_4  and  C_5 
REMARK    2  A    between atoms: C_7  and  N_8 
REMARK       I    between atoms: N_8  and  C_9 
REMARK    3  A    between atoms: C_9  and  C_10 
REMARK    4  A    between atoms: C_10  and  N_11 
REMARK    5  A    between atoms: C_10  and  C_15 
REMARK       I    between atoms: N_11  and  C_12 
REMARK       I    between atoms: C_12  and  N_13 
REMARK    6  A    between atoms: C_15  and  C_16 
ROOT
HETATM    1  N   UNL     1      42.131 -15.466   3.492  1.00  0.00    -0.325 N 
HETATM    2  C   UNL     1      42.252 -15.053   4.805  1.00  0.00     0.245 C 
HETATM    3  O   UNL     1      41.693 -14.082   5.312  1.00  0.00    -0.271 OA
HETATM    4  H   UNL     1      42.519 -16.385   3.278  1.00  0.00     0.169 HD
ENDROOT
BRANCH   2   5
HETATM    5  C   UNL     1      43.160 -15.950   5.680  1.00  0.00     0.182 C 
BRANCH   5   6
HETATM    6  N   UNL     1      43.388 -15.315   6.986  1.00  0.00    -0.334 N 
HETATM    7  C   UNL     1      44.380 -14.415   7.212  1.00  0.00     0.292 C 
HETATM    8  N   UNL     1      44.354 -13.919   8.471  1.00  0.00    -0.254 NA
HETATM    9  O   UNL     1      45.223 -14.075   6.394  1.00  0.00    -0.254 OA
HETATM   10  H   UNL     1      44.099 -14.564   9.206  1.00  0.00     0.128 HD
HETATM   11  H   UNL     1      45.154 -13.339   8.691  1.00  0.00     0.128 HD
HETATM   12  H   UNL     1      42.595 -15.255   7.607  1.00  0.00     0.164 HD
ENDBRANCH   5   6
BRANCH   5  13
HETATM   13  C   UNL     1      42.703 -17.418   5.788  1.00  0.00     0.073 C 
BRANCH  13  14
HETATM   14  C   UNL     1      43.437 -18.473   4.986  1.00  0.00    -0.056 A 
HETATM   15  C   UNL     1      44.414 -19.328   5.516  1.00  0.00     0.007 A 
HETATM   16  C   UNL     1      45.055 -20.266   4.702  1.00  0.00     0.001 A 
HETATM   17  C   UNL     1      44.720 -20.378   3.356  1.00  0.00     0.000 A 
HETATM   18  C   UNL     1      43.739 -19.552   2.818  1.00  0.00     0.001 A 
HETATM   19  C   UNL     1      43.102 -18.610   3.628  1.00  0.00     0.007 A 
ENDBRANCH  13  14
ENDBRANCH   5  13
ENDBRANCH   2   5
BRANCH   1  20
HETATM   20  C   UNL     1      41.469 -14.813   2.435  1.00  0.00     0.035 A 
HETATM   21  C   UNL     1      42.080 -13.900   1.571  1.00  0.00     0.045 A 
HETATM   22  C   UNL     1      41.359 -13.291   0.529  1.00  0.00     0.019 A 
HETATM   23  C   UNL     1      40.013 -13.637   0.349  1.00  0.00     0.016 A 
HETATM   24  C   UNL     1      39.393 -14.547   1.203  1.00  0.00     0.003 A 
HETATM   25  C   UNL     1      40.116 -15.124   2.248  1.00  0.00     0.029 A 
BRANCH  22  26
HETATM   26  C   UNL     1      41.971 -12.302  -0.355  1.00  0.00     0.180 A 
HETATM   27  N   UNL     1      42.773 -11.296  -0.055  1.00  0.00    -0.226 NA
HETATM   28  C   UNL     1      43.078 -10.729  -1.273  1.00  0.00     0.063 A 
HETATM   29  C   UNL     1      43.964  -9.552  -1.370  1.00  0.00     0.073 C 
HETATM   30  C   UNL     1      42.451 -11.433  -2.277  1.00  0.00     0.076 A 
HETATM   31  O   UNL     1      41.732 -12.439  -1.697  1.00  0.00    -0.294 OA
HETATM   32  C   UNL     1      42.402 -11.331  -3.745  1.00  0.00     0.079 C 
ENDBRANCH  22  26
ENDBRANCH   1  20
TORSDOF 6
ENDMDL
MODEL 9
REMARK VINA RESULT:      -8.3      4.979      8.410
REMARK  6 active torsions:
REMARK  status: ('A' for Active; 'I' for Inactive)
REMARK    1  A    between atoms: C_4  and  C_5 
REMARK    2  A    between atoms: C_7  and  N_8 
REMARK       I    between atoms: N_8  and  C_9 
REMARK    3  A    between atoms: C_9  and  C_10 
REMARK    4  A    between atoms: C_10  and  N_11 
REMARK    5  A    between atoms: C_10  and  C_15 
REMARK       I    between atoms: N_11  and  C_12 
REMARK       I    between atoms: C_12  and  N_13 
REMARK    6  A    between atoms: C_15  and  C_16 
ROOT
HETATM    1  N   UNL     1      42.128 -14.797   4.772  1.00  0.00    -0.325 N 
HETATM    2  C   UNL     1      42.488 -13.620   4.147  1.00  0.00     0.245 C 
HETATM    3  O   UNL     1      43.627 -13.300   3.806  1.00  0.00    -0.271 OA
HETATM    4  H   UNL     1      41.127 -14.983   4.827  1.00  0.00     0.169 HD
ENDROOT
BRANCH   2   5
HETATM    5  C   UNL     1      41.308 -12.666   3.841  1.00  0.00     0.182 C 
BRANCH   5   6
HETATM    6  N   UNL     1      41.773 -11.272   3.841  1.00  0.00    -0.334 N 
HETATM    7  C   UNL     1      41.128 -10.274   4.499  1.00  0.00     0.292 C 
HETATM    8  N   UNL     1      41.776  -9.089   4.409  1.00  0.00    -0.254 NA
HETATM    9  O   UNL     1      40.073 -10.396   5.107  1.00  0.00    -0.254 OA
HETATM   10  H   UNL     1      42.226  -8.886   3.528  1.00  0.00     0.128 HD
HETATM   11  H   UNL     1      41.250  -8.313   4.792  1.00  0.00     0.128 HD
HETATM   12  H   UNL     1      42.756 -11.120   3.676  1.00  0.00     0.164 HD
ENDBRANCH   5   6
BRANCH   5  13
HETATM   13  C   UNL     1      40.490 -13.036   2.589  1.00  0.00     0.073 C 
BRANCH  13  14
HETATM   14  C   UNL     1      40.655 -14.416   1.987  1.00  0.00    -0.056 A 
HETATM   15  C   UNL     1      39.955 -15.552   2.417  1.00  0.00     0.007 A 
HETATM   16  C   UNL     1      40.179 -16.795   1.816  1.00  0.00     0.001 A 
HETATM   17  C   UNL     1      41.087 -16.918   0.769  1.00  0.00     0.000 A 
HETATM   18  C   UNL     1      41.774 -15.798   0.316  1.00  0.00     0.001 A 
HETATM   19  C   UNL     1      41.558 -14.558   0.919  1.00  0.00     0.007 A 
ENDBRANCH  13  14
ENDBRANCH   5  13
ENDBRANCH   2   5
BRANCH   1  20
HETATM   20  C   UNL     1      42.973 -15.810   5.268  1.00  0.00     0.035 A 
HETATM   21  C   UNL     1      43.195 -17.032   4.626  1.00  0.00     0.045 A 
HETATM   22  C   UNL     1      44.060 -17.994   5.176  1.00  0.00     0.019 A 
HETATM   23  C   UNL     1      44.724 -17.698   6.374  1.00  0.00     0.016 A 
HETATM   24  C   UNL     1      44.512 -16.482   7.021  1.00  0.00     0.003 A 
HETATM   25  C   UNL     1      43.631 -15.548   6.475  1.00  0.00     0.029 A 
BRANCH  22  26
HETATM   26  C   UNL     1      44.268 -19.293   4.541  1.00  0.00     0.180 A 
HETATM   27  N   UNL     1      44.154 -19.630   3.269  1.00  0.00    -0.226 NA
HETATM   28  C   UNL     1      44.510 -20.960   3.235  1.00  0.00     0.063 A 
HETATM   29  C   UNL     1      44.508 -21.722   1.971  1.00  0.00     0.073 C 
HETATM   30  C   UNL     1      44.845 -21.378   4.505  1.00  0.00     0.076 A 
HETATM   31  O   UNL     1      44.684 -20.318   5.350  1.00  0.00    -0.294 OA
HETATM   32  C   UNL     1      45.308 -22.645   5.094  1.00  0.00     0.079 C 
ENDBRANCH  22  26
ENDBRANCH   1  20
TORSDOF 6
ENDMDL
MODEL 10
REMARK VINA RESULT:      -8.2      3.575      9.203
REMARK  6 active torsions:
REMARK  status: ('A' for Active; 'I' for Inactive)
REMARK    1  A    between atoms: C_4  and  C_5 
REMARK    2  A    between atoms: C_7  and  N_8 
REMARK       I    between atoms: N_8  and  C_9 
REMARK    3  A    between atoms: C_9  and  C_10 
REMARK    4  A    between atoms: C_10  and  N_11 
REMARK    5  A    between atoms: C_10  and  C_15 
REMARK       I    between atoms: N_11  and  C_12 
REMARK       I    between atoms: C_12  and  N_13 
REMARK    6  A    between atoms: C_15  and  C_16 
ROOT
HETATM    1  N   UNL     1      40.355 -11.463   7.751  1.00  0.00    -0.325 N 
HETATM    2  C   UNL     1      39.537 -10.771   8.622  1.00  0.00     0.245 C 
HETATM    3  O   UNL     1      38.355 -10.485   8.432  1.00  0.00    -0.271 OA
HETATM    4  H   UNL     1      41.251 -11.770   8.132  1.00  0.00     0.169 HD
ENDROOT
BRANCH   2   5
HETATM    5  C   UNL     1      40.209 -10.374   9.958  1.00  0.00     0.182 C 
BRANCH   5   6
HETATM    6  N   UNL     1      40.262 -11.532  10.862  1.00  0.00    -0.334 N 
HETATM    7  C   UNL     1      40.035 -11.444  12.198  1.00  0.00     0.292 C 
HETATM    8  N   UNL     1      40.074 -12.649  12.812  1.00  0.00    -0.254 NA
HETATM    9  O   UNL     1      39.824 -10.406  12.810  1.00  0.00    -0.254 OA
HETATM   10  H   UNL     1      40.762 -13.307  12.473  1.00  0.00     0.128 HD
HETATM   11  H   UNL     1      40.024 -12.588  13.821  1.00  0.00     0.128 HD
HETATM   12  H   UNL     1      40.093 -12.437  10.450  1.00  0.00     0.164 HD
ENDBRANCH   5   6
BRANCH   5  13
HETATM   13  C   UNL     1      41.564  -9.655   9.809  1.00  0.00     0.073 C 
BRANCH  13  14
HETATM   14  C   UNL     1      42.839 -10.448  10.009  1.00  0.00    -0.056 A 
HETATM   15  C   UNL     1      43.409 -11.280   9.036  1.00  0.00     0.007 A 
HETATM   16  C   UNL     1      44.583 -11.991   9.308  1.00  0.00     0.001 A 
HETATM   17  C   UNL     1      45.212 -11.869  10.543  1.00  0.00     0.000 A 
HETATM   18  C   UNL     1      44.671 -11.031  11.512  1.00  0.00     0.001 A 
HETATM   19  C   UNL     1      43.496 -10.326  11.246  1.00  0.00     0.007 A 
ENDBRANCH  13  14
ENDBRANCH   5  13
ENDBRANCH   2   5
BRANCH   1  20
HETATM   20  C   UNL     1      40.074 -11.867   6.432  1.00  0.00     0.035 A 
HETATM   21  C   UNL     1      40.370 -13.134   5.918  1.00  0.00     0.045 A 
HETATM   22  C   UNL     1      40.051 -13.472   4.591  1.00  0.00     0.019 A 
HETATM   23  C   UNL     1      39.401 -12.523   3.791  1.00  0.00     0.016 A 
HETATM   24  C   UNL     1      39.100 -11.258   4.293  1.00  0.00     0.003 A 
HETATM   25  C   UNL     1      39.445 -10.930   5.604  1.00  0.00     0.029 A 
BRANCH  22  26
HETATM   26  C   UNL     1      40.394 -14.775   4.027  1.00  0.00     0.180 A 
HETATM   27  N   UNL     1      40.287 -15.201   2.781  1.00  0.00    -0.226 NA
HETATM   28  C   UNL     1      40.797 -16.480   2.812  1.00  0.00     0.063 A 
HETATM   29  C   UNL     1      40.852 -17.313   1.596  1.00  0.00     0.073 C 
HETATM   30  C   UNL     1      41.213 -16.776   4.092  1.00  0.00     0.076 A 
HETATM   31  O   UNL     1      40.950 -15.692   4.880  1.00  0.00    -0.294 OA
HETATM   32  C   UNL     1      41.839 -17.942   4.739  1.00  0.00     0.079 C 
ENDBRANCH  22  26
ENDBRANCH   1  20
TORSDOF 6
ENDMDL
