MODEL 1
REMARK VINA RESULT:      -7.4      0.000      0.000
REMARK  4 active torsions:
REMARK  status: ('A' for Active; 'I' for Inactive)
REMARK    1  A    between atoms: C_2  and  C_3 
REMARK    2  A    between atoms: C_3  and  C_4 
REMARK    3  A    between atoms: C_4  and  C_5 
REMARK    4  A    between atoms: C_25  and  N_26 
ROOT
HETATM    1  C   UNL     1      41.769 -16.292   5.762  1.00  0.00     0.067 A 
HETATM    2  N   UNL     1      40.786 -16.434   6.669  1.00  0.00    -0.177 NA
HETATM    3  N   UNL     1      39.810 -15.612   6.238  1.00  0.00    -0.256 N 
HETATM    4  H   UNL     1      38.961 -15.531   6.786  1.00  0.00     0.191 HD
HETATM    5  C   UNL     1      40.140 -14.965   5.093  1.00  0.00     0.176 A 
HETATM    6  C   UNL     1      41.387 -15.406   4.723  1.00  0.00     0.049 A 
HETATM    7  C   UNL     1      42.012 -14.857   3.485  1.00  0.00     0.144 A 
HETATM    8  C   UNL     1      43.446 -14.329   3.756  1.00  0.00     0.246 A 
HETATM    9  O   UNL     1      43.776 -13.382   4.452  1.00  0.00    -0.271 OA
HETATM   10  N   UNL     1      44.322 -15.126   3.027  1.00  0.00    -0.325 N 
HETATM   11  C   UNL     1      43.646 -16.106   2.315  1.00  0.00     0.043 A 
HETATM   12  C   UNL     1      42.264 -16.021   2.542  1.00  0.00     0.003 A 
HETATM   13  C   UNL     1      44.220 -17.052   1.491  1.00  0.00     0.030 A 
HETATM   14  C   UNL     1      43.366 -17.954   0.863  1.00  0.00     0.003 A 
HETATM   15  C   UNL     1      41.976 -17.887   1.067  1.00  0.00     0.007 A 
HETATM   16  C   UNL     1      41.399 -16.912   1.904  1.00  0.00    -0.051 A 
HETATM   17  C   UNL     1      39.911 -16.887   2.086  1.00  0.00     0.049 C 
HETATM   18  C   UNL     1      41.164 -13.736   2.899  1.00  0.00     0.081 A 
HETATM   19  C   UNL     1      41.781 -12.913   1.780  1.00  0.00     0.021 C 
HETATM   20  N   UNL     1      42.294 -12.230   0.853  1.00  0.00    -0.096 N 
HETATM   21  C   UNL     1      39.945 -13.389   3.395  1.00  0.00     0.140 A 
HETATM   22  O   UNL     1      39.376 -14.059   4.492  1.00  0.00    -0.279 OA
HETATM   23  H   UNL     1      45.321 -14.973   3.017  1.00  0.00     0.169 HD
ENDROOT
BRANCH  21  24
HETATM   24  N   UNL     1      39.147 -12.372   2.921  1.00  0.00    -0.282 NA
HETATM   25  H   UNL     1      39.084 -11.550   3.517  1.00  0.00     0.126 HD
HETATM   26  H   UNL     1      38.234 -12.714   2.630  1.00  0.00     0.126 HD
ENDBRANCH  21  24
BRANCH   1  27
HETATM   27  C   UNL     1      43.063 -17.013   5.969  1.00  0.00     0.062 C 
BRANCH  27  28
HETATM   28  C   UNL     1      43.074 -18.375   5.269  1.00  0.00     0.006 C 
BRANCH  28  29
HETATM   29  C   UNL     1      44.483 -18.778   4.838  1.00  0.00    -0.004 C 
HETATM   30  C   UNL     1      44.452 -19.948   3.868  1.00  0.00     0.005 C 
ENDBRANCH  28  29
ENDBRANCH  27  28
ENDBRANCH   1  27
TORSDOF 4
ENDMDL
MODEL 2
REMARK VINA RESULT:      -7.1      2.190      4.167
REMARK  4 active torsions:
REMARK  status: ('A' for Active; 'I' for Inactive)
REMARK    1  A    between atoms: C_2  and  C_3 
REMARK    2  A    between atoms: C_3  and  C_4 
REMARK    3  A    between atoms: C_4  and  C_5 
REMARK    4  A    between atoms: C_25  and  N_26 
ROOT
HETATM    1  C   UNL     1      42.510 -18.005   3.619  1.00  0.00     0.067 A 
HETATM    2  N   UNL     1      42.484 -18.479   2.362  1.00  0.00    -0.177 NA
HETATM    3  N   UNL     1      41.717 -17.602   1.687  1.00  0.00    -0.256 N 
HETATM    4  H   UNL     1      41.530 -17.769   0.704  1.00  0.00     0.191 HD
HETATM    5  C   UNL     1      41.265 -16.592   2.471  1.00  0.00     0.176 A 
HETATM    6  C   UNL     1      41.789 -16.788   3.725  1.00  0.00     0.049 A 
HETATM    7  C   UNL     1      41.456 -15.820   4.809  1.00  0.00     0.144 A 
HETATM    8  C   UNL     1      40.926 -16.542   6.077  1.00  0.00     0.246 A 
HETATM    9  O   UNL     1      39.890 -17.175   6.200  1.00  0.00    -0.271 OA
HETATM   10  N   UNL     1      41.849 -16.316   7.093  1.00  0.00    -0.325 N 
HETATM   11  C   UNL     1      42.912 -15.541   6.654  1.00  0.00     0.043 A 
HETATM   12  C   UNL     1      42.760 -15.211   5.299  1.00  0.00     0.003 A 
HETATM   13  C   UNL     1      43.989 -15.135   7.414  1.00  0.00     0.030 A 
HETATM   14  C   UNL     1      44.957 -14.358   6.785  1.00  0.00     0.003 A 
HETATM   15  C   UNL     1      44.826 -14.006   5.430  1.00  0.00     0.007 A 
HETATM   16  C   UNL     1      43.719 -14.419   4.664  1.00  0.00    -0.051 A 
HETATM   17  C   UNL     1      43.630 -14.016   3.223  1.00  0.00     0.049 C 
HETATM   18  C   UNL     1      40.421 -14.808   4.336  1.00  0.00     0.081 A 
HETATM   19  C   UNL     1      39.799 -13.907   5.389  1.00  0.00     0.021 C 
HETATM   20  N   UNL     1      39.282 -13.161   6.265  1.00  0.00    -0.096 N 
HETATM   21  C   UNL     1      39.971 -14.750   3.052  1.00  0.00     0.140 A 
HETATM   22  O   UNL     1      40.447 -15.629   2.062  1.00  0.00    -0.279 OA
HETATM   23  H   UNL     1      41.724 -16.667   8.033  1.00  0.00     0.169 HD
ENDROOT
BRANCH  21  24
HETATM   24  N   UNL     1      39.023 -13.875   2.574  1.00  0.00    -0.282 NA
HETATM   25  H   UNL     1      39.081 -12.925   2.935  1.00  0.00     0.126 HD
HETATM   26  H   UNL     1      38.084 -14.260   2.645  1.00  0.00     0.126 HD
ENDBRANCH  21  24
BRANCH   1  27
HETATM   27  C   UNL     1      43.220 -18.785   4.679  1.00  0.00     0.062 C 
BRANCH  27  28
HETATM   28  C   UNL     1      44.635 -18.252   4.927  1.00  0.00     0.006 C 
BRANCH  28  29
HETATM   29  C   UNL     1      45.065 -18.445   6.379  1.00  0.00    -0.004 C 
HETATM   30  C   UNL     1      43.970 -19.112   7.196  1.00  0.00     0.005 C 
ENDBRANCH  28  29
ENDBRANCH  27  28
ENDBRANCH   1  27
TORSDOF 4
ENDMDL
MODEL 3
REMARK VINA RESULT:      -7.0      2.528      5.421
REMARK  4 active torsions:
REMARK  status: ('A' for Active; 'I' for Inactive)
REMARK    1  A    between atoms: C_2  and  C_3 
REMARK    2  A    between atoms: C_3  and  C_4 
REMARK    3  A    between atoms: C_4  and  C_5 
REMARK    4  A    between atoms: C_25  and  N_26 
ROOT
HETATM    1  C   UNL     1      42.137 -16.220   2.350  1.00  0.00     0.067 A 
HETATM    2  N   UNL     1      42.144 -17.479   1.879  1.00  0.00    -0.177 NA
HETATM    3  N   UNL     1      42.730 -18.200   2.853  1.00  0.00    -0.256 N 
HETATM    4  H   UNL     1      42.871 -19.194   2.711  1.00  0.00     0.191 HD
HETATM    5  C   UNL     1      43.087 -17.442   3.920  1.00  0.00     0.176 A 
HETATM    6  C   UNL     1      42.684 -16.156   3.657  1.00  0.00     0.049 A 
HETATM    7  C   UNL     1      42.951 -15.092   4.667  1.00  0.00     0.144 A 
HETATM    8  C   UNL     1      43.663 -13.867   4.032  1.00  0.00     0.246 A 
HETATM    9  O   UNL     1      44.785 -13.820   3.552  1.00  0.00    -0.271 OA
HETATM   10  N   UNL     1      42.790 -12.789   4.128  1.00  0.00    -0.325 N 
HETATM   11  C   UNL     1      41.600 -13.150   4.743  1.00  0.00     0.043 A 
HETATM   12  C   UNL     1      41.611 -14.511   5.087  1.00  0.00     0.003 A 
HETATM   13  C   UNL     1      40.532 -12.315   4.996  1.00  0.00     0.030 A 
HETATM   14  C   UNL     1      39.422 -12.872   5.626  1.00  0.00     0.003 A 
HETATM   15  C   UNL     1      39.409 -14.231   5.988  1.00  0.00     0.007 A 
HETATM   16  C   UNL     1      40.508 -15.073   5.732  1.00  0.00    -0.051 A 
HETATM   17  C   UNL     1      40.440 -16.515   6.138  1.00  0.00     0.049 C 
HETATM   18  C   UNL     1      43.797 -15.630   5.813  1.00  0.00     0.081 A 
HETATM   19  C   UNL     1      44.357 -14.616   6.797  1.00  0.00     0.021 C 
HETATM   20  N   UNL     1      44.822 -13.773   7.612  1.00  0.00    -0.096 N 
HETATM   21  C   UNL     1      44.145 -16.940   5.929  1.00  0.00     0.140 A 
HETATM   22  O   UNL     1      43.731 -17.900   4.988  1.00  0.00    -0.279 OA
HETATM   23  H   UNL     1      43.028 -11.863   3.803  1.00  0.00     0.169 HD
ENDROOT
BRANCH  21  24
HETATM   24  N   UNL     1      44.925 -17.477   6.928  1.00  0.00    -0.282 NA
HETATM   25  H   UNL     1      44.492 -17.518   7.848  1.00  0.00     0.126 HD
HETATM   26  H   UNL     1      45.850 -17.055   6.952  1.00  0.00     0.126 HD
ENDBRANCH  21  24
BRANCH   1  27
HETATM   27  C   UNL     1      41.619 -15.118   1.481  1.00  0.00     0.062 C 
BRANCH  27  28
HETATM   28  C   UNL     1      40.140 -15.314   1.135  1.00  0.00     0.006 C 
BRANCH  28  29
HETATM   29  C   UNL     1      39.226 -14.720   2.206  1.00  0.00    -0.004 C 
HETATM   30  C   UNL     1      38.808 -13.302   1.851  1.00  0.00     0.005 C 
ENDBRANCH  28  29
ENDBRANCH  27  28
ENDBRANCH   1  27
TORSDOF 4
ENDMDL
MODEL 4
REMARK VINA RESULT:      -6.7      2.152      4.649
REMARK  4 active torsions:
REMARK  status: ('A' for Active; 'I' for Inactive)
REMARK    1  A    between atoms: C_2  and  C_3 
REMARK    2  A    between atoms: C_3  and  C_4 
REMARK    3  A    between atoms: C_4  and  C_5 
REMARK    4  A    between atoms: C_25  and  N_26 
ROOT
HETATM    1  C   UNL     1      40.365 -14.284   3.837  1.00  0.00     0.067 A 
HETATM    2  N   UNL     1      40.171 -12.954   3.861  1.00  0.00    -0.177 NA
HETATM    3  N   UNL     1      41.111 -12.492   4.707  1.00  0.00    -0.256 N 
HETATM    4  H   UNL     1      41.145 -11.498   4.906  1.00  0.00     0.191 HD
HETATM    5  C   UNL     1      41.892 -13.479   5.209  1.00  0.00     0.176 A 
HETATM    6  C   UNL     1      41.473 -14.657   4.641  1.00  0.00     0.049 A 
HETATM    7  C   UNL     1      42.159 -15.927   5.015  1.00  0.00     0.144 A 
HETATM    8  C   UNL     1      41.144 -17.015   5.458  1.00  0.00     0.246 A 
HETATM    9  O   UNL     1      40.422 -17.009   6.442  1.00  0.00    -0.271 OA
HETATM   10  N   UNL     1      41.216 -18.047   4.528  1.00  0.00    -0.325 N 
HETATM   11  C   UNL     1      42.146 -17.774   3.535  1.00  0.00     0.043 A 
HETATM   12  C   UNL     1      42.746 -16.524   3.746  1.00  0.00     0.003 A 
HETATM   13  C   UNL     1      42.461 -18.594   2.472  1.00  0.00     0.030 A 
HETATM   14  C   UNL     1      43.426 -18.137   1.578  1.00  0.00     0.003 A 
HETATM   15  C   UNL     1      44.049 -16.891   1.770  1.00  0.00     0.007 A 
HETATM   16  C   UNL     1      43.726 -16.065   2.864  1.00  0.00    -0.051 A 
HETATM   17  C   UNL     1      44.420 -14.745   3.019  1.00  0.00     0.049 C 
HETATM   18  C   UNL     1      43.167 -15.693   6.132  1.00  0.00     0.081 A 
HETATM   19  C   UNL     1      43.771 -16.922   6.791  1.00  0.00     0.021 C 
HETATM   20  N   UNL     1      44.270 -17.943   7.337  1.00  0.00    -0.096 N 
HETATM   21  C   UNL     1      43.463 -14.457   6.618  1.00  0.00     0.140 A 
HETATM   22  O   UNL     1      42.856 -13.296   6.106  1.00  0.00    -0.279 OA
HETATM   23  H   UNL     1      40.664 -18.890   4.603  1.00  0.00     0.169 HD
ENDROOT
BRANCH  21  24
HETATM   24  N   UNL     1      44.346 -14.188   7.639  1.00  0.00    -0.282 NA
HETATM   25  H   UNL     1      44.783 -13.269   7.611  1.00  0.00     0.126 HD
HETATM   26  H   UNL     1      45.023 -14.937   7.760  1.00  0.00     0.126 HD
ENDBRANCH  21  24
BRANCH   1  27
HETATM   27  C   UNL     1      39.433 -15.144   3.045  1.00  0.00     0.062 C 
BRANCH  27  28
HETATM   28  C   UNL     1      39.484 -14.813   1.550  1.00  0.00     0.006 C 
BRANCH  28  29
HETATM   29  C   UNL     1      40.652 -15.511   0.856  1.00  0.00    -0.004 C 
HETATM   30  C   UNL     1      41.614 -14.503   0.246  1.00  0.00     0.005 C 
ENDBRANCH  28  29
ENDBRANCH  27  28
ENDBRANCH   1  27
TORSDOF 4
ENDMDL
MODEL 5
REMARK VINA RESULT:      -6.4      3.143      4.484
REMARK  4 active torsions:
REMARK  status: ('A' for Active; 'I' for Inactive)
REMARK    1  A    between atoms: C_2  and  C_3 
REMARK    2  A    between atoms: C_3  and  C_4 
REMARK    3  A    between atoms: C_4  and  C_5 
REMARK    4  A    between atoms: C_25  and  N_26 
ROOT
HETATM    1  C   UNL     1      40.974 -15.076   1.723  1.00  0.00     0.067 A 
HETATM    2  N   UNL     1      40.330 -16.185   2.129  1.00  0.00    -0.177 NA
HETATM    3  N   UNL     1      39.027 -15.903   1.947  1.00  0.00    -0.256 N 
HETATM    4  H   UNL     1      38.334 -16.595   2.211  1.00  0.00     0.191 HD
HETATM    5  C   UNL     1      38.826 -14.663   1.436  1.00  0.00     0.176 A 
HETATM    6  C   UNL     1      40.064 -14.103   1.235  1.00  0.00     0.049 A 
HETATM    7  C   UNL     1      40.153 -12.723   0.676  1.00  0.00     0.144 A 
HETATM    8  C   UNL     1      41.058 -11.812   1.548  1.00  0.00     0.246 A 
HETATM    9  O   UNL     1      40.860 -11.434   2.692  1.00  0.00    -0.271 OA
HETATM   10  N   UNL     1      42.158 -11.463   0.773  1.00  0.00    -0.325 N 
HETATM   11  C   UNL     1      42.090 -12.029  -0.493  1.00  0.00     0.043 A 
HETATM   12  C   UNL     1      40.928 -12.804  -0.628  1.00  0.00     0.003 A 
HETATM   13  C   UNL     1      43.017 -11.874  -1.502  1.00  0.00     0.030 A 
HETATM   14  C   UNL     1      42.766 -12.528  -2.705  1.00  0.00     0.003 A 
HETATM   15  C   UNL     1      41.607 -13.305  -2.870  1.00  0.00     0.007 A 
HETATM   16  C   UNL     1      40.661 -13.451  -1.837  1.00  0.00    -0.051 A 
HETATM   17  C   UNL     1      39.443 -14.293  -2.067  1.00  0.00     0.049 C 
HETATM   18  C   UNL     1      38.771 -12.095   0.556  1.00  0.00     0.081 A 
HETATM   19  C   UNL     1      38.710 -10.611   0.234  1.00  0.00     0.021 C 
HETATM   20  N   UNL     1      38.660  -9.379  -0.033  1.00  0.00    -0.096 N 
HETATM   21  C   UNL     1      37.621 -12.774   0.818  1.00  0.00     0.140 A 
HETATM   22  O   UNL     1      37.633 -14.123   1.215  1.00  0.00    -0.279 OA
HETATM   23  H   UNL     1      42.891 -10.853   1.106  1.00  0.00     0.169 HD
ENDROOT
BRANCH  21  24
HETATM   24  N   UNL     1      36.349 -12.251   0.748  1.00  0.00    -0.282 NA
HETATM   25  H   UNL     1      36.111 -11.577   1.472  1.00  0.00     0.126 HD
HETATM   26  H   UNL     1      35.647 -12.981   0.651  1.00  0.00     0.126 HD
ENDBRANCH  21  24
BRANCH   1  27
HETATM   27  C   UNL     1      42.461 -15.003   1.860  1.00  0.00     0.062 C 
BRANCH  27  28
HETATM   28  C   UNL     1      43.035 -16.265   2.511  1.00  0.00     0.006 C 
BRANCH  28  29
HETATM   29  C   UNL     1      43.856 -17.089   1.521  1.00  0.00    -0.004 C 
HETATM   30  C   UNL     1      43.772 -18.574   1.835  1.00  0.00     0.005 C 
ENDBRANCH  28  29
ENDBRANCH  27  28
ENDBRANCH   1  27
TORSDOF 4
ENDMDL
MODEL 6
REMARK VINA RESULT:      -6.4      3.562      6.291
REMARK  4 active torsions:
REMARK  status: ('A' for Active; 'I' for Inactive)
REMARK    1  A    between atoms: C_2  and  C_3 
REMARK    2  A    between atoms: C_3  and  C_4 
REMARK    3  A    between atoms: C_4  and  C_5 
REMARK    4  A    between atoms: C_25  and  N_26 
ROOT
HETATM    1  C   UNL     1      41.105 -14.949  -0.760  1.00  0.00     0.067 A 
HETATM    2  N   UNL     1      41.188 -16.289  -0.839  1.00  0.00    -0.177 NA
HETATM    3  N   UNL     1      40.833 -16.721   0.385  1.00  0.00    -0.256 N 
HETATM    4  H   UNL     1      40.844 -17.717   0.576  1.00  0.00     0.191 HD
HETATM    5  C   UNL     1      40.525 -15.705   1.229  1.00  0.00     0.176 A 
HETATM    6  C   UNL     1      40.647 -14.537   0.517  1.00  0.00     0.049 A 
HETATM    7  C   UNL     1      40.368 -13.240   1.199  1.00  0.00     0.144 A 
HETATM    8  C   UNL     1      41.534 -12.232   1.008  1.00  0.00     0.246 A 
HETATM    9  O   UNL     1      42.674 -12.317   1.436  1.00  0.00    -0.271 OA
HETATM   10  N   UNL     1      41.038 -11.167   0.265  1.00  0.00    -0.325 N 
HETATM   11  C   UNL     1      39.700 -11.348  -0.056  1.00  0.00     0.043 A 
HETATM   12  C   UNL     1      39.227 -12.565   0.456  1.00  0.00     0.003 A 
HETATM   13  C   UNL     1      38.913 -10.475  -0.777  1.00  0.00     0.030 A 
HETATM   14  C   UNL     1      37.588 -10.840  -0.994  1.00  0.00     0.003 A 
HETATM   15  C   UNL     1      37.085 -12.051  -0.486  1.00  0.00     0.007 A 
HETATM   16  C   UNL     1      37.894 -12.933   0.257  1.00  0.00    -0.051 A 
HETATM   17  C   UNL     1      37.307 -14.211   0.774  1.00  0.00     0.049 C 
HETATM   18  C   UNL     1      40.121 -13.450   2.687  1.00  0.00     0.081 A 
HETATM   19  C   UNL     1      40.064 -12.209   3.562  1.00  0.00     0.021 C 
HETATM   20  N   UNL     1      40.017 -11.179   4.288  1.00  0.00    -0.096 N 
HETATM   21  C   UNL     1      40.053 -14.681   3.262  1.00  0.00     0.140 A 
HETATM   22  O   UNL     1      40.198 -15.859   2.507  1.00  0.00    -0.279 OA
HETATM   23  H   UNL     1      41.599 -10.363   0.021  1.00  0.00     0.169 HD
ENDROOT
BRANCH  21  24
HETATM   24  N   UNL     1      39.856 -14.930   4.602  1.00  0.00    -0.282 NA
HETATM   25  H   UNL     1      39.088 -15.560   4.823  1.00  0.00     0.126 HD
HETATM   26  H   UNL     1      39.821 -14.070   5.144  1.00  0.00     0.126 HD
ENDBRANCH  21  24
BRANCH   1  27
HETATM   27  C   UNL     1      41.511 -14.122  -1.937  1.00  0.00     0.062 C 
BRANCH  27  28
HETATM   28  C   UNL     1      40.645 -14.418  -3.166  1.00  0.00     0.006 C 
BRANCH  28  29
HETATM   29  C   UNL     1      39.331 -13.640  -3.133  1.00  0.00    -0.004 C 
HETATM   30  C   UNL     1      38.135 -14.577  -3.074  1.00  0.00     0.005 C 
ENDBRANCH  28  29
ENDBRANCH  27  28
ENDBRANCH   1  27
TORSDOF 4
ENDMDL
MODEL 7
REMARK VINA RESULT:      -6.3      2.759      4.016
REMARK  4 active torsions:
REMARK  status: ('A' for Active; 'I' for Inactive)
REMARK    1  A    between atoms: C_2  and  C_3 
REMARK    2  A    between atoms: C_3  and  C_4 
REMARK    3  A    between atoms: C_4  and  C_5 
REMARK    4  A    between atoms: C_25  and  N_26 
ROOT
HETATM    1  C   UNL     1      41.103 -15.775   1.898  1.00  0.00     0.067 A 
HETATM    2  N   UNL     1      40.847 -16.568   2.953  1.00  0.00    -0.177 NA
HETATM    3  N   UNL     1      40.135 -15.793   3.792  1.00  0.00    -0.256 N 
HETATM    4  H   UNL     1      39.844 -16.176   4.685  1.00  0.00     0.191 HD
HETATM    5  C   UNL     1      39.928 -14.546   3.303  1.00  0.00     0.176 A 
HETATM    6  C   UNL     1      40.502 -14.499   2.056  1.00  0.00     0.049 A 
HETATM    7  C   UNL     1      40.431 -13.233   1.272  1.00  0.00     0.144 A 
HETATM    8  C   UNL     1      41.831 -12.795   0.765  1.00  0.00     0.246 A 
HETATM    9  O   UNL     1      42.789 -12.435   1.432  1.00  0.00    -0.271 OA
HETATM   10  N   UNL     1      41.804 -12.858  -0.623  1.00  0.00    -0.325 N 
HETATM   11  C   UNL     1      40.568 -13.280  -1.091  1.00  0.00     0.043 A 
HETATM   12  C   UNL     1      39.694 -13.535  -0.023  1.00  0.00     0.003 A 
HETATM   13  C   UNL     1      40.212 -13.441  -2.413  1.00  0.00     0.030 A 
HETATM   14  C   UNL     1      38.917 -13.877  -2.677  1.00  0.00     0.003 A 
HETATM   15  C   UNL     1      38.018 -14.133  -1.627  1.00  0.00     0.007 A 
HETATM   16  C   UNL     1      38.388 -13.958  -0.279  1.00  0.00    -0.051 A 
HETATM   17  C   UNL     1      37.390 -14.247   0.801  1.00  0.00     0.049 C 
HETATM   18  C   UNL     1      39.821 -12.112   2.103  1.00  0.00     0.081 A 
HETATM   19  C   UNL     1      39.901 -10.705   1.534  1.00  0.00     0.021 C 
HETATM   20  N   UNL     1      39.969  -9.538   1.062  1.00  0.00    -0.096 N 
HETATM   21  C   UNL     1      39.310 -12.305   3.349  1.00  0.00     0.140 A 
HETATM   22  O   UNL     1      39.303 -13.573   3.957  1.00  0.00    -0.279 OA
HETATM   23  H   UNL     1      42.595 -12.600  -1.198  1.00  0.00     0.169 HD
ENDROOT
BRANCH  21  24
HETATM   24  N   UNL     1      38.770 -11.327   4.153  1.00  0.00    -0.282 NA
HETATM   25  H   UNL     1      39.398 -10.937   4.852  1.00  0.00     0.126 HD
HETATM   26  H   UNL     1      37.878 -11.614   4.549  1.00  0.00     0.126 HD
ENDBRANCH  21  24
BRANCH   1  27
HETATM   27  C   UNL     1      41.955 -16.293   0.784  1.00  0.00     0.062 C 
BRANCH  27  28
HETATM   28  C   UNL     1      43.349 -16.699   1.276  1.00  0.00     0.006 C 
BRANCH  28  29
HETATM   29  C   UNL     1      43.524 -18.216   1.285  1.00  0.00    -0.004 C 
HETATM   30  C   UNL     1      43.868 -18.725   2.676  1.00  0.00     0.005 C 
ENDBRANCH  28  29
ENDBRANCH  27  28
ENDBRANCH   1  27
TORSDOF 4
ENDMDL
MODEL 8
REMARK VINA RESULT:      -6.3      2.925      6.480
REMARK  4 active torsions:
REMARK  status: ('A' for Active; 'I' for Inactive)
REMARK    1  A    between atoms: C_2  and  C_3 
REMARK    2  A    between atoms: C_3  and  C_4 
REMARK    3  A    between atoms: C_4  and  C_5 
REMARK    4  A    between atoms: C_25  and  N_26 
ROOT
HETATM    1  C   UNL     1      41.642 -13.505  -0.626  1.00  0.00     0.067 A 
HETATM    2  N   UNL     1      41.755 -14.399  -1.624  1.00  0.00    -0.177 NA
HETATM    3  N   UNL     1      41.407 -15.573  -1.065  1.00  0.00    -0.256 N 
HETATM    4  H   UNL     1      41.440 -16.415  -1.630  1.00  0.00     0.191 HD
HETATM    5  C   UNL     1      41.074 -15.450   0.244  1.00  0.00     0.176 A 
HETATM    6  C   UNL     1      41.171 -14.118   0.564  1.00  0.00     0.049 A 
HETATM    7  C   UNL     1      40.861 -13.682   1.955  1.00  0.00     0.144 A 
HETATM    8  C   UNL     1      42.004 -12.815   2.550  1.00  0.00     0.246 A 
HETATM    9  O   UNL     1      43.145 -13.160   2.815  1.00  0.00    -0.271 OA
HETATM   10  N   UNL     1      41.486 -11.542   2.763  1.00  0.00    -0.325 N 
HETATM   11  C   UNL     1      40.154 -11.464   2.384  1.00  0.00     0.043 A 
HETATM   12  C   UNL     1      39.707 -12.696   1.882  1.00  0.00     0.003 A 
HETATM   13  C   UNL     1      39.349 -10.347   2.472  1.00  0.00     0.030 A 
HETATM   14  C   UNL     1      38.033 -10.473   2.037  1.00  0.00     0.003 A 
HETATM   15  C   UNL     1      37.557 -11.697   1.537  1.00  0.00     0.007 A 
HETATM   16  C   UNL     1      38.384 -12.835   1.458  1.00  0.00    -0.051 A 
HETATM   17  C   UNL     1      37.824 -14.115   0.915  1.00  0.00     0.049 C 
HETATM   18  C   UNL     1      40.615 -14.882   2.860  1.00  0.00     0.081 A 
HETATM   19  C   UNL     1      40.527 -14.618   4.354  1.00  0.00     0.021 C 
HETATM   20  N   UNL     1      40.456 -14.398   5.593  1.00  0.00    -0.096 N 
HETATM   21  C   UNL     1      40.573 -16.162   2.400  1.00  0.00     0.140 A 
HETATM   22  O   UNL     1      40.747 -16.464   1.038  1.00  0.00    -0.279 OA
HETATM   23  H   UNL     1      42.029 -10.791   3.166  1.00  0.00     0.169 HD
ENDROOT
BRANCH  21  24
HETATM   24  N   UNL     1      40.378 -17.284   3.173  1.00  0.00    -0.282 NA
HETATM   25  H   UNL     1      39.422 -17.630   3.211  1.00  0.00     0.126 HD
HETATM   26  H   UNL     1      40.792 -17.183   4.097  1.00  0.00     0.126 HD
ENDBRANCH  21  24
BRANCH   1  27
HETATM   27  C   UNL     1      42.032 -12.083  -0.872  1.00  0.00     0.062 C 
BRANCH  27  28
HETATM   28  C   UNL     1      41.169 -11.437  -1.961  1.00  0.00     0.006 C 
BRANCH  28  29
HETATM   29  C   UNL     1      39.805 -11.010  -1.422  1.00  0.00    -0.004 C 
HETATM   30  C   UNL     1      38.682 -11.800  -2.075  1.00  0.00     0.005 C 
ENDBRANCH  28  29
ENDBRANCH  27  28
ENDBRANCH   1  27
TORSDOF 4
ENDMDL
MODEL 9
REMARK VINA RESULT:      -6.2      1.729      2.965
REMARK  4 active torsions:
REMARK  status: ('A' for Active; 'I' for Inactive)
REMARK    1  A    between atoms: C_2  and  C_3 
REMARK    2  A    between atoms: C_3  and  C_4 
REMARK    3  A    between atoms: C_4  and  C_5 
REMARK    4  A    between atoms: C_25  and  N_26 
ROOT
HETATM    1  C   UNL     1      42.204 -16.390   3.781  1.00  0.00     0.067 A 
HETATM    2  N   UNL     1      41.842 -17.456   4.516  1.00  0.00    -0.177 NA
HETATM    3  N   UNL     1      40.827 -17.009   5.279  1.00  0.00    -0.256 N 
HETATM    4  H   UNL     1      40.400 -17.642   5.947  1.00  0.00     0.191 HD
HETATM    5  C   UNL     1      40.534 -15.706   5.047  1.00  0.00     0.176 A 
HETATM    6  C   UNL     1      41.375 -15.272   4.052  1.00  0.00     0.049 A 
HETATM    7  C   UNL     1      41.279 -13.859   3.586  1.00  0.00     0.144 A 
HETATM    8  C   UNL     1      42.664 -13.158   3.599  1.00  0.00     0.246 A 
HETATM    9  O   UNL     1      43.357 -12.888   4.567  1.00  0.00    -0.271 OA
HETATM   10  N   UNL     1      42.983 -12.855   2.280  1.00  0.00    -0.325 N 
HETATM   11  C   UNL     1      41.987 -13.267   1.407  1.00  0.00     0.043 A 
HETATM   12  C   UNL     1      40.938 -13.884   2.105  1.00  0.00     0.003 A 
HETATM   13  C   UNL     1      41.993 -13.109   0.037  1.00  0.00     0.030 A 
HETATM   14  C   UNL     1      40.893 -13.594  -0.666  1.00  0.00     0.003 A 
HETATM   15  C   UNL     1      39.825 -14.210   0.009  1.00  0.00     0.007 A 
HETATM   16  C   UNL     1      39.824 -14.359   1.410  1.00  0.00    -0.051 A 
HETATM   17  C   UNL     1      38.660 -15.026   2.078  1.00  0.00     0.049 C 
HETATM   18  C   UNL     1      40.305 -13.067   4.449  1.00  0.00     0.081 A 
HETATM   19  C   UNL     1      40.278 -11.560   4.258  1.00  0.00     0.021 C 
HETATM   20  N   UNL     1      40.257 -10.309   4.101  1.00  0.00    -0.096 N 
HETATM   21  C   UNL     1      39.550 -13.634   5.428  1.00  0.00     0.140 A 
HETATM   22  O   UNL     1      39.613 -15.011   5.707  1.00  0.00    -0.279 OA
HETATM   23  H   UNL     1      43.833 -12.373   2.020  1.00  0.00     0.169 HD
ENDROOT
BRANCH  21  24
HETATM   24  N   UNL     1      38.673 -12.965   6.252  1.00  0.00    -0.282 NA
HETATM   25  H   UNL     1      38.797 -11.957   6.299  1.00  0.00     0.126 HD
HETATM   26  H   UNL     1      38.618 -13.394   7.173  1.00  0.00     0.126 HD
ENDBRANCH  21  24
BRANCH   1  27
HETATM   27  C   UNL     1      43.376 -16.504   2.859  1.00  0.00     0.062 C 
BRANCH  27  28
HETATM   28  C   UNL     1      42.946 -16.871   1.435  1.00  0.00     0.006 C 
BRANCH  28  29
HETATM   29  C   UNL     1      43.699 -18.094   0.915  1.00  0.00    -0.004 C 
HETATM   30  C   UNL     1      43.582 -19.265   1.877  1.00  0.00     0.005 C 
ENDBRANCH  28  29
ENDBRANCH  27  28
ENDBRANCH   1  27
TORSDOF 4
ENDMDL
MODEL 10
REMARK VINA RESULT:      -6.2      1.972      4.467
REMARK  4 active torsions:
REMARK  status: ('A' for Active; 'I' for Inactive)
REMARK    1  A    between atoms: C_2  and  C_3 
REMARK    2  A    between atoms: C_3  and  C_4 
REMARK    3  A    between atoms: C_4  and  C_5 
REMARK    4  A    between atoms: C_25  and  N_26 
ROOT
HETATM    1  C   UNL     1      41.130 -16.015   1.091  1.00  0.00     0.067 A 
HETATM    2  N   UNL     1      41.665 -16.224  -0.125  1.00  0.00    -0.177 NA
HETATM    3  N   UNL     1      42.154 -15.023  -0.489  1.00  0.00    -0.256 N 
HETATM    4  H   UNL     1      42.592 -14.927  -1.399  1.00  0.00     0.191 HD
HETATM    5  C   UNL     1      41.953 -14.070   0.454  1.00  0.00     0.176 A 
HETATM    6  C   UNL     1      41.329 -14.676   1.517  1.00  0.00     0.049 A 
HETATM    7  C   UNL     1      40.977 -13.859   2.714  1.00  0.00     0.144 A 
HETATM    8  C   UNL     1      39.486 -14.034   3.107  1.00  0.00     0.246 A 
HETATM    9  O   UNL     1      38.500 -13.694   2.472  1.00  0.00    -0.271 OA
HETATM   10  N   UNL     1      39.459 -14.640   4.358  1.00  0.00    -0.325 N 
HETATM   11  C   UNL     1      40.740 -14.884   4.834  1.00  0.00     0.043 A 
HETATM   12  C   UNL     1      41.703 -14.457   3.908  1.00  0.00     0.003 A 
HETATM   13  C   UNL     1      41.059 -15.466   6.042  1.00  0.00     0.030 A 
HETATM   14  C   UNL     1      42.410 -15.625   6.337  1.00  0.00     0.003 A 
HETATM   15  C   UNL     1      43.397 -15.200   5.431  1.00  0.00     0.007 A 
HETATM   16  C   UNL     1      43.061 -14.599   4.202  1.00  0.00    -0.051 A 
HETATM   17  C   UNL     1      44.154 -14.164   3.272  1.00  0.00     0.049 C 
HETATM   18  C   UNL     1      41.265 -12.384   2.469  1.00  0.00     0.081 A 
HETATM   19  C   UNL     1      40.738 -11.395   3.495  1.00  0.00     0.021 C 
HETATM   20  N   UNL     1      40.300 -10.575   4.347  1.00  0.00    -0.096 N 
HETATM   21  C   UNL     1      41.873 -11.923   1.342  1.00  0.00     0.140 A 
HETATM   22  O   UNL     1      42.291 -12.792   0.319  1.00  0.00    -0.279 OA
HETATM   23  H   UNL     1      38.599 -14.845   4.848  1.00  0.00     0.169 HD
ENDROOT
BRANCH  21  24
HETATM   24  N   UNL     1      42.137 -10.602   1.058  1.00  0.00    -0.282 NA
HETATM   25  H   UNL     1      41.481 -10.150   0.423  1.00  0.00     0.126 HD
HETATM   26  H   UNL     1      43.105 -10.461   0.780  1.00  0.00     0.126 HD
ENDBRANCH  21  24
BRANCH   1  27
HETATM   27  C   UNL     1      40.416 -17.135   1.776  1.00  0.00     0.062 C 
BRANCH  27  28
HETATM   28  C   UNL     1      41.234 -17.705   2.939  1.00  0.00     0.006 C 
BRANCH  28  29
HETATM   29  C   UNL     1      42.677 -17.993   2.527  1.00  0.00    -0.004 C 
HETATM   30  C   UNL     1      43.507 -18.460   3.712  1.00  0.00     0.005 C 
ENDBRANCH  28  29
ENDBRANCH  27  28
ENDBRANCH   1  27
TORSDOF 4
ENDMDL
