MODEL 1
REMARK VINA RESULT:      -7.4      0.000      0.000
REMARK  5 active torsions:
REMARK  status: ('A' for Active; 'I' for Inactive)
REMARK    1  A    between atoms: C_2  and  C_3 
REMARK    2  A    between atoms: C_7  and  C_8 
REMARK       I    between atoms: C_8  and  N_9 
REMARK    3  A    between atoms: N_9  and  C_10 
REMARK    4  A    between atoms: C_15  and  N_16 
REMARK       I    between atoms: N_16  and  C_17 
REMARK    5  A    between atoms: C_17  and  C_18 
ROOT
HETATM    1  C   UNL     1      42.808 -16.050   6.328  1.00  0.00     0.059 A 
HETATM    2  C   UNL     1      41.468 -16.045   5.905  1.00  0.00     0.060 A 
HETATM    3 CL   UNL     1      40.436 -14.658   5.991  1.00  0.00    -0.082 Cl
HETATM    4  C   UNL     1      40.954 -17.146   5.213  1.00  0.00     0.028 A 
HETATM    5  C   UNL     1      41.767 -18.236   4.895  1.00  0.00     0.031 A 
HETATM    6  C   UNL     1      43.115 -18.233   5.245  1.00  0.00     0.036 A 
HETATM    7  C   UNL     1      43.625 -17.137   5.960  1.00  0.00     0.060 A 
ENDROOT
BRANCH   1   8
HETATM    8  N   UNL     1      43.448 -15.013   7.050  1.00  0.00    -0.320 N 
HETATM    9  C   UNL     1      44.210 -13.997   6.504  1.00  0.00     0.274 C 
HETATM   10  O   UNL     1      44.289 -13.746   5.308  1.00  0.00    -0.266 OA
HETATM   11  H   UNL     1      43.125 -14.848   7.992  1.00  0.00     0.169 HD
BRANCH   9  12
HETATM   12  C   UNL     1      44.864 -13.157   7.479  1.00  0.00     0.120 A 
HETATM   13  N   UNL     1      46.208 -12.903   7.406  1.00  0.00    -0.273 N 
HETATM   14  N   UNL     1      46.669 -12.102   8.379  1.00  0.00    -0.179 NA
HETATM   15  H   UNL     1      46.856 -13.257   6.707  1.00  0.00     0.189 HD
HETATM   16  C   UNL     1      45.592 -11.840   9.126  1.00  0.00     0.056 A 
HETATM   17  C   UNL     1      44.438 -12.481   8.606  1.00  0.00     0.065 A 
BRANCH  16  18
HETATM   18  C   UNL     1      45.659 -10.974  10.345  1.00  0.00     0.056 C 
HETATM   19  C   UNL     1      44.385 -10.922  11.177  1.00  0.00     0.011 C 
ENDBRANCH  16  18
ENDBRANCH   9  12
ENDBRANCH   1   8
BRANCH   6  20
HETATM   20  N   UNL     1      44.017 -19.268   4.913  1.00  0.00    -0.327 N 
HETATM   21  C   UNL     1      44.256 -20.433   5.622  1.00  0.00     0.221 C 
HETATM   22  O   UNL     1      43.743 -20.763   6.686  1.00  0.00    -0.273 OA
HETATM   23  H   UNL     1      44.523 -19.160   4.044  1.00  0.00     0.169 HD
BRANCH  21  24
HETATM   24  C   UNL     1      45.262 -21.339   4.938  1.00  0.00     0.098 C 
HETATM   25  C   UNL     1      44.652 -22.680   4.574  1.00  0.00     0.014 C 
ENDBRANCH  21  24
ENDBRANCH   6  20
TORSDOF 5
ENDMDL
MODEL 2
REMARK VINA RESULT:      -7.4      2.113      2.132
REMARK  5 active torsions:
REMARK  status: ('A' for Active; 'I' for Inactive)
REMARK    1  A    between atoms: C_2  and  C_3 
REMARK    2  A    between atoms: C_7  and  C_8 
REMARK       I    between atoms: C_8  and  N_9 
REMARK    3  A    between atoms: N_9  and  C_10 
REMARK    4  A    between atoms: C_15  and  N_16 
REMARK       I    between atoms: N_16  and  C_17 
REMARK    5  A    between atoms: C_17  and  C_18 
ROOT
HETATM    1  C   UNL     1      42.882 -15.411   4.875  1.00  0.00     0.059 A 
HETATM    2  C   UNL     1      41.675 -15.033   4.262  1.00  0.00     0.060 A 
HETATM    3 CL   UNL     1      41.099 -13.402   4.189  1.00  0.00    -0.082 Cl
HETATM    4  C   UNL     1      40.959 -15.967   3.506  1.00  0.00     0.028 A 
HETATM    5  C   UNL     1      41.448 -17.261   3.315  1.00  0.00     0.031 A 
HETATM    6  C   UNL     1      42.674 -17.636   3.858  1.00  0.00     0.036 A 
HETATM    7  C   UNL     1      43.382 -16.705   4.635  1.00  0.00     0.060 A 
ENDROOT
BRANCH   1   8
HETATM    8  N   UNL     1      43.695 -14.573   5.679  1.00  0.00    -0.320 N 
HETATM    9  C   UNL     1      44.040 -14.802   6.997  1.00  0.00     0.274 C 
HETATM   10  O   UNL     1      43.843 -15.849   7.601  1.00  0.00    -0.266 OA
HETATM   11  H   UNL     1      44.270 -13.898   5.195  1.00  0.00     0.169 HD
BRANCH   9  12
HETATM   12  C   UNL     1      44.759 -13.716   7.619  1.00  0.00     0.120 A 
HETATM   13  N   UNL     1      45.990 -13.328   7.161  1.00  0.00    -0.273 N 
HETATM   14  N   UNL     1      46.530 -12.303   7.838  1.00  0.00    -0.179 NA
HETATM   15  H   UNL     1      46.506 -13.736   6.386  1.00  0.00     0.189 HD
HETATM   16  C   UNL     1      45.627 -12.024   8.785  1.00  0.00     0.056 A 
HETATM   17  C   UNL     1      44.504 -12.884   8.692  1.00  0.00     0.065 A 
BRANCH  16  18
HETATM   18  C   UNL     1      45.837 -10.931   9.786  1.00  0.00     0.056 C 
HETATM   19  C   UNL     1      44.773 -10.832  10.871  1.00  0.00     0.011 C 
ENDBRANCH  16  18
ENDBRANCH   9  12
ENDBRANCH   1   8
BRANCH   6  20
HETATM   20  N   UNL     1      43.265 -18.904   3.666  1.00  0.00    -0.327 N 
HETATM   21  C   UNL     1      43.772 -19.426   2.487  1.00  0.00     0.221 C 
HETATM   22  O   UNL     1      43.772 -18.885   1.387  1.00  0.00    -0.273 OA
HETATM   23  H   UNL     1      43.357 -19.485   4.490  1.00  0.00     0.169 HD
BRANCH  21  24
HETATM   24  C   UNL     1      44.376 -20.806   2.669  1.00  0.00     0.098 C 
HETATM   25  C   UNL     1      43.875 -21.779   1.620  1.00  0.00     0.014 C 
ENDBRANCH  21  24
ENDBRANCH   6  20
TORSDOF 5
ENDMDL
MODEL 3
REMARK VINA RESULT:      -7.3      5.817      8.846
REMARK  5 active torsions:
REMARK  status: ('A' for Active; 'I' for Inactive)
REMARK    1  A    between atoms: C_2  and  C_3 
REMARK    2  A    between atoms: C_7  and  C_8 
REMARK       I    between atoms: C_8  and  N_9 
REMARK    3  A    between atoms: N_9  and  C_10 
REMARK    4  A    between atoms: C_15  and  N_16 
REMARK       I    between atoms: N_16  and  C_17 
REMARK    5  A    between atoms: C_17  and  C_18 
ROOT
HETATM    1  C   UNL     1      41.932 -15.747   1.318  1.00  0.00     0.059 A 
HETATM    2  C   UNL     1      42.141 -14.411   1.703  1.00  0.00     0.060 A 
HETATM    3 CL   UNL     1      43.277 -13.922   2.913  1.00  0.00    -0.082 Cl
HETATM    4  C   UNL     1      41.546 -13.378   0.972  1.00  0.00     0.028 A 
HETATM    5  C   UNL     1      40.781 -13.652  -0.165  1.00  0.00     0.031 A 
HETATM    6  C   UNL     1      40.617 -14.963  -0.602  1.00  0.00     0.036 A 
HETATM    7  C   UNL     1      41.196 -16.002   0.145  1.00  0.00     0.060 A 
ENDROOT
BRANCH   1   8
HETATM    8  N   UNL     1      42.459 -16.885   1.978  1.00  0.00    -0.320 N 
HETATM    9  C   UNL     1      43.735 -17.393   1.823  1.00  0.00     0.274 C 
HETATM   10  O   UNL     1      44.647 -16.826   1.234  1.00  0.00    -0.266 OA
HETATM   11  H   UNL     1      41.968 -17.201   2.802  1.00  0.00     0.169 HD
BRANCH   9  12
HETATM   12  C   UNL     1      43.962 -18.645   2.505  1.00  0.00     0.120 A 
HETATM   13  N   UNL     1      44.161 -18.687   3.859  1.00  0.00    -0.273 N 
HETATM   14  N   UNL     1      44.353 -19.922   4.347  1.00  0.00    -0.179 NA
HETATM   15  H   UNL     1      44.176 -17.895   4.496  1.00  0.00     0.189 HD
HETATM   16  C   UNL     1      44.297 -20.713   3.270  1.00  0.00     0.056 A 
HETATM   17  C   UNL     1      44.059 -19.960   2.093  1.00  0.00     0.065 A 
BRANCH  16  18
HETATM   18  C   UNL     1      44.474 -22.196   3.362  1.00  0.00     0.056 C 
HETATM   19  C   UNL     1      44.781 -22.730   4.754  1.00  0.00     0.011 C 
ENDBRANCH  16  18
ENDBRANCH   9  12
ENDBRANCH   1   8
BRANCH   6  20
HETATM   20  N   UNL     1      39.908 -15.321  -1.770  1.00  0.00    -0.327 N 
HETATM   21  C   UNL     1      40.427 -15.532  -3.037  1.00  0.00     0.221 C 
HETATM   22  O   UNL     1      41.599 -15.417  -3.378  1.00  0.00    -0.273 OA
HETATM   23  H   UNL     1      38.913 -15.471  -1.662  1.00  0.00     0.169 HD
BRANCH  21  24
HETATM   24  C   UNL     1      39.369 -15.952  -4.040  1.00  0.00     0.098 C 
HETATM   25  C   UNL     1      38.011 -15.370  -3.699  1.00  0.00     0.014 C 
ENDBRANCH  21  24
ENDBRANCH   6  20
TORSDOF 5
ENDMDL
MODEL 4
REMARK VINA RESULT:      -7.1      2.846      3.865
REMARK  5 active torsions:
REMARK  status: ('A' for Active; 'I' for Inactive)
REMARK    1  A    between atoms: C_2  and  C_3 
REMARK    2  A    between atoms: C_7  and  C_8 
REMARK       I    between atoms: C_8  and  N_9 
REMARK    3  A    between atoms: N_9  and  C_10 
REMARK    4  A    between atoms: C_15  and  N_16 
REMARK       I    between atoms: N_16  and  C_17 
REMARK    5  A    between atoms: C_17  and  C_18 
ROOT
HETATM    1  C   UNL     1      43.511 -15.355   6.534  1.00  0.00     0.059 A 
HETATM    2  C   UNL     1      43.478 -16.682   6.995  1.00  0.00     0.060 A 
HETATM    3 CL   UNL     1      43.502 -17.123   8.669  1.00  0.00    -0.082 Cl
HETATM    4  C   UNL     1      43.239 -17.724   6.093  1.00  0.00     0.028 A 
HETATM    5  C   UNL     1      42.986 -17.461   4.744  1.00  0.00     0.031 A 
HETATM    6  C   UNL     1      42.947 -16.149   4.280  1.00  0.00     0.036 A 
HETATM    7  C   UNL     1      43.210 -15.105   5.181  1.00  0.00     0.060 A 
ENDROOT
BRANCH   1   8
HETATM    8  N   UNL     1      43.759 -14.212   7.334  1.00  0.00    -0.320 N 
HETATM    9  C   UNL     1      44.961 -13.535   7.429  1.00  0.00     0.274 C 
HETATM   10  O   UNL     1      45.927 -13.719   6.699  1.00  0.00    -0.266 OA
HETATM   11  H   UNL     1      42.952 -13.701   7.660  1.00  0.00     0.169 HD
BRANCH   9  12
HETATM   12  C   UNL     1      44.977 -12.493   8.427  1.00  0.00     0.120 A 
HETATM   13  N   UNL     1      46.059 -11.665   8.568  1.00  0.00    -0.273 N 
HETATM   14  N   UNL     1      45.924 -10.744   9.534  1.00  0.00    -0.179 NA
HETATM   15  H   UNL     1      46.920 -11.692   8.027  1.00  0.00     0.189 HD
HETATM   16  C   UNL     1      44.717 -10.990  10.055  1.00  0.00     0.056 A 
HETATM   17  C   UNL     1      44.088 -12.078   9.399  1.00  0.00     0.065 A 
BRANCH  16  18
HETATM   18  C   UNL     1      44.160 -10.186  11.188  1.00  0.00     0.056 C 
HETATM   19  C   UNL     1      43.370 -10.978  12.220  1.00  0.00     0.011 C 
ENDBRANCH  16  18
ENDBRANCH   9  12
ENDBRANCH   1   8
BRANCH   6  20
HETATM   20  N   UNL     1      42.644 -15.794   2.947  1.00  0.00    -0.327 N 
HETATM   21  C   UNL     1      41.426 -15.363   2.448  1.00  0.00     0.221 C 
HETATM   22  O   UNL     1      40.380 -15.238   3.075  1.00  0.00    -0.273 OA
HETATM   23  H   UNL     1      43.412 -15.829   2.288  1.00  0.00     0.169 HD
BRANCH  21  24
HETATM   24  C   UNL     1      41.486 -15.025   0.970  1.00  0.00     0.098 C 
HETATM   25  C   UNL     1      41.586 -16.273   0.114  1.00  0.00     0.014 C 
ENDBRANCH  21  24
ENDBRANCH   6  20
TORSDOF 5
ENDMDL
MODEL 5
REMARK VINA RESULT:      -7.1      4.573      8.231
REMARK  5 active torsions:
REMARK  status: ('A' for Active; 'I' for Inactive)
REMARK    1  A    between atoms: C_2  and  C_3 
REMARK    2  A    between atoms: C_7  and  C_8 
REMARK       I    between atoms: C_8  and  N_9 
REMARK    3  A    between atoms: N_9  and  C_10 
REMARK    4  A    between atoms: C_15  and  N_16 
REMARK       I    between atoms: N_16  and  C_17 
REMARK    5  A    between atoms: C_17  and  C_18 
ROOT
HETATM    1  C   UNL     1      43.253 -16.448   4.093  1.00  0.00     0.059 A 
HETATM    2  C   UNL     1      43.760 -17.735   4.338  1.00  0.00     0.060 A 
HETATM    3 CL   UNL     1      44.006 -18.926   3.106  1.00  0.00    -0.082 Cl
HETATM    4  C   UNL     1      44.270 -18.051   5.602  1.00  0.00     0.028 A 
HETATM    5  C   UNL     1      44.322 -17.089   6.614  1.00  0.00     0.031 A 
HETATM    6  C   UNL     1      43.887 -15.790   6.372  1.00  0.00     0.036 A 
HETATM    7  C   UNL     1      43.355 -15.479   5.110  1.00  0.00     0.060 A 
ENDROOT
BRANCH   1   8
HETATM    8  N   UNL     1      42.694 -16.003   2.869  1.00  0.00    -0.320 N 
HETATM    9  C   UNL     1      41.443 -16.334   2.382  1.00  0.00     0.274 C 
HETATM   10  O   UNL     1      40.572 -16.910   3.022  1.00  0.00    -0.266 OA
HETATM   11  H   UNL     1      43.121 -15.195   2.441  1.00  0.00     0.169 HD
BRANCH   9  12
HETATM   12  C   UNL     1      41.183 -15.859   1.044  1.00  0.00     0.120 A 
HETATM   13  N   UNL     1      40.346 -14.797   0.820  1.00  0.00    -0.273 N 
HETATM   14  N   UNL     1      40.208 -14.471  -0.474  1.00  0.00    -0.179 NA
HETATM   15  H   UNL     1      39.842 -14.262   1.522  1.00  0.00     0.189 HD
HETATM   16  C   UNL     1      40.966 -15.363  -1.120  1.00  0.00     0.056 A 
HETATM   17  C   UNL     1      41.593 -16.255  -0.214  1.00  0.00     0.065 A 
BRANCH  16  18
HETATM   18  C   UNL     1      41.094 -15.367  -2.611  1.00  0.00     0.056 C 
HETATM   19  C   UNL     1      39.782 -15.478  -3.375  1.00  0.00     0.011 C 
ENDBRANCH  16  18
ENDBRANCH   9  12
ENDBRANCH   1   8
BRANCH   6  20
HETATM   20  N   UNL     1      43.957 -14.745   7.320  1.00  0.00    -0.327 N 
HETATM   21  C   UNL     1      44.897 -13.730   7.384  1.00  0.00     0.221 C 
HETATM   22  O   UNL     1      45.857 -13.571   6.639  1.00  0.00    -0.273 OA
HETATM   23  H   UNL     1      43.220 -14.719   8.013  1.00  0.00     0.169 HD
BRANCH  21  24
HETATM   24  C   UNL     1      44.629 -12.755   8.515  1.00  0.00     0.098 C 
HETATM   25  C   UNL     1      45.864 -11.943   8.858  1.00  0.00     0.014 C 
ENDBRANCH  21  24
ENDBRANCH   6  20
TORSDOF 5
ENDMDL
MODEL 6
REMARK VINA RESULT:      -7.0      5.459      6.805
REMARK  5 active torsions:
REMARK  status: ('A' for Active; 'I' for Inactive)
REMARK    1  A    between atoms: C_2  and  C_3 
REMARK    2  A    between atoms: C_7  and  C_8 
REMARK       I    between atoms: C_8  and  N_9 
REMARK    3  A    between atoms: N_9  and  C_10 
REMARK    4  A    between atoms: C_15  and  N_16 
REMARK       I    between atoms: N_16  and  C_17 
REMARK    5  A    between atoms: C_17  and  C_18 
ROOT
HETATM    1  C   UNL     1      42.085 -15.924   2.662  1.00  0.00     0.059 A 
HETATM    2  C   UNL     1      41.354 -15.754   3.850  1.00  0.00     0.060 A 
HETATM    3 CL   UNL     1      40.318 -14.402   4.160  1.00  0.00    -0.082 Cl
HETATM    4  C   UNL     1      41.295 -16.794   4.784  1.00  0.00     0.028 A 
HETATM    5  C   UNL     1      41.917 -18.019   4.533  1.00  0.00     0.031 A 
HETATM    6  C   UNL     1      42.590 -18.232   3.333  1.00  0.00     0.036 A 
HETATM    7  C   UNL     1      42.668 -17.181   2.406  1.00  0.00     0.060 A 
ENDROOT
BRANCH   1   8
HETATM    8  N   UNL     1      42.240 -14.951   1.644  1.00  0.00    -0.320 N 
HETATM    9  C   UNL     1      41.324 -14.664   0.650  1.00  0.00     0.274 C 
HETATM   10  O   UNL     1      40.173 -15.083   0.617  1.00  0.00    -0.266 OA
HETATM   11  H   UNL     1      42.945 -14.243   1.796  1.00  0.00     0.169 HD
BRANCH   9  12
HETATM   12  C   UNL     1      41.797 -13.729  -0.341  1.00  0.00     0.120 A 
HETATM   13  N   UNL     1      42.078 -14.134  -1.619  1.00  0.00    -0.273 N 
HETATM   14  N   UNL     1      42.505 -13.150  -2.426  1.00  0.00    -0.179 NA
HETATM   15  H   UNL     1      41.997 -15.077  -1.989  1.00  0.00     0.189 HD
HETATM   16  C   UNL     1      42.521 -12.067  -1.642  1.00  0.00     0.056 A 
HETATM   17  C   UNL     1      42.091 -12.379  -0.327  1.00  0.00     0.065 A 
BRANCH  16  18
HETATM   18  C   UNL     1      42.950 -10.725  -2.147  1.00  0.00     0.056 C 
HETATM   19  C   UNL     1      43.753  -9.887  -1.162  1.00  0.00     0.011 C 
ENDBRANCH  16  18
ENDBRANCH   9  12
ENDBRANCH   1   8
BRANCH   6  20
HETATM   20  N   UNL     1      43.197 -19.457   2.978  1.00  0.00    -0.327 N 
HETATM   21  C   UNL     1      44.278 -20.068   3.592  1.00  0.00     0.221 C 
HETATM   22  O   UNL     1      44.921 -19.638   4.543  1.00  0.00    -0.273 OA
HETATM   23  H   UNL     1      42.777 -19.958   2.206  1.00  0.00     0.169 HD
BRANCH  21  24
HETATM   24  C   UNL     1      44.629 -21.405   2.964  1.00  0.00     0.098 C 
HETATM   25  C   UNL     1      43.875 -21.629   1.668  1.00  0.00     0.014 C 
ENDBRANCH  21  24
ENDBRANCH   6  20
TORSDOF 5
ENDMDL
MODEL 7
REMARK VINA RESULT:      -7.0      3.913      5.376
REMARK  5 active torsions:
REMARK  status: ('A' for Active; 'I' for Inactive)
REMARK    1  A    between atoms: C_2  and  C_3 
REMARK    2  A    between atoms: C_7  and  C_8 
REMARK       I    between atoms: C_8  and  N_9 
REMARK    3  A    between atoms: N_9  and  C_10 
REMARK    4  A    between atoms: C_15  and  N_16 
REMARK       I    between atoms: N_16  and  C_17 
REMARK    5  A    between atoms: C_17  and  C_18 
ROOT
HETATM    1  C   UNL     1      43.419 -16.847   4.984  1.00  0.00     0.059 A 
HETATM    2  C   UNL     1      44.137 -16.746   6.188  1.00  0.00     0.060 A 
HETATM    3 CL   UNL     1      43.857 -15.519   7.377  1.00  0.00    -0.082 Cl
HETATM    4  C   UNL     1      45.011 -17.771   6.564  1.00  0.00     0.028 A 
HETATM    5  C   UNL     1      45.149 -18.919   5.779  1.00  0.00     0.031 A 
HETATM    6  C   UNL     1      44.397 -19.070   4.617  1.00  0.00     0.036 A 
HETATM    7  C   UNL     1      43.536 -18.031   4.229  1.00  0.00     0.060 A 
ENDROOT
BRANCH   1   8
HETATM    8  N   UNL     1      42.518 -15.878   4.478  1.00  0.00    -0.320 N 
HETATM    9  C   UNL     1      41.195 -15.729   4.850  1.00  0.00     0.274 C 
HETATM   10  O   UNL     1      40.667 -16.295   5.798  1.00  0.00    -0.266 OA
HETATM   11  H   UNL     1      42.924 -15.082   4.007  1.00  0.00     0.169 HD
BRANCH   9  12
HETATM   12  C   UNL     1      40.467 -14.755   4.073  1.00  0.00     0.120 A 
HETATM   13  N   UNL     1      39.663 -15.137   3.032  1.00  0.00    -0.273 N 
HETATM   14  N   UNL     1      39.049 -14.120   2.409  1.00  0.00    -0.179 NA
HETATM   15  H   UNL     1      39.502 -16.087   2.706  1.00  0.00     0.189 HD
HETATM   16  C   UNL     1      39.483 -13.031   3.054  1.00  0.00     0.056 A 
HETATM   17  C   UNL     1      40.376 -13.377   4.100  1.00  0.00     0.065 A 
BRANCH  16  18
HETATM   18  C   UNL     1      39.046 -11.652   2.670  1.00  0.00     0.056 C 
HETATM   19  C   UNL     1      38.356 -10.859   3.772  1.00  0.00     0.011 C 
ENDBRANCH  16  18
ENDBRANCH   9  12
ENDBRANCH   1   8
BRANCH   6  20
HETATM   20  N   UNL     1      44.435 -20.220   3.799  1.00  0.00    -0.327 N 
HETATM   21  C   UNL     1      44.666 -21.527   4.196  1.00  0.00     0.221 C 
HETATM   22  O   UNL     1      44.908 -21.916   5.333  1.00  0.00    -0.273 OA
HETATM   23  H   UNL     1      44.241 -20.078   2.816  1.00  0.00     0.169 HD
BRANCH  21  24
HETATM   24  C   UNL     1      44.585 -22.512   3.044  1.00  0.00     0.098 C 
HETATM   25  C   UNL     1      44.105 -21.845   1.770  1.00  0.00     0.014 C 
ENDBRANCH  21  24
ENDBRANCH   6  20
TORSDOF 5
ENDMDL
MODEL 8
REMARK VINA RESULT:      -6.8      6.076      8.573
REMARK  5 active torsions:
REMARK  status: ('A' for Active; 'I' for Inactive)
REMARK    1  A    between atoms: C_2  and  C_3 
REMARK    2  A    between atoms: C_7  and  C_8 
REMARK       I    between atoms: C_8  and  N_9 
REMARK    3  A    between atoms: N_9  and  C_10 
REMARK    4  A    between atoms: C_15  and  N_16 
REMARK       I    between atoms: N_16  and  C_17 
REMARK    5  A    between atoms: C_17  and  C_18 
ROOT
HETATM    1  C   UNL     1      41.150 -16.638   1.565  1.00  0.00     0.059 A 
HETATM    2  C   UNL     1      40.891 -16.054   2.817  1.00  0.00     0.060 A 
HETATM    3 CL   UNL     1      39.740 -14.785   3.069  1.00  0.00    -0.082 Cl
HETATM    4  C   UNL     1      41.443 -16.616   3.972  1.00  0.00     0.028 A 
HETATM    5  C   UNL     1      42.214 -17.779   3.906  1.00  0.00     0.031 A 
HETATM    6  C   UNL     1      42.427 -18.412   2.685  1.00  0.00     0.036 A 
HETATM    7  C   UNL     1      41.891 -17.835   1.522  1.00  0.00     0.060 A 
ENDROOT
BRANCH   1   8
HETATM    8  N   UNL     1      40.670 -16.163   0.319  1.00  0.00    -0.320 N 
HETATM    9  C   UNL     1      41.058 -14.992  -0.305  1.00  0.00     0.274 C 
HETATM   10  O   UNL     1      42.003 -14.293   0.042  1.00  0.00    -0.266 OA
HETATM   11  H   UNL     1      40.209 -16.834  -0.277  1.00  0.00     0.169 HD
BRANCH   9  12
HETATM   12  C   UNL     1      40.306 -14.677  -1.496  1.00  0.00     0.120 A 
HETATM   13  N   UNL     1      40.805 -14.951  -2.742  1.00  0.00    -0.273 N 
HETATM   14  N   UNL     1      39.989 -14.605  -3.748  1.00  0.00    -0.179 NA
HETATM   15  H   UNL     1      41.705 -15.373  -2.956  1.00  0.00     0.189 HD
HETATM   16  C   UNL     1      38.926 -14.069  -3.139  1.00  0.00     0.056 A 
HETATM   17  C   UNL     1      39.079 -14.087  -1.730  1.00  0.00     0.065 A 
BRANCH  16  18
HETATM   18  C   UNL     1      37.756 -13.533  -3.904  1.00  0.00     0.056 C 
HETATM   19  C   UNL     1      36.696 -14.561  -4.275  1.00  0.00     0.011 C 
ENDBRANCH  16  18
ENDBRANCH   9  12
ENDBRANCH   1   8
BRANCH   6  20
HETATM   20  N   UNL     1      43.146 -19.619   2.538  1.00  0.00    -0.327 N 
HETATM   21  C   UNL     1      44.188 -20.077   3.326  1.00  0.00     0.221 C 
HETATM   22  O   UNL     1      44.694 -19.500   4.283  1.00  0.00    -0.273 OA
HETATM   23  H   UNL     1      42.845 -20.231   1.791  1.00  0.00     0.169 HD
BRANCH  21  24
HETATM   24  C   UNL     1      44.690 -21.444   2.897  1.00  0.00     0.098 C 
HETATM   25  C   UNL     1      44.070 -21.880   1.584  1.00  0.00     0.014 C 
ENDBRANCH  21  24
ENDBRANCH   6  20
TORSDOF 5
ENDMDL
MODEL 9
REMARK VINA RESULT:      -6.8      5.168      8.506
REMARK  5 active torsions:
REMARK  status: ('A' for Active; 'I' for Inactive)
REMARK    1  A    between atoms: C_2  and  C_3 
REMARK    2  A    between atoms: C_7  and  C_8 
REMARK       I    between atoms: C_8  and  N_9 
REMARK    3  A    between atoms: N_9  and  C_10 
REMARK    4  A    between atoms: C_15  and  N_16 
REMARK       I    between atoms: N_16  and  C_17 
REMARK    5  A    between atoms: C_17  and  C_18 
ROOT
HETATM    1  C   UNL     1      40.613 -15.362   2.632  1.00  0.00     0.059 A 
HETATM    2  C   UNL     1      40.337 -14.278   3.483  1.00  0.00     0.060 A 
HETATM    3 CL   UNL     1      41.161 -13.991   4.978  1.00  0.00    -0.082 Cl
HETATM    4  C   UNL     1      39.481 -13.259   3.052  1.00  0.00     0.028 A 
HETATM    5  C   UNL     1      38.930 -13.280   1.769  1.00  0.00     0.031 A 
HETATM    6  C   UNL     1      39.244 -14.309   0.886  1.00  0.00     0.036 A 
HETATM    7  C   UNL     1      40.085 -15.344   1.326  1.00  0.00     0.060 A 
ENDROOT
BRANCH   1   8
HETATM    8  N   UNL     1      41.444 -16.466   2.948  1.00  0.00    -0.320 N 
HETATM    9  C   UNL     1      42.822 -16.499   2.841  1.00  0.00     0.274 C 
HETATM   10  O   UNL     1      43.531 -15.523   2.632  1.00  0.00    -0.266 OA
HETATM   11  H   UNL     1      41.041 -17.187   3.528  1.00  0.00     0.169 HD
BRANCH   9  12
HETATM   12  C   UNL     1      43.405 -17.795   3.091  1.00  0.00     0.120 A 
HETATM   13  N   UNL     1      43.977 -18.093   4.299  1.00  0.00    -0.273 N 
HETATM   14  N   UNL     1      44.471 -19.338   4.381  1.00  0.00    -0.179 NA
HETATM   15  H   UNL     1      44.056 -17.476   5.103  1.00  0.00     0.189 HD
HETATM   16  C   UNL     1      44.231 -19.866   3.176  1.00  0.00     0.056 A 
HETATM   17  C   UNL     1      43.569 -18.937   2.332  1.00  0.00     0.065 A 
BRANCH  16  18
HETATM   18  C   UNL     1      44.635 -21.263   2.824  1.00  0.00     0.056 C 
HETATM   19  C   UNL     1      43.915 -21.865   1.625  1.00  0.00     0.011 C 
ENDBRANCH  16  18
ENDBRANCH   9  12
ENDBRANCH   1   8
BRANCH   6  20
HETATM   20  N   UNL     1      38.775 -14.377  -0.445  1.00  0.00    -0.327 N 
HETATM   21  C   UNL     1      39.428 -13.946  -1.588  1.00  0.00     0.221 C 
HETATM   22  O   UNL     1      40.525 -13.401  -1.645  1.00  0.00    -0.273 OA
HETATM   23  H   UNL     1      37.874 -14.817  -0.581  1.00  0.00     0.169 HD
BRANCH  21  24
HETATM   24  C   UNL     1      38.637 -14.223  -2.853  1.00  0.00     0.098 C 
HETATM   25  C   UNL     1      39.301 -15.288  -3.706  1.00  0.00     0.014 C 
ENDBRANCH  21  24
ENDBRANCH   6  20
TORSDOF 5
ENDMDL
MODEL 10
REMARK VINA RESULT:      -6.8      2.420      7.867
REMARK  5 active torsions:
REMARK  status: ('A' for Active; 'I' for Inactive)
REMARK    1  A    between atoms: C_2  and  C_3 
REMARK    2  A    between atoms: C_7  and  C_8 
REMARK       I    between atoms: C_8  and  N_9 
REMARK    3  A    between atoms: N_9  and  C_10 
REMARK    4  A    between atoms: C_15  and  N_16 
REMARK       I    between atoms: N_16  and  C_17 
REMARK    5  A    between atoms: C_17  and  C_18 
ROOT
HETATM    1  C   UNL     1      42.895 -15.042   4.391  1.00  0.00     0.059 A 
HETATM    2  C   UNL     1      42.045 -14.232   3.620  1.00  0.00     0.060 A 
HETATM    3 CL   UNL     1      41.208 -14.780   2.208  1.00  0.00    -0.082 Cl
HETATM    4  C   UNL     1      41.691 -12.960   4.083  1.00  0.00     0.028 A 
HETATM    5  C   UNL     1      42.138 -12.499   5.324  1.00  0.00     0.031 A 
HETATM    6  C   UNL     1      42.926 -13.312   6.134  1.00  0.00     0.036 A 
HETATM    7  C   UNL     1      43.299 -14.580   5.659  1.00  0.00     0.060 A 
ENDROOT
BRANCH   1   8
HETATM    8  N   UNL     1      43.344 -16.338   4.033  1.00  0.00    -0.320 N 
HETATM    9  C   UNL     1      42.744 -17.531   4.391  1.00  0.00     0.274 C 
HETATM   10  O   UNL     1      41.640 -17.630   4.913  1.00  0.00    -0.266 OA
HETATM   11  H   UNL     1      43.992 -16.398   3.261  1.00  0.00     0.169 HD
BRANCH   9  12
HETATM   12  C   UNL     1      43.490 -18.707   4.013  1.00  0.00     0.120 A 
HETATM   13  N   UNL     1      44.420 -19.256   4.857  1.00  0.00    -0.273 N 
HETATM   14  N   UNL     1      45.027 -20.348   4.368  1.00  0.00    -0.179 NA
HETATM   15  H   UNL     1      44.677 -18.918   5.780  1.00  0.00     0.189 HD
HETATM   16  C   UNL     1      44.489 -20.507   3.154  1.00  0.00     0.056 A 
HETATM   17  C   UNL     1      43.525 -19.502   2.884  1.00  0.00     0.065 A 
BRANCH  16  18
HETATM   18  C   UNL     1      44.897 -21.622   2.242  1.00  0.00     0.056 C 
HETATM   19  C   UNL     1      43.831 -22.075   1.254  1.00  0.00     0.011 C 
ENDBRANCH  16  18
ENDBRANCH   9  12
ENDBRANCH   1   8
BRANCH   6  20
HETATM   20  N   UNL     1      43.371 -12.946   7.423  1.00  0.00    -0.327 N 
HETATM   21  C   UNL     1      44.664 -13.013   7.915  1.00  0.00     0.221 C 
HETATM   22  O   UNL     1      45.654 -13.431   7.324  1.00  0.00    -0.273 OA
HETATM   23  H   UNL     1      42.673 -12.563   8.046  1.00  0.00     0.169 HD
BRANCH  21  24
HETATM   24  C   UNL     1      44.778 -12.488   9.335  1.00  0.00     0.098 C 
HETATM   25  C   UNL     1      45.701 -11.287   9.415  1.00  0.00     0.014 C 
ENDBRANCH  21  24
ENDBRANCH   6  20
TORSDOF 5
ENDMDL
