MODEL 1
REMARK VINA RESULT:      -9.2      0.000      0.000
REMARK  5 active torsions:
REMARK  status: ('A' for Active; 'I' for Inactive)
REMARK    1  A    between atoms: C_9  and  C_10 
REMARK       I    between atoms: C_10  and  N_11 
REMARK    2  A    between atoms: N_11  and  C_12 
REMARK    3  A    between atoms: C_12  and  C_13 
REMARK    4  A    between atoms: C_16  and  O_17 
REMARK    5  A    between atoms: O_17  and  C_18 
ROOT
HETATM    1  C   UNL     1      44.812 -12.072   9.180  1.00  0.00     0.273 C 
HETATM    2  N   UNL     1      44.366 -13.092   8.370  1.00  0.00    -0.351 N 
HETATM    3  O   UNL     1      45.610 -11.218   8.804  1.00  0.00    -0.266 OA
HETATM    4  H   UNL     1      43.774 -13.785   8.821  1.00  0.00     0.163 HD
ENDROOT
BRANCH   2   5
HETATM    5  C   UNL     1      44.914 -13.308   7.059  1.00  0.00     0.163 C 
BRANCH   5   6
HETATM    6  C   UNL     1      44.353 -14.545   6.427  1.00  0.00    -0.023 A 
HETATM    7  C   UNL     1      43.592 -14.474   5.264  1.00  0.00     0.128 A 
HETATM    8  N   UNL     1      43.072 -15.549   4.628  1.00  0.00    -0.236 NA
HETATM    9  C   UNL     1      43.324 -16.756   5.174  1.00  0.00     0.164 A 
HETATM   10  C   UNL     1      44.073 -16.936   6.325  1.00  0.00     0.059 A 
HETATM   11  C   UNL     1      44.603 -15.813   6.954  1.00  0.00     0.014 A 
BRANCH   9  12
HETATM   12  O   UNL     1      42.815 -17.900   4.595  1.00  0.00    -0.329 OA
BRANCH  12  13
HETATM   13  C   UNL     1      43.664 -18.501   3.623  1.00  0.00     0.130 C 
HETATM   14  C   UNL     1      44.195 -19.818   4.186  1.00  0.00     0.032 C 
HETATM   15  C   UNL     1      44.665 -20.556   2.945  1.00  0.00     0.002 C 
HETATM   16  C   UNL     1      43.625 -20.217   1.883  1.00  0.00     0.002 C 
HETATM   17  C   UNL     1      42.913 -18.953   2.369  1.00  0.00     0.032 C 
ENDBRANCH  12  13
ENDBRANCH   9  12
ENDBRANCH   5   6
ENDBRANCH   2   5
BRANCH   1  18
HETATM   18  C   UNL     1      44.249 -12.124  10.539  1.00  0.00     0.157 A 
HETATM   19  C   UNL     1      43.664 -11.052  11.276  1.00  0.00     0.029 A 
HETATM   20  C   UNL     1      43.402  -9.686  11.047  1.00  0.00     0.023 A 
HETATM   21  C   UNL     1      43.305 -11.607  12.497  1.00  0.00     0.063 A 
HETATM   22  C   UNL     1      42.787  -8.921  12.052  1.00  0.00    -0.061 A 
HETATM   23  C   UNL     1      42.502  -7.463  11.833  1.00  0.00     0.048 C 
HETATM   24  C   UNL     1      42.444  -9.521  13.271  1.00  0.00     0.009 A 
HETATM   25  C   UNL     1      42.695 -10.875  13.520  1.00  0.00     0.032 A 
HETATM   26  N   UNL     1      43.679 -12.920  12.421  1.00  0.00    -0.277 N 
HETATM   27  H   UNL     1      43.569 -13.630  13.136  1.00  0.00     0.189 HD
HETATM   28  N   UNL     1      44.255 -13.269  11.257  1.00  0.00    -0.168 NA
ENDBRANCH   1  18
TORSDOF 5
ENDMDL
MODEL 2
REMARK VINA RESULT:      -8.9      2.160      9.962
REMARK  5 active torsions:
REMARK  status: ('A' for Active; 'I' for Inactive)
REMARK    1  A    between atoms: C_9  and  C_10 
REMARK       I    between atoms: C_10  and  N_11 
REMARK    2  A    between atoms: N_11  and  C_12 
REMARK    3  A    between atoms: C_12  and  C_13 
REMARK    4  A    between atoms: C_16  and  O_17 
REMARK    5  A    between atoms: O_17  and  C_18 
ROOT
HETATM    1  C   UNL     1      43.788 -15.358   6.480  1.00  0.00     0.273 C 
HETATM    2  N   UNL     1      43.896 -14.045   6.880  1.00  0.00    -0.351 N 
HETATM    3  O   UNL     1      44.621 -16.214   6.760  1.00  0.00    -0.266 OA
HETATM    4  H   UNL     1      43.188 -13.413   6.512  1.00  0.00     0.163 HD
ENDROOT
BRANCH   2   5
HETATM    5  C   UNL     1      45.071 -13.553   7.545  1.00  0.00     0.163 C 
BRANCH   5   6
HETATM    6  C   UNL     1      44.729 -12.513   8.567  1.00  0.00    -0.023 A 
HETATM    7  C   UNL     1      43.624 -11.683   8.404  1.00  0.00     0.128 A 
HETATM    8  N   UNL     1      43.243 -10.739   9.294  1.00  0.00    -0.236 NA
HETATM    9  C   UNL     1      43.998 -10.613  10.404  1.00  0.00     0.164 A 
HETATM   10  C   UNL     1      45.114 -11.392  10.665  1.00  0.00     0.059 A 
HETATM   11  C   UNL     1      45.477 -12.362   9.736  1.00  0.00     0.014 A 
BRANCH   9  12
HETATM   12  O   UNL     1      43.686  -9.661  11.353  1.00  0.00    -0.329 OA
BRANCH  12  13
HETATM   13  C   UNL     1      43.371 -10.186  12.638  1.00  0.00     0.130 C 
HETATM   14  C   UNL     1      43.386  -9.042  13.650  1.00  0.00     0.032 C 
HETATM   15  C   UNL     1      42.603  -9.608  14.820  1.00  0.00     0.002 C 
HETATM   16  C   UNL     1      41.483 -10.416  14.173  1.00  0.00     0.002 C 
HETATM   17  C   UNL     1      41.933 -10.700  12.739  1.00  0.00     0.032 C 
ENDBRANCH  12  13
ENDBRANCH   9  12
ENDBRANCH   5   6
ENDBRANCH   2   5
BRANCH   1  18
HETATM   18  C   UNL     1      42.587 -15.619   5.669  1.00  0.00     0.157 A 
HETATM   19  C   UNL     1      42.532 -16.185   4.361  1.00  0.00     0.029 A 
HETATM   20  C   UNL     1      43.466 -16.674   3.425  1.00  0.00     0.023 A 
HETATM   21  C   UNL     1      41.182 -16.208   4.034  1.00  0.00     0.063 A 
HETATM   22  C   UNL     1      43.014 -17.172   2.192  1.00  0.00    -0.061 A 
HETATM   23  C   UNL     1      43.991 -17.695   1.178  1.00  0.00     0.048 C 
HETATM   24  C   UNL     1      41.644 -17.173   1.901  1.00  0.00     0.009 A 
HETATM   25  C   UNL     1      40.699 -16.692   2.815  1.00  0.00     0.032 A 
HETATM   26  N   UNL     1      40.539 -15.679   5.118  1.00  0.00    -0.277 N 
HETATM   27  H   UNL     1      39.541 -15.542   5.231  1.00  0.00     0.189 HD
HETATM   28  N   UNL     1      41.353 -15.309   6.123  1.00  0.00    -0.168 NA
ENDBRANCH   1  18
TORSDOF 5
ENDMDL
MODEL 3
REMARK VINA RESULT:      -8.5      1.474      1.998
REMARK  5 active torsions:
REMARK  status: ('A' for Active; 'I' for Inactive)
REMARK    1  A    between atoms: C_9  and  C_10 
REMARK       I    between atoms: C_10  and  N_11 
REMARK    2  A    between atoms: N_11  and  C_12 
REMARK    3  A    between atoms: C_12  and  C_13 
REMARK    4  A    between atoms: C_16  and  O_17 
REMARK    5  A    between atoms: O_17  and  C_18 
ROOT
HETATM    1  C   UNL     1      44.239 -11.926   9.321  1.00  0.00     0.273 C 
HETATM    2  N   UNL     1      44.254 -12.495   8.067  1.00  0.00    -0.351 N 
HETATM    3  O   UNL     1      44.988 -12.282  10.226  1.00  0.00    -0.266 OA
HETATM    4  H   UNL     1      43.528 -12.175   7.430  1.00  0.00     0.163 HD
ENDROOT
BRANCH   2   5
HETATM    5  C   UNL     1      45.062 -13.646   7.770  1.00  0.00     0.163 C 
BRANCH   5   6
HETATM    6  C   UNL     1      44.344 -14.602   6.868  1.00  0.00    -0.023 A 
HETATM    7  C   UNL     1      44.059 -14.267   5.549  1.00  0.00     0.128 A 
HETATM    8  N   UNL     1      43.434 -15.086   4.673  1.00  0.00    -0.236 NA
HETATM    9  C   UNL     1      43.076 -16.303   5.132  1.00  0.00     0.164 A 
HETATM   10  C   UNL     1      43.318 -16.737   6.425  1.00  0.00     0.059 A 
HETATM   11  C   UNL     1      43.970 -15.876   7.302  1.00  0.00     0.014 A 
BRANCH   9  12
HETATM   12  O   UNL     1      42.419 -17.191   4.305  1.00  0.00    -0.329 OA
BRANCH  12  13
HETATM   13  C   UNL     1      43.257 -17.857   3.366  1.00  0.00     0.130 C 
HETATM   14  C   UNL     1      43.835 -19.108   4.026  1.00  0.00     0.032 C 
HETATM   15  C   UNL     1      44.288 -19.942   2.842  1.00  0.00     0.002 C 
HETATM   16  C   UNL     1      43.212 -19.721   1.785  1.00  0.00     0.002 C 
HETATM   17  C   UNL     1      42.482 -18.435   2.178  1.00  0.00     0.032 C 
ENDBRANCH  12  13
ENDBRANCH   9  12
ENDBRANCH   5   6
ENDBRANCH   2   5
BRANCH   1  18
HETATM   18  C   UNL     1      43.224 -10.870   9.466  1.00  0.00     0.157 A 
HETATM   19  C   UNL     1      42.879 -10.158  10.652  1.00  0.00     0.029 A 
HETATM   20  C   UNL     1      43.306 -10.155  11.996  1.00  0.00     0.023 A 
HETATM   21  C   UNL     1      41.865  -9.289  10.270  1.00  0.00     0.063 A 
HETATM   22  C   UNL     1      42.702  -9.277  12.912  1.00  0.00    -0.061 A 
HETATM   23  C   UNL     1      43.137  -9.259  14.349  1.00  0.00     0.048 C 
HETATM   24  C   UNL     1      41.681  -8.419  12.484  1.00  0.00     0.009 A 
HETATM   25  C   UNL     1      41.241  -8.406  11.155  1.00  0.00     0.032 A 
HETATM   26  N   UNL     1      41.675  -9.521   8.936  1.00  0.00    -0.277 N 
HETATM   27  H   UNL     1      41.010  -9.062   8.324  1.00  0.00     0.189 HD
HETATM   28  N   UNL     1      42.473 -10.470   8.416  1.00  0.00    -0.168 NA
ENDBRANCH   1  18
TORSDOF 5
ENDMDL
MODEL 4
REMARK VINA RESULT:      -8.4      2.954      3.548
REMARK  5 active torsions:
REMARK  status: ('A' for Active; 'I' for Inactive)
REMARK    1  A    between atoms: C_9  and  C_10 
REMARK       I    between atoms: C_10  and  N_11 
REMARK    2  A    between atoms: N_11  and  C_12 
REMARK    3  A    between atoms: C_12  and  C_13 
REMARK    4  A    between atoms: C_16  and  O_17 
REMARK    5  A    between atoms: O_17  and  C_18 
ROOT
HETATM    1  C   UNL     1      40.186 -10.879   7.876  1.00  0.00     0.273 C 
HETATM    2  N   UNL     1      39.806 -12.173   7.599  1.00  0.00    -0.351 N 
HETATM    3  O   UNL     1      40.232  -9.998   7.024  1.00  0.00    -0.266 OA
HETATM    4  H   UNL     1      39.891 -12.831   8.371  1.00  0.00     0.163 HD
ENDROOT
BRANCH   2   5
HETATM    5  C   UNL     1      39.567 -12.617   6.254  1.00  0.00     0.163 C 
BRANCH   5   6
HETATM    6  C   UNL     1      40.580 -13.632   5.823  1.00  0.00    -0.023 A 
HETATM    7  C   UNL     1      41.872 -13.253   5.474  1.00  0.00     0.128 A 
HETATM    8  N   UNL     1      42.843 -14.115   5.096  1.00  0.00    -0.236 NA
HETATM    9  C   UNL     1      42.514 -15.422   5.065  1.00  0.00     0.164 A 
HETATM   10  C   UNL     1      41.259 -15.905   5.398  1.00  0.00     0.059 A 
HETATM   11  C   UNL     1      40.282 -14.996   5.792  1.00  0.00     0.014 A 
BRANCH   9  12
HETATM   12  O   UNL     1      43.444 -16.363   4.674  1.00  0.00    -0.329 OA
BRANCH  12  13
HETATM   13  C   UNL     1      43.079 -17.115   3.522  1.00  0.00     0.130 C 
HETATM   14  C   UNL     1      43.750 -16.491   2.299  1.00  0.00     0.032 C 
HETATM   15  C   UNL     1      43.685 -17.603   1.268  1.00  0.00     0.002 C 
HETATM   16  C   UNL     1      43.943 -18.877   2.065  1.00  0.00     0.002 C 
HETATM   17  C   UNL     1      43.651 -18.535   3.527  1.00  0.00     0.032 C 
ENDBRANCH  12  13
ENDBRANCH   9  12
ENDBRANCH   5   6
ENDBRANCH   2   5
BRANCH   1  18
HETATM   18  C   UNL     1      40.546 -10.671   9.288  1.00  0.00     0.157 A 
HETATM   19  C   UNL     1      41.855 -10.668   9.856  1.00  0.00     0.029 A 
HETATM   20  C   UNL     1      43.171 -10.830   9.377  1.00  0.00     0.023 A 
HETATM   21  C   UNL     1      41.659 -10.446  11.213  1.00  0.00     0.063 A 
HETATM   22  C   UNL     1      44.248 -10.761  10.276  1.00  0.00    -0.061 A 
HETATM   23  C   UNL     1      45.658 -10.934   9.790  1.00  0.00     0.048 C 
HETATM   24  C   UNL     1      44.005 -10.539  11.638  1.00  0.00     0.009 A 
HETATM   25  C   UNL     1      42.707 -10.376  12.135  1.00  0.00     0.032 A 
HETATM   26  N   UNL     1      40.306 -10.333  11.369  1.00  0.00    -0.277 N 
HETATM   27  H   UNL     1      39.800 -10.166  12.232  1.00  0.00     0.189 HD
HETATM   28  N   UNL     1      39.601 -10.466  10.231  1.00  0.00    -0.168 NA
ENDBRANCH   1  18
TORSDOF 5
ENDMDL
MODEL 5
REMARK VINA RESULT:      -8.3      2.456      3.581
REMARK  5 active torsions:
REMARK  status: ('A' for Active; 'I' for Inactive)
REMARK    1  A    between atoms: C_9  and  C_10 
REMARK       I    between atoms: C_10  and  N_11 
REMARK    2  A    between atoms: N_11  and  C_12 
REMARK    3  A    between atoms: C_12  and  C_13 
REMARK    4  A    between atoms: C_16  and  O_17 
REMARK    5  A    between atoms: O_17  and  C_18 
ROOT
HETATM    1  C   UNL     1      43.980 -14.424   6.898  1.00  0.00     0.273 C 
HETATM    2  N   UNL     1      43.121 -13.859   5.982  1.00  0.00    -0.351 N 
HETATM    3  O   UNL     1      43.884 -15.587   7.278  1.00  0.00    -0.266 OA
HETATM    4  H   UNL     1      43.250 -12.864   5.813  1.00  0.00     0.163 HD
ENDROOT
BRANCH   2   5
HETATM    5  C   UNL     1      41.960 -14.559   5.506  1.00  0.00     0.163 C 
BRANCH   5   6
HETATM    6  C   UNL     1      42.334 -15.682   4.588  1.00  0.00    -0.023 A 
HETATM    7  C   UNL     1      43.256 -15.494   3.564  1.00  0.00     0.128 A 
HETATM    8  N   UNL     1      43.656 -16.465   2.711  1.00  0.00    -0.236 NA
HETATM    9  C   UNL     1      43.114 -17.687   2.888  1.00  0.00     0.164 A 
HETATM   10  C   UNL     1      42.192 -17.981   3.880  1.00  0.00     0.059 A 
HETATM   11  C   UNL     1      41.805 -16.964   4.748  1.00  0.00     0.014 A 
BRANCH   9  12
HETATM   12  O   UNL     1      43.458 -18.728   2.050  1.00  0.00    -0.329 OA
BRANCH  12  13
HETATM   13  C   UNL     1      43.449 -20.012   2.664  1.00  0.00     0.130 C 
HETATM   14  C   UNL     1      43.884 -21.051   1.632  1.00  0.00     0.032 C 
HETATM   15  C   UNL     1      44.284 -22.238   2.488  1.00  0.00     0.002 C 
HETATM   16  C   UNL     1      44.970 -21.619   3.701  1.00  0.00     0.002 C 
HETATM   17  C   UNL     1      44.512 -20.161   3.755  1.00  0.00     0.032 C 
ENDBRANCH  12  13
ENDBRANCH   9  12
ENDBRANCH   5   6
ENDBRANCH   2   5
BRANCH   1  18
HETATM   18  C   UNL     1      45.006 -13.487   7.384  1.00  0.00     0.157 A 
HETATM   19  C   UNL     1      44.956 -12.684   8.562  1.00  0.00     0.029 A 
HETATM   20  C   UNL     1      44.042 -12.482   9.616  1.00  0.00     0.023 A 
HETATM   21  C   UNL     1      46.148 -11.971   8.564  1.00  0.00     0.063 A 
HETATM   22  C   UNL     1      44.356 -11.571  10.639  1.00  0.00    -0.061 A 
HETATM   23  C   UNL     1      43.396 -11.336  11.770  1.00  0.00     0.048 C 
HETATM   24  C   UNL     1      45.568 -10.871  10.600  1.00  0.00     0.009 A 
HETATM   25  C   UNL     1      46.490 -11.055   9.563  1.00  0.00     0.032 A 
HETATM   26  N   UNL     1      46.811 -12.373   7.438  1.00  0.00    -0.277 N 
HETATM   27  H   UNL     1      47.720 -12.059   7.117  1.00  0.00     0.189 HD
HETATM   28  N   UNL     1      46.153 -13.284   6.699  1.00  0.00    -0.168 NA
ENDBRANCH   1  18
TORSDOF 5
ENDMDL
MODEL 6
REMARK VINA RESULT:      -8.3      4.843      7.874
REMARK  5 active torsions:
REMARK  status: ('A' for Active; 'I' for Inactive)
REMARK    1  A    between atoms: C_9  and  C_10 
REMARK       I    between atoms: C_10  and  N_11 
REMARK    2  A    between atoms: N_11  and  C_12 
REMARK    3  A    between atoms: C_12  and  C_13 
REMARK    4  A    between atoms: C_16  and  O_17 
REMARK    5  A    between atoms: O_17  and  C_18 
ROOT
HETATM    1  C   UNL     1      43.455 -15.374   6.644  1.00  0.00     0.273 C 
HETATM    2  N   UNL     1      42.174 -15.068   6.243  1.00  0.00    -0.351 N 
HETATM    3  O   UNL     1      44.390 -14.584   6.561  1.00  0.00    -0.266 OA
HETATM    4  H   UNL     1      41.507 -15.835   6.280  1.00  0.00     0.163 HD
ENDROOT
BRANCH   2   5
HETATM    5  C   UNL     1      41.870 -13.837   5.567  1.00  0.00     0.163 C 
BRANCH   5   6
HETATM    6  C   UNL     1      41.881 -14.009   4.080  1.00  0.00    -0.023 A 
HETATM    7  C   UNL     1      42.453 -13.050   3.250  1.00  0.00     0.128 A 
HETATM    8  N   UNL     1      42.517 -13.149   1.903  1.00  0.00    -0.236 NA
HETATM    9  C   UNL     1      41.988 -14.260   1.351  1.00  0.00     0.164 A 
HETATM   10  C   UNL     1      41.401 -15.276   2.087  1.00  0.00     0.059 A 
HETATM   11  C   UNL     1      41.356 -15.152   3.472  1.00  0.00     0.014 A 
BRANCH   9  12
HETATM   12  O   UNL     1      42.000 -14.428  -0.018  1.00  0.00    -0.329 OA
BRANCH  12  13
HETATM   13  C   UNL     1      40.739 -14.768  -0.584  1.00  0.00     0.130 C 
HETATM   14  C   UNL     1      39.931 -13.488  -0.784  1.00  0.00     0.032 C 
HETATM   15  C   UNL     1      38.870 -13.904  -1.786  1.00  0.00     0.002 C 
HETATM   16  C   UNL     1      39.597 -14.841  -2.744  1.00  0.00     0.002 C 
HETATM   17  C   UNL     1      40.852 -15.317  -2.009  1.00  0.00     0.032 C 
ENDBRANCH  12  13
ENDBRANCH   9  12
ENDBRANCH   5   6
ENDBRANCH   2   5
BRANCH   1  18
HETATM   18  C   UNL     1      43.588 -16.747   7.159  1.00  0.00     0.157 A 
HETATM   19  C   UNL     1      43.820 -17.936   6.406  1.00  0.00     0.029 A 
HETATM   20  C   UNL     1      44.004 -18.257   5.046  1.00  0.00     0.023 A 
HETATM   21  C   UNL     1      43.849 -18.958   7.346  1.00  0.00     0.063 A 
HETATM   22  C   UNL     1      44.214 -19.596   4.674  1.00  0.00    -0.061 A 
HETATM   23  C   UNL     1      44.409 -19.963   3.231  1.00  0.00     0.048 C 
HETATM   24  C   UNL     1      44.233 -20.596   5.654  1.00  0.00     0.009 A 
HETATM   25  C   UNL     1      44.051 -20.300   7.010  1.00  0.00     0.032 A 
HETATM   26  N   UNL     1      43.644 -18.347   8.551  1.00  0.00    -0.277 N 
HETATM   27  H   UNL     1      43.604 -18.788   9.463  1.00  0.00     0.189 HD
HETATM   28  N   UNL     1      43.479 -17.014   8.479  1.00  0.00    -0.168 NA
ENDBRANCH   1  18
TORSDOF 5
ENDMDL
MODEL 7
REMARK VINA RESULT:      -8.3      1.887      9.691
REMARK  5 active torsions:
REMARK  status: ('A' for Active; 'I' for Inactive)
REMARK    1  A    between atoms: C_9  and  C_10 
REMARK       I    between atoms: C_10  and  N_11 
REMARK    2  A    between atoms: N_11  and  C_12 
REMARK    3  A    between atoms: C_12  and  C_13 
REMARK    4  A    between atoms: C_16  and  O_17 
REMARK    5  A    between atoms: O_17  and  C_18 
ROOT
HETATM    1  C   UNL     1      42.540 -16.016   6.294  1.00  0.00     0.273 C 
HETATM    2  N   UNL     1      43.545 -15.116   6.017  1.00  0.00    -0.351 N 
HETATM    3  O   UNL     1      41.350 -15.717   6.270  1.00  0.00    -0.266 OA
HETATM    4  H   UNL     1      44.493 -15.461   6.155  1.00  0.00     0.163 HD
ENDROOT
BRANCH   2   5
HETATM    5  C   UNL     1      43.273 -13.720   5.814  1.00  0.00     0.163 C 
BRANCH   5   6
HETATM    6  C   UNL     1      43.606 -12.913   7.030  1.00  0.00    -0.023 A 
HETATM    7  C   UNL     1      42.817 -11.832   7.413  1.00  0.00     0.128 A 
HETATM    8  N   UNL     1      43.045 -11.073   8.509  1.00  0.00    -0.236 NA
HETATM    9  C   UNL     1      44.110 -11.407   9.266  1.00  0.00     0.164 A 
HETATM   10  C   UNL     1      44.955 -12.466   8.977  1.00  0.00     0.059 A 
HETATM   11  C   UNL     1      44.691 -13.236   7.848  1.00  0.00     0.014 A 
BRANCH   9  12
HETATM   12  O   UNL     1      44.420 -10.671  10.391  1.00  0.00    -0.329 OA
BRANCH  12  13
HETATM   13  C   UNL     1      43.327 -10.455  11.277  1.00  0.00     0.130 C 
HETATM   14  C   UNL     1      43.281 -11.602  12.286  1.00  0.00     0.032 C 
HETATM   15  C   UNL     1      42.429 -11.037  13.408  1.00  0.00     0.002 C 
HETATM   16  C   UNL     1      42.849  -9.574  13.507  1.00  0.00     0.002 C 
HETATM   17  C   UNL     1      43.517  -9.230  12.174  1.00  0.00     0.032 C 
ENDBRANCH  12  13
ENDBRANCH   9  12
ENDBRANCH   5   6
ENDBRANCH   2   5
BRANCH   1  18
HETATM   18  C   UNL     1      43.040 -17.356   6.637  1.00  0.00     0.157 A 
HETATM   19  C   UNL     1      43.498 -18.366   5.739  1.00  0.00     0.029 A 
HETATM   20  C   UNL     1      43.653 -18.490   4.343  1.00  0.00     0.023 A 
HETATM   21  C   UNL     1      43.845 -19.440   6.549  1.00  0.00     0.063 A 
HETATM   22  C   UNL     1      44.154 -19.688   3.806  1.00  0.00    -0.061 A 
HETATM   23  C   UNL     1      44.324 -19.844   2.323  1.00  0.00     0.048 C 
HETATM   24  C   UNL     1      44.489 -20.747   4.660  1.00  0.00     0.009 A 
HETATM   25  C   UNL     1      44.342 -20.646   6.048  1.00  0.00     0.032 A 
HETATM   26  N   UNL     1      43.588 -19.026   7.826  1.00  0.00    -0.277 N 
HETATM   27  H   UNL     1      43.724 -19.555   8.680  1.00  0.00     0.189 HD
HETATM   28  N   UNL     1      43.098 -17.777   7.920  1.00  0.00    -0.168 NA
ENDBRANCH   1  18
TORSDOF 5
ENDMDL
MODEL 8
REMARK VINA RESULT:      -8.3      5.426      8.586
REMARK  5 active torsions:
REMARK  status: ('A' for Active; 'I' for Inactive)
REMARK    1  A    between atoms: C_9  and  C_10 
REMARK       I    between atoms: C_10  and  N_11 
REMARK    2  A    between atoms: N_11  and  C_12 
REMARK    3  A    between atoms: C_12  and  C_13 
REMARK    4  A    between atoms: C_16  and  O_17 
REMARK    5  A    between atoms: O_17  and  C_18 
ROOT
HETATM    1  C   UNL     1      42.888 -15.604   5.753  1.00  0.00     0.273 C 
HETATM    2  N   UNL     1      41.543 -15.878   5.649  1.00  0.00    -0.351 N 
HETATM    3  O   UNL     1      43.344 -14.465   5.724  1.00  0.00    -0.266 OA
HETATM    4  H   UNL     1      41.298 -16.864   5.599  1.00  0.00     0.163 HD
ENDROOT
BRANCH   2   5
HETATM    5  C   UNL     1      40.584 -14.848   5.360  1.00  0.00     0.163 C 
BRANCH   5   6
HETATM    6  C   UNL     1      40.302 -14.756   3.892  1.00  0.00    -0.023 A 
HETATM    7  C   UNL     1      39.834 -13.576   3.324  1.00  0.00     0.128 A 
HETATM    8  N   UNL     1      39.579 -13.415   2.005  1.00  0.00    -0.236 NA
HETATM    9  C   UNL     1      39.803 -14.481   1.210  1.00  0.00     0.164 A 
HETATM   10  C   UNL     1      40.273 -15.698   1.674  1.00  0.00     0.059 A 
HETATM   11  C   UNL     1      40.535 -15.833   3.034  1.00  0.00     0.014 A 
BRANCH   9  12
HETATM   12  O   UNL     1      39.551 -14.402  -0.144  1.00  0.00    -0.329 OA
BRANCH  12  13
HETATM   13  C   UNL     1      40.696 -14.582  -0.971  1.00  0.00     0.130 C 
HETATM   14  C   UNL     1      40.237 -14.694  -2.424  1.00  0.00     0.032 C 
HETATM   15  C   UNL     1      41.505 -14.406  -3.207  1.00  0.00     0.002 C 
HETATM   16  C   UNL     1      42.202 -13.307  -2.414  1.00  0.00     0.002 C 
HETATM   17  C   UNL     1      41.609 -13.354  -1.004  1.00  0.00     0.032 C 
ENDBRANCH  12  13
ENDBRANCH   9  12
ENDBRANCH   5   6
ENDBRANCH   2   5
BRANCH   1  18
HETATM   18  C   UNL     1      43.717 -16.813   5.881  1.00  0.00     0.157 A 
HETATM   19  C   UNL     1      43.850 -17.876   4.940  1.00  0.00     0.029 A 
HETATM   20  C   UNL     1      43.328 -18.175   3.665  1.00  0.00     0.023 A 
HETATM   21  C   UNL     1      44.727 -18.776   5.531  1.00  0.00     0.063 A 
HETATM   22  C   UNL     1      43.705 -19.367   3.024  1.00  0.00    -0.061 A 
HETATM   23  C   UNL     1      43.159 -19.709   1.667  1.00  0.00     0.048 C 
HETATM   24  C   UNL     1      44.590 -20.248   3.658  1.00  0.00     0.009 A 
HETATM   25  C   UNL     1      45.120 -19.972   4.924  1.00  0.00     0.032 A 
HETATM   26  N   UNL     1      45.054 -18.222   6.737  1.00  0.00    -0.277 N 
HETATM   27  H   UNL     1      45.677 -18.605   7.439  1.00  0.00     0.189 HD
HETATM   28  N   UNL     1      44.462 -17.040   6.986  1.00  0.00    -0.168 NA
ENDBRANCH   1  18
TORSDOF 5
ENDMDL
MODEL 9
REMARK VINA RESULT:      -7.9      7.599     10.851
REMARK  5 active torsions:
REMARK  status: ('A' for Active; 'I' for Inactive)
REMARK    1  A    between atoms: C_9  and  C_10 
REMARK       I    between atoms: C_10  and  N_11 
REMARK    2  A    between atoms: N_11  and  C_12 
REMARK    3  A    between atoms: C_12  and  C_13 
REMARK    4  A    between atoms: C_16  and  O_17 
REMARK    5  A    between atoms: O_17  and  C_18 
ROOT
HETATM    1  C   UNL     1      41.360 -17.011   2.015  1.00  0.00     0.273 C 
HETATM    2  N   UNL     1      42.048 -16.577   0.905  1.00  0.00    -0.351 N 
HETATM    3  O   UNL     1      40.138 -16.946   2.113  1.00  0.00    -0.266 OA
HETATM    4  H   UNL     1      43.063 -16.603   0.978  1.00  0.00     0.163 HD
ENDROOT
BRANCH   2   5
HETATM    5  C   UNL     1      41.389 -15.888  -0.170  1.00  0.00     0.163 C 
BRANCH   5   6
HETATM    6  C   UNL     1      41.576 -14.406  -0.068  1.00  0.00    -0.023 A 
HETATM    7  C   UNL     1      42.088 -13.825   1.087  1.00  0.00     0.128 A 
HETATM    8  N   UNL     1      42.304 -12.499   1.242  1.00  0.00    -0.236 NA
HETATM    9  C   UNL     1      41.996 -11.709   0.193  1.00  0.00     0.164 A 
HETATM   10  C   UNL     1      41.486 -12.186  -1.003  1.00  0.00     0.059 A 
HETATM   11  C   UNL     1      41.283 -13.557  -1.137  1.00  0.00     0.014 A 
BRANCH   9  12
HETATM   12  O   UNL     1      42.171 -10.343   0.278  1.00  0.00    -0.329 OA
BRANCH  12  13
HETATM   13  C   UNL     1      42.532  -9.715  -0.947  1.00  0.00     0.130 C 
HETATM   14  C   UNL     1      41.711  -8.435  -1.101  1.00  0.00     0.032 C 
HETATM   15  C   UNL     1      42.491  -7.650  -2.139  1.00  0.00     0.002 C 
HETATM   16  C   UNL     1      43.953  -7.919  -1.802  1.00  0.00     0.002 C 
HETATM   17  C   UNL     1      43.970  -9.190  -0.951  1.00  0.00     0.032 C 
ENDBRANCH  12  13
ENDBRANCH   9  12
ENDBRANCH   5   6
ENDBRANCH   2   5
BRANCH   1  18
HETATM   18  C   UNL     1      42.239 -17.537   3.072  1.00  0.00     0.157 A 
HETATM   19  C   UNL     1      43.009 -18.737   3.040  1.00  0.00     0.029 A 
HETATM   20  C   UNL     1      43.234 -19.776   2.113  1.00  0.00     0.023 A 
HETATM   21  C   UNL     1      43.647 -18.791   4.272  1.00  0.00     0.063 A 
HETATM   22  C   UNL     1      44.094 -20.833   2.454  1.00  0.00    -0.061 A 
HETATM   23  C   UNL     1      44.345 -21.952   1.485  1.00  0.00     0.048 C 
HETATM   24  C   UNL     1      44.714 -20.849   3.710  1.00  0.00     0.009 A 
HETATM   25  C   UNL     1      44.505 -19.829   4.645  1.00  0.00     0.032 A 
HETATM   26  N   UNL     1      43.239 -17.668   4.938  1.00  0.00    -0.277 N 
HETATM   27  H   UNL     1      43.507 -17.379   5.872  1.00  0.00     0.189 HD
HETATM   28  N   UNL     1      42.387 -16.889   4.249  1.00  0.00    -0.168 NA
ENDBRANCH   1  18
TORSDOF 5
ENDMDL
MODEL 10
REMARK VINA RESULT:      -7.8      2.545      9.761
REMARK  5 active torsions:
REMARK  status: ('A' for Active; 'I' for Inactive)
REMARK    1  A    between atoms: C_9  and  C_10 
REMARK       I    between atoms: C_10  and  N_11 
REMARK    2  A    between atoms: N_11  and  C_12 
REMARK    3  A    between atoms: C_12  and  C_13 
REMARK    4  A    between atoms: C_16  and  O_17 
REMARK    5  A    between atoms: O_17  and  C_18 
ROOT
HETATM    1  C   UNL     1      44.529 -14.236   7.097  1.00  0.00     0.273 C 
HETATM    2  N   UNL     1      44.460 -13.690   8.359  1.00  0.00    -0.351 N 
HETATM    3  O   UNL     1      45.039 -13.656   6.143  1.00  0.00    -0.266 OA
HETATM    4  H   UNL     1      43.937 -14.230   9.044  1.00  0.00     0.163 HD
ENDROOT
BRANCH   2   5
HETATM    5  C   UNL     1      44.864 -12.335   8.617  1.00  0.00     0.163 C 
BRANCH   5   6
HETATM    6  C   UNL     1      44.038 -11.713   9.700  1.00  0.00    -0.023 A 
HETATM    7  C   UNL     1      43.120 -10.707   9.415  1.00  0.00     0.128 A 
HETATM    8  N   UNL     1      42.327 -10.116  10.337  1.00  0.00    -0.236 NA
HETATM    9  C   UNL     1      42.450 -10.548  11.609  1.00  0.00     0.164 A 
HETATM   10  C   UNL     1      43.329 -11.546  11.997  1.00  0.00     0.059 A 
HETATM   11  C   UNL     1      44.126 -12.143  11.026  1.00  0.00     0.014 A 
BRANCH   9  12
HETATM   12  O   UNL     1      41.688  -9.984  12.611  1.00  0.00    -0.329 OA
BRANCH  12  13
HETATM   13  C   UNL     1      40.555  -9.254  12.154  1.00  0.00     0.130 C 
HETATM   14  C   UNL     1      39.337 -10.175  12.180  1.00  0.00     0.032 C 
HETATM   15  C   UNL     1      38.171  -9.203  12.143  1.00  0.00     0.002 C 
HETATM   16  C   UNL     1      38.619  -8.038  13.018  1.00  0.00     0.002 C 
HETATM   17  C   UNL     1      40.143  -8.130  13.108  1.00  0.00     0.032 C 
ENDBRANCH  12  13
ENDBRANCH   9  12
ENDBRANCH   5   6
ENDBRANCH   2   5
BRANCH   1  18
HETATM   18  C   UNL     1      43.912 -15.569   7.009  1.00  0.00     0.157 A 
HETATM   19  C   UNL     1      43.463 -16.240   5.833  1.00  0.00     0.029 A 
HETATM   20  C   UNL     1      43.432 -15.959   4.452  1.00  0.00     0.023 A 
HETATM   21  C   UNL     1      42.951 -17.451   6.281  1.00  0.00     0.063 A 
HETATM   22  C   UNL     1      42.889 -16.904   3.565  1.00  0.00    -0.061 A 
HETATM   23  C   UNL     1      42.842 -16.624   2.090  1.00  0.00     0.048 C 
HETATM   24  C   UNL     1      42.380 -18.111   4.060  1.00  0.00     0.009 A 
HETATM   25  C   UNL     1      42.400 -18.411   5.427  1.00  0.00     0.032 A 
HETATM   26  N   UNL     1      43.118 -17.434   7.638  1.00  0.00    -0.277 N 
HETATM   27  H   UNL     1      42.856 -18.159   8.296  1.00  0.00     0.189 HD
HETATM   28  N   UNL     1      43.690 -16.315   8.115  1.00  0.00    -0.168 NA
ENDBRANCH   1  18
TORSDOF 5
ENDMDL
