MODEL 1
REMARK VINA RESULT:      -9.2      0.000      0.000
REMARK  9 active torsions:
REMARK  status: ('A' for Active; 'I' for Inactive)
REMARK    1  A    between atoms: C_3  and  C_4 
REMARK    2  A    between atoms: C_4  and  C_5 
REMARK       I    between atoms: C_5  and  N_6 
REMARK    3  A    between atoms: N_6  and  C_7 
REMARK    4  A    between atoms: C_7  and  C_8 
REMARK    5  A    between atoms: C_18  and  N_19 
REMARK       I    between atoms: N_19  and  C_20 
REMARK    6  A    between atoms: C_20  and  C_21 
REMARK    7  A    between atoms: C_29  and  C_30 
REMARK    8  A    between atoms: C_30  and  O_31 
REMARK    9  A    between atoms: C_33  and  O_34 
ROOT
HETATM    1  C   UNL     1      41.027 -17.045   5.611  1.00  0.00     0.016 C 
HETATM    2  C   UNL     1      41.944 -15.933   4.988  1.00  0.00    -0.030 C 
HETATM    3  C   UNL     1      41.942 -16.244   3.401  1.00  0.00     0.056 C 
HETATM    4  C   UNL     1      40.891 -15.431   2.685  1.00  0.00     0.056 A 
HETATM    5  C   UNL     1      40.016 -14.572   3.312  1.00  0.00     0.012 A 
HETATM    6  S   UNL     1      38.952 -13.881   2.190  1.00  0.00    -0.055 SA
HETATM    7  C   UNL     1      39.715 -14.751   0.937  1.00  0.00     0.173 A 
HETATM    8  N   UNL     1      40.705 -15.533   1.316  1.00  0.00    -0.227 NA
HETATM    9  C   UNL     1      39.954 -14.268   4.760  1.00  0.00     0.055 C 
HETATM   10  C   UNL     1      41.323 -14.528   5.431  1.00  0.00     0.012 C 
HETATM   11  C   UNL     1      42.300 -13.278   5.419  1.00  0.00     0.008 C 
HETATM   12  C   UNL     1      41.654 -12.109   6.221  1.00  0.00     0.020 C 
HETATM   13  C   UNL     1      43.632 -13.655   6.129  1.00  0.00     0.128 C 
HETATM   14  C   UNL     1      44.262 -14.925   5.564  1.00  0.00     0.033 C 
HETATM   15  C   UNL     1      43.320 -16.122   5.679  1.00  0.00     0.013 C 
ENDROOT
BRANCH   3  16
HETATM   16  C   UNL     1      43.307 -16.197   2.688  1.00  0.00     0.114 C 
BRANCH  16  17
HETATM   17  C   UNL     1      43.709 -17.387   1.828  1.00  0.00     0.218 C 
HETATM   18  N   UNL     1      43.051 -18.570   2.087  1.00  0.00    -0.357 N 
HETATM   19  H   UNL     1      42.443 -18.607   2.892  1.00  0.00     0.162 HD
HETATM   20  O   UNL     1      44.679 -17.314   1.076  1.00  0.00    -0.274 OA
BRANCH  18  21
HETATM   21  C   UNL     1      43.601 -19.838   1.652  1.00  0.00     0.162 C 
BRANCH  21  22
HETATM   22  C   UNL     1      44.121 -20.738   2.735  1.00  0.00    -0.023 A 
HETATM   23  C   UNL     1      44.298 -22.106   2.553  1.00  0.00     0.125 A 
HETATM   24  N   UNL     1      44.730 -22.955   3.518  1.00  0.00    -0.273 NA
HETATM   25  C   UNL     1      44.999 -22.410   4.724  1.00  0.00     0.116 A 
HETATM   26  C   UNL     1      44.849 -21.065   5.015  1.00  0.00     0.020 A 
HETATM   27  C   UNL     1      44.398 -20.222   4.005  1.00  0.00     0.012 A 
ENDBRANCH  21  22
ENDBRANCH  18  21
ENDBRANCH  16  17
ENDBRANCH   3  16
BRANCH  11  28
HETATM   28  C   UNL     1      42.582 -12.727   4.000  1.00  0.00     0.176 C 
BRANCH  28  29
HETATM   29  O   UNL     1      41.856 -11.522   3.770  1.00  0.00    -0.400 OA
HETATM   30  H   UNL     1      42.306 -11.056   3.042  1.00  0.00     0.209 HD
ENDBRANCH  28  29
ENDBRANCH  11  28
BRANCH   7  31
HETATM   31  N   UNL     1      39.343 -14.626  -0.380  1.00  0.00    -0.305 N 
HETATM   32  C   UNL     1      40.143 -14.197  -1.422  1.00  0.00     0.227 C 
HETATM   33  O   UNL     1      41.302 -13.785  -1.312  1.00  0.00    -0.273 OA
HETATM   34  H   UNL     1      38.382 -14.893  -0.556  1.00  0.00     0.171 HD
BRANCH  32  35
HETATM   35  C   UNL     1      39.451 -14.271  -2.813  1.00  0.00     0.078 C 
HETATM   36  C   UNL     1      39.535 -15.628  -3.567  1.00  0.00     0.014 C 
HETATM   37  C   UNL     1      38.078 -15.414  -4.012  1.00  0.00     0.002 C 
HETATM   38  C   UNL     1      37.909 -14.478  -2.803  1.00  0.00     0.014 C 
ENDBRANCH  32  35
ENDBRANCH   7  31
BRANCH  13  39
HETATM   39  O   UNL     1      43.411 -13.887   7.525  1.00  0.00    -0.395 OA
HETATM   40  H   UNL     1      43.556 -13.039   7.981  1.00  0.00     0.210 HD
ENDBRANCH  13  39
TORSDOF 9
ENDMDL
MODEL 2
REMARK VINA RESULT:      -8.8      3.375      7.703
REMARK  9 active torsions:
REMARK  status: ('A' for Active; 'I' for Inactive)
REMARK    1  A    between atoms: C_3  and  C_4 
REMARK    2  A    between atoms: C_4  and  C_5 
REMARK       I    between atoms: C_5  and  N_6 
REMARK    3  A    between atoms: N_6  and  C_7 
REMARK    4  A    between atoms: C_7  and  C_8 
REMARK    5  A    between atoms: C_18  and  N_19 
REMARK       I    between atoms: N_19  and  C_20 
REMARK    6  A    between atoms: C_20  and  C_21 
REMARK    7  A    between atoms: C_29  and  C_30 
REMARK    8  A    between atoms: C_30  and  O_31 
REMARK    9  A    between atoms: C_33  and  O_34 
ROOT
HETATM    1  C   UNL     1      39.451 -13.539   6.128  1.00  0.00     0.016 C 
HETATM    2  C   UNL     1      40.580 -13.134   5.115  1.00  0.00    -0.030 C 
HETATM    3  C   UNL     1      41.745 -14.232   5.339  1.00  0.00     0.056 C 
HETATM    4  C   UNL     1      41.616 -15.374   4.360  1.00  0.00     0.056 A 
HETATM    5  C   UNL     1      40.608 -15.486   3.429  1.00  0.00     0.012 A 
HETATM    6  S   UNL     1      40.769 -16.924   2.547  1.00  0.00    -0.055 SA
HETATM    7  C   UNL     1      42.167 -17.312   3.442  1.00  0.00     0.173 A 
HETATM    8  N   UNL     1      42.507 -16.435   4.365  1.00  0.00    -0.227 NA
HETATM    9  C   UNL     1      39.504 -14.528   3.195  1.00  0.00     0.055 C 
HETATM   10  C   UNL     1      39.904 -13.110   3.665  1.00  0.00     0.012 C 
HETATM   11  C   UNL     1      40.624 -12.236   2.554  1.00  0.00     0.008 C 
HETATM   12  C   UNL     1      39.652 -12.022   1.355  1.00  0.00     0.020 C 
HETATM   13  C   UNL     1      40.964 -10.834   3.138  1.00  0.00     0.128 C 
HETATM   14  C   UNL     1      41.743 -10.915   4.447  1.00  0.00     0.033 C 
HETATM   15  C   UNL     1      40.973 -11.688   5.517  1.00  0.00     0.013 C 
ENDROOT
BRANCH   3  16
HETATM   16  C   UNL     1      43.187 -13.698   5.433  1.00  0.00     0.114 C 
BRANCH  16  17
HETATM   17  C   UNL     1      43.875 -13.722   6.790  1.00  0.00     0.218 C 
HETATM   18  N   UNL     1      43.534 -12.707   7.659  1.00  0.00    -0.357 N 
HETATM   19  H   UNL     1      42.954 -11.959   7.308  1.00  0.00     0.162 HD
HETATM   20  O   UNL     1      44.796 -14.505   7.009  1.00  0.00    -0.274 OA
BRANCH  18  21
HETATM   21  C   UNL     1      44.384 -12.372   8.783  1.00  0.00     0.162 C 
BRANCH  21  22
HETATM   22  C   UNL     1      43.826 -11.378   9.760  1.00  0.00    -0.023 A 
HETATM   23  C   UNL     1      42.720 -10.585   9.474  1.00  0.00     0.125 A 
HETATM   24  N   UNL     1      42.211  -9.652  10.316  1.00  0.00    -0.273 NA
HETATM   25  C   UNL     1      42.840  -9.504  11.502  1.00  0.00     0.116 A 
HETATM   26  C   UNL     1      43.953 -10.235  11.884  1.00  0.00     0.020 A 
HETATM   27  C   UNL     1      44.453 -11.179  10.995  1.00  0.00     0.012 A 
ENDBRANCH  21  22
ENDBRANCH  18  21
ENDBRANCH  16  17
ENDBRANCH   3  16
BRANCH  11  28
HETATM   28  C   UNL     1      41.894 -12.901   1.971  1.00  0.00     0.176 C 
BRANCH  28  29
HETATM   29  O   UNL     1      42.619 -11.983   1.157  1.00  0.00    -0.400 OA
HETATM   30  H   UNL     1      43.515 -11.917   1.536  1.00  0.00     0.209 HD
ENDBRANCH  28  29
ENDBRANCH  11  28
BRANCH   7  31
HETATM   31  N   UNL     1      42.906 -18.446   3.201  1.00  0.00    -0.305 N 
HETATM   32  C   UNL     1      43.931 -18.578   2.285  1.00  0.00     0.227 C 
HETATM   33  O   UNL     1      44.291 -17.710   1.484  1.00  0.00    -0.273 OA
HETATM   34  H   UNL     1      42.640 -19.232   3.781  1.00  0.00     0.171 HD
BRANCH  32  35
HETATM   35  C   UNL     1      44.638 -19.963   2.332  1.00  0.00     0.078 C 
HETATM   36  C   UNL     1      44.692 -20.675   3.714  1.00  0.00     0.014 C 
HETATM   37  C   UNL     1      44.421 -22.002   2.983  1.00  0.00     0.002 C 
HETATM   38  C   UNL     1      43.799 -21.179   1.842  1.00  0.00     0.014 C 
ENDBRANCH  32  35
ENDBRANCH   7  31
BRANCH  13  39
HETATM   39  O   UNL     1      39.766 -10.098   3.411  1.00  0.00    -0.395 OA
HETATM   40  H   UNL     1      40.038  -9.214   3.717  1.00  0.00     0.210 HD
ENDBRANCH  13  39
TORSDOF 9
ENDMDL
MODEL 3
REMARK VINA RESULT:      -8.2      2.933      3.664
REMARK  9 active torsions:
REMARK  status: ('A' for Active; 'I' for Inactive)
REMARK    1  A    between atoms: C_3  and  C_4 
REMARK    2  A    between atoms: C_4  and  C_5 
REMARK       I    between atoms: C_5  and  N_6 
REMARK    3  A    between atoms: N_6  and  C_7 
REMARK    4  A    between atoms: C_7  and  C_8 
REMARK    5  A    between atoms: C_18  and  N_19 
REMARK       I    between atoms: N_19  and  C_20 
REMARK    6  A    between atoms: C_20  and  C_21 
REMARK    7  A    between atoms: C_29  and  C_30 
REMARK    8  A    between atoms: C_30  and  O_31 
REMARK    9  A    between atoms: C_33  and  O_34 
ROOT
HETATM    1  C   UNL     1      39.437 -16.264   2.138  1.00  0.00     0.016 C 
HETATM    2  C   UNL     1      40.579 -15.722   3.069  1.00  0.00    -0.030 C 
HETATM    3  C   UNL     1      41.713 -15.181   2.052  1.00  0.00     0.056 C 
HETATM    4  C   UNL     1      41.557 -13.701   1.794  1.00  0.00     0.056 A 
HETATM    5  C   UNL     1      40.549 -12.925   2.322  1.00  0.00     0.012 A 
HETATM    6  S   UNL     1      40.674 -11.329   1.768  1.00  0.00    -0.055 SA
HETATM    7  C   UNL     1      42.059 -11.754   0.867  1.00  0.00     0.173 A 
HETATM    8  N   UNL     1      42.420 -13.019   0.951  1.00  0.00    -0.227 NA
HETATM    9  C   UNL     1      39.472 -13.369   3.236  1.00  0.00     0.055 C 
HETATM   10  C   UNL     1      39.909 -14.627   4.023  1.00  0.00     0.012 C 
HETATM   11  C   UNL     1      40.655 -14.312   5.387  1.00  0.00     0.008 C 
HETATM   12  C   UNL     1      39.694 -13.536   6.335  1.00  0.00     0.020 C 
HETATM   13  C   UNL     1      41.032 -15.648   6.091  1.00  0.00     0.128 C 
HETATM   14  C   UNL     1      41.804 -16.597   5.179  1.00  0.00     0.033 C 
HETATM   15  C   UNL     1      41.009 -16.944   3.921  1.00  0.00     0.013 C 
ENDROOT
BRANCH   3  16
HETATM   16  C   UNL     1      43.169 -15.571   2.371  1.00  0.00     0.114 C 
BRANCH  16  17
HETATM   17  C   UNL     1      43.739 -16.819   1.713  1.00  0.00     0.218 C 
HETATM   18  N   UNL     1      42.969 -17.959   1.809  1.00  0.00    -0.357 N 
HETATM   19  H   UNL     1      42.150 -17.928   2.398  1.00  0.00     0.162 HD
HETATM   20  O   UNL     1      44.889 -16.827   1.281  1.00  0.00    -0.274 OA
BRANCH  18  21
HETATM   21  C   UNL     1      43.551 -19.269   1.603  1.00  0.00     0.162 C 
BRANCH  21  22
HETATM   22  C   UNL     1      44.021 -19.984   2.837  1.00  0.00    -0.023 A 
HETATM   23  C   UNL     1      44.375 -21.330   2.836  1.00  0.00     0.125 A 
HETATM   24  N   UNL     1      44.768 -22.017   3.936  1.00  0.00    -0.273 NA
HETATM   25  C   UNL     1      44.810 -21.325   5.095  1.00  0.00     0.116 A 
HETATM   26  C   UNL     1      44.471 -19.987   5.210  1.00  0.00     0.020 A 
HETATM   27  C   UNL     1      44.066 -19.313   4.063  1.00  0.00     0.012 A 
ENDBRANCH  21  22
ENDBRANCH  18  21
ENDBRANCH  16  17
ENDBRANCH   3  16
BRANCH  11  28
HETATM   28  C   UNL     1      41.909 -13.421   5.215  1.00  0.00     0.176 C 
BRANCH  28  29
HETATM   29  O   UNL     1      42.321 -12.878   6.466  1.00  0.00    -0.400 OA
HETATM   30  H   UNL     1      42.082 -11.933   6.456  1.00  0.00     0.209 HD
ENDBRANCH  28  29
ENDBRANCH  11  28
BRANCH   7  31
HETATM   31  N   UNL     1      42.767 -10.838   0.128  1.00  0.00    -0.305 N 
HETATM   32  C   UNL     1      42.919 -10.832  -1.245  1.00  0.00     0.227 C 
HETATM   33  O   UNL     1      42.498 -11.700  -2.016  1.00  0.00    -0.273 OA
HETATM   34  H   UNL     1      43.197 -10.112   0.688  1.00  0.00     0.171 HD
BRANCH  32  35
HETATM   35  C   UNL     1      43.693  -9.595  -1.784  1.00  0.00     0.078 C 
HETATM   36  C   UNL     1      42.862  -8.522  -2.543  1.00  0.00     0.014 C 
HETATM   37  C   UNL     1      43.707  -7.444  -1.843  1.00  0.00     0.002 C 
HETATM   38  C   UNL     1      44.013  -8.480  -0.746  1.00  0.00     0.014 C 
ENDBRANCH  32  35
ENDBRANCH   7  31
BRANCH  13  39
HETATM   39  O   UNL     1      39.853 -16.345   6.513  1.00  0.00    -0.395 OA
HETATM   40  H   UNL     1      39.328 -15.720   7.045  1.00  0.00     0.210 HD
ENDBRANCH  13  39
TORSDOF 9
ENDMDL
MODEL 4
REMARK VINA RESULT:      -8.0      2.389      7.449
REMARK  9 active torsions:
REMARK  status: ('A' for Active; 'I' for Inactive)
REMARK    1  A    between atoms: C_3  and  C_4 
REMARK    2  A    between atoms: C_4  and  C_5 
REMARK       I    between atoms: C_5  and  N_6 
REMARK    3  A    between atoms: N_6  and  C_7 
REMARK    4  A    between atoms: C_7  and  C_8 
REMARK    5  A    between atoms: C_18  and  N_19 
REMARK       I    between atoms: N_19  and  C_20 
REMARK    6  A    between atoms: C_20  and  C_21 
REMARK    7  A    between atoms: C_29  and  C_30 
REMARK    8  A    between atoms: C_30  and  O_31 
REMARK    9  A    between atoms: C_33  and  O_34 
ROOT
HETATM    1  C   UNL     1      41.911 -11.566   1.557  1.00  0.00     0.016 C 
HETATM    2  C   UNL     1      40.774 -12.219   2.420  1.00  0.00    -0.030 C 
HETATM    3  C   UNL     1      40.681 -13.743   1.889  1.00  0.00     0.056 C 
HETATM    4  C   UNL     1      41.518 -14.671   2.736  1.00  0.00     0.056 A 
HETATM    5  C   UNL     1      42.297 -14.261   3.795  1.00  0.00     0.012 A 
HETATM    6  S   UNL     1      43.129 -15.575   4.466  1.00  0.00    -0.055 SA
HETATM    7  C   UNL     1      42.405 -16.613   3.322  1.00  0.00     0.173 A 
HETATM    8  N   UNL     1      41.592 -16.028   2.466  1.00  0.00    -0.227 NA
HETATM    9  C   UNL     1      42.441 -12.880   4.309  1.00  0.00     0.055 C 
HETATM   10  C   UNL     1      41.199 -12.032   3.951  1.00  0.00     0.012 C 
HETATM   11  C   UNL     1      40.037 -12.094   5.029  1.00  0.00     0.008 C 
HETATM   12  C   UNL     1      40.558 -11.525   6.383  1.00  0.00     0.020 C 
HETATM   13  C   UNL     1      38.853 -11.196   4.566  1.00  0.00     0.128 C 
HETATM   14  C   UNL     1      38.387 -11.520   3.150  1.00  0.00     0.033 C 
HETATM   15  C   UNL     1      39.515 -11.360   2.133  1.00  0.00     0.013 C 
ENDROOT
BRANCH   3  16
HETATM   16  C   UNL     1      39.266 -14.299   1.632  1.00  0.00     0.114 C 
BRANCH  16  17
HETATM   17  C   UNL     1      38.707 -14.213   0.219  1.00  0.00     0.218 C 
HETATM   18  N   UNL     1      39.525 -14.685  -0.786  1.00  0.00    -0.357 N 
HETATM   19  H   UNL     1      40.471 -14.942  -0.543  1.00  0.00     0.162 HD
HETATM   20  O   UNL     1      37.664 -13.603  -0.003  1.00  0.00    -0.274 OA
BRANCH  18  21
HETATM   21  C   UNL     1      39.308 -14.299  -2.165  1.00  0.00     0.162 C 
BRANCH  21  22
HETATM   22  C   UNL     1      40.304 -13.337  -2.745  1.00  0.00    -0.023 A 
HETATM   23  C   UNL     1      39.956 -12.373  -3.686  1.00  0.00     0.125 A 
HETATM   24  N   UNL     1      40.833 -11.513  -4.260  1.00  0.00    -0.273 NA
HETATM   25  C   UNL     1      42.123 -11.621  -3.873  1.00  0.00     0.116 A 
HETATM   26  C   UNL     1      42.579 -12.549  -2.952  1.00  0.00     0.020 A 
HETATM   27  C   UNL     1      41.654 -13.421  -2.387  1.00  0.00     0.012 A 
ENDBRANCH  21  22
ENDBRANCH  18  21
ENDBRANCH  16  17
ENDBRANCH   3  16
BRANCH  11  28
HETATM   28  C   UNL     1      39.542 -13.530   5.323  1.00  0.00     0.176 C 
BRANCH  28  29
HETATM   29  O   UNL     1      39.987 -13.968   6.604  1.00  0.00    -0.400 OA
HETATM   30  H   UNL     1      40.763 -14.538   6.454  1.00  0.00     0.209 HD
ENDBRANCH  28  29
ENDBRANCH  11  28
BRANCH   7  31
HETATM   31  N   UNL     1      42.631 -17.969   3.310  1.00  0.00    -0.305 N 
HETATM   32  C   UNL     1      43.571 -18.637   2.551  1.00  0.00     0.227 C 
HETATM   33  O   UNL     1      44.308 -18.120   1.705  1.00  0.00    -0.273 OA
HETATM   34  H   UNL     1      42.029 -18.484   3.940  1.00  0.00     0.171 HD
BRANCH  32  35
HETATM   35  C   UNL     1      43.645 -20.163   2.848  1.00  0.00     0.078 C 
HETATM   36  C   UNL     1      43.349 -21.123   1.662  1.00  0.00     0.014 C 
HETATM   37  C   UNL     1      44.484 -22.025   2.175  1.00  0.00     0.002 C 
HETATM   38  C   UNL     1      45.069 -20.788   2.878  1.00  0.00     0.014 C 
ENDBRANCH  32  35
ENDBRANCH   7  31
BRANCH  13  39
HETATM   39  O   UNL     1      39.236  -9.815   4.573  1.00  0.00    -0.395 OA
HETATM   40  H   UNL     1      38.506  -9.320   4.985  1.00  0.00     0.210 HD
ENDBRANCH  13  39
TORSDOF 9
ENDMDL
MODEL 5
REMARK VINA RESULT:      -8.0      2.677      6.319
REMARK  9 active torsions:
REMARK  status: ('A' for Active; 'I' for Inactive)
REMARK    1  A    between atoms: C_3  and  C_4 
REMARK    2  A    between atoms: C_4  and  C_5 
REMARK       I    between atoms: C_5  and  N_6 
REMARK    3  A    between atoms: N_6  and  C_7 
REMARK    4  A    between atoms: C_7  and  C_8 
REMARK    5  A    between atoms: C_18  and  N_19 
REMARK       I    between atoms: N_19  and  C_20 
REMARK    6  A    between atoms: C_20  and  C_21 
REMARK    7  A    between atoms: C_29  and  C_30 
REMARK    8  A    between atoms: C_30  and  O_31 
REMARK    9  A    between atoms: C_33  and  O_34 
ROOT
HETATM    1  C   UNL     1      38.486 -12.883   2.075  1.00  0.00     0.016 C 
HETATM    2  C   UNL     1      39.923 -12.438   1.626  1.00  0.00    -0.030 C 
HETATM    3  C   UNL     1      40.921 -13.464   2.376  1.00  0.00     0.056 C 
HETATM    4  C   UNL     1      41.273 -14.634   1.488  1.00  0.00     0.056 A 
HETATM    5  C   UNL     1      40.769 -14.823   0.221  1.00  0.00     0.012 A 
HETATM    6  S   UNL     1      41.352 -16.269  -0.442  1.00  0.00    -0.055 SA
HETATM    7  C   UNL     1      42.244 -16.559   0.983  1.00  0.00     0.173 A 
HETATM    8  N   UNL     1      42.118 -15.643   1.922  1.00  0.00    -0.227 NA
HETATM    9  C   UNL     1      39.835 -13.933  -0.506  1.00  0.00     0.055 C 
HETATM   10  C   UNL     1      39.936 -12.485   0.027  1.00  0.00     0.012 C 
HETATM   11  C   UNL     1      41.028 -11.598  -0.706  1.00  0.00     0.008 C 
HETATM   12  C   UNL     1      40.659 -11.466  -2.214  1.00  0.00     0.020 C 
HETATM   13  C   UNL     1      41.027 -10.166  -0.095  1.00  0.00     0.128 C 
HETATM   14  C   UNL     1      41.169 -10.174   1.424  1.00  0.00     0.033 C 
HETATM   15  C   UNL     1      40.045 -10.964   2.093  1.00  0.00     0.013 C 
ENDROOT
BRANCH   3  16
HETATM   16  C   UNL     1      42.160 -12.849   3.055  1.00  0.00     0.114 C 
BRANCH  16  17
HETATM   17  C   UNL     1      42.375 -13.119   4.537  1.00  0.00     0.218 C 
HETATM   18  N   UNL     1      42.734 -14.408   4.872  1.00  0.00    -0.357 N 
HETATM   19  H   UNL     1      42.716 -15.108   4.144  1.00  0.00     0.162 HD
HETATM   20  O   UNL     1      42.076 -12.273   5.376  1.00  0.00    -0.274 OA
BRANCH  18  21
HETATM   21  C   UNL     1      42.570 -14.899   6.224  1.00  0.00     0.162 C 
BRANCH  21  22
HETATM   22  C   UNL     1      43.233 -16.210   6.536  1.00  0.00    -0.023 A 
HETATM   23  C   UNL     1      43.170 -16.802   7.793  1.00  0.00     0.125 A 
HETATM   24  N   UNL     1      43.786 -17.965   8.122  1.00  0.00    -0.273 NA
HETATM   25  C   UNL     1      44.500 -18.565   7.145  1.00  0.00     0.116 A 
HETATM   26  C   UNL     1      44.635 -18.058   5.863  1.00  0.00     0.020 A 
HETATM   27  C   UNL     1      43.996 -16.861   5.561  1.00  0.00     0.012 A 
ENDBRANCH  21  22
ENDBRANCH  18  21
ENDBRANCH  16  17
ENDBRANCH   3  16
BRANCH  11  28
HETATM   28  C   UNL     1      42.451 -12.204  -0.658  1.00  0.00     0.176 C 
BRANCH  28  29
HETATM   29  O   UNL     1      43.432 -11.221  -0.976  1.00  0.00    -0.400 OA
HETATM   30  H   UNL     1      43.086 -10.365  -0.664  1.00  0.00     0.209 HD
ENDBRANCH  28  29
ENDBRANCH  11  28
BRANCH   7  31
HETATM   31  N   UNL     1      43.060 -17.655   1.132  1.00  0.00    -0.305 N 
HETATM   32  C   UNL     1      42.998 -18.591   2.146  1.00  0.00     0.227 C 
HETATM   33  O   UNL     1      42.242 -18.543   3.120  1.00  0.00    -0.273 OA
HETATM   34  H   UNL     1      43.753 -17.745   0.400  1.00  0.00     0.171 HD
BRANCH  32  35
HETATM   35  C   UNL     1      43.996 -19.771   1.968  1.00  0.00     0.078 C 
HETATM   36  C   UNL     1      44.610 -20.372   3.264  1.00  0.00     0.014 C 
HETATM   37  C   UNL     1      44.464 -21.765   2.627  1.00  0.00     0.002 C 
HETATM   38  C   UNL     1      43.365 -21.173   1.727  1.00  0.00     0.014 C 
ENDBRANCH  32  35
ENDBRANCH   7  31
BRANCH  13  39
HETATM   39  O   UNL     1      39.799  -9.492  -0.395  1.00  0.00    -0.395 OA
HETATM   40  H   UNL     1      39.598  -8.915   0.364  1.00  0.00     0.210 HD
ENDBRANCH  13  39
TORSDOF 9
ENDMDL
MODEL 6
REMARK VINA RESULT:      -7.9      3.244      7.208
REMARK  9 active torsions:
REMARK  status: ('A' for Active; 'I' for Inactive)
REMARK    1  A    between atoms: C_3  and  C_4 
REMARK    2  A    between atoms: C_4  and  C_5 
REMARK       I    between atoms: C_5  and  N_6 
REMARK    3  A    between atoms: N_6  and  C_7 
REMARK    4  A    between atoms: C_7  and  C_8 
REMARK    5  A    between atoms: C_18  and  N_19 
REMARK       I    between atoms: N_19  and  C_20 
REMARK    6  A    between atoms: C_20  and  C_21 
REMARK    7  A    between atoms: C_29  and  C_30 
REMARK    8  A    between atoms: C_30  and  O_31 
REMARK    9  A    between atoms: C_33  and  O_34 
ROOT
HETATM    1  C   UNL     1      43.371 -14.527   2.814  1.00  0.00     0.016 C 
HETATM    2  C   UNL     1      41.810 -14.515   2.980  1.00  0.00    -0.030 C 
HETATM    3  C   UNL     1      41.569 -14.349   4.570  1.00  0.00     0.056 C 
HETATM    4  C   UNL     1      41.374 -12.899   4.946  1.00  0.00     0.056 A 
HETATM    5  C   UNL     1      41.440 -11.852   4.054  1.00  0.00     0.012 A 
HETATM    6  S   UNL     1      41.221 -10.375   4.853  1.00  0.00    -0.055 SA
HETATM    7  C   UNL     1      41.043 -11.205   6.331  1.00  0.00     0.173 A 
HETATM    8  N   UNL     1      41.151 -12.516   6.259  1.00  0.00    -0.227 NA
HETATM    9  C   UNL     1      41.682 -11.942   2.596  1.00  0.00     0.055 C 
HETATM   10  C   UNL     1      41.262 -13.329   2.057  1.00  0.00     0.012 C 
HETATM   11  C   UNL     1      39.745 -13.418   1.603  1.00  0.00     0.008 C 
HETATM   12  C   UNL     1      39.496 -12.420   0.433  1.00  0.00     0.020 C 
HETATM   13  C   UNL     1      39.446 -14.849   1.071  1.00  0.00     0.128 C 
HETATM   14  C   UNL     1      39.851 -15.940   2.058  1.00  0.00     0.033 C 
HETATM   15  C   UNL     1      41.339 -15.872   2.397  1.00  0.00     0.013 C 
ENDROOT
BRANCH   3  16
HETATM   16  C   UNL     1      40.509 -15.268   5.207  1.00  0.00     0.114 C 
BRANCH  16  17
HETATM   17  C   UNL     1      40.988 -16.416   6.084  1.00  0.00     0.218 C 
HETATM   18  N   UNL     1      42.346 -16.656   6.078  1.00  0.00    -0.357 N 
HETATM   19  H   UNL     1      42.913 -16.147   5.416  1.00  0.00     0.162 HD
HETATM   20  O   UNL     1      40.181 -17.172   6.618  1.00  0.00    -0.274 OA
BRANCH  18  21
HETATM   21  C   UNL     1      42.879 -17.929   6.518  1.00  0.00     0.162 C 
BRANCH  21  22
HETATM   22  C   UNL     1      43.507 -18.785   5.457  1.00  0.00    -0.023 A 
HETATM   23  C   UNL     1      44.276 -19.906   5.754  1.00  0.00     0.125 A 
HETATM   24  N   UNL     1      44.888 -20.680   4.824  1.00  0.00    -0.273 NA
HETATM   25  C   UNL     1      44.723 -20.317   3.534  1.00  0.00     0.116 A 
HETATM   26  C   UNL     1      43.986 -19.217   3.128  1.00  0.00     0.020 A 
HETATM   27  C   UNL     1      43.376 -18.440   4.107  1.00  0.00     0.012 A 
ENDBRANCH  21  22
ENDBRANCH  18  21
ENDBRANCH  16  17
ENDBRANCH   3  16
BRANCH  11  28
HETATM   28  C   UNL     1      38.742 -13.036   2.719  1.00  0.00     0.176 C 
BRANCH  28  29
HETATM   29  O   UNL     1      38.155 -11.764   2.461  1.00  0.00    -0.400 OA
HETATM   30  H   UNL     1      37.690 -11.498   3.275  1.00  0.00     0.209 HD
ENDBRANCH  28  29
ENDBRANCH  11  28
BRANCH   7  31
HETATM   31  N   UNL     1      40.778 -10.556   7.514  1.00  0.00    -0.305 N 
HETATM   32  C   UNL     1      41.702 -10.183   8.471  1.00  0.00     0.227 C 
HETATM   33  O   UNL     1      42.908 -10.446   8.442  1.00  0.00    -0.273 OA
HETATM   34  H   UNL     1      39.797 -10.347   7.649  1.00  0.00     0.171 HD
BRANCH  32  35
HETATM   35  C   UNL     1      41.091  -9.368   9.647  1.00  0.00     0.078 C 
HETATM   36  C   UNL     1      40.104 -10.122  10.583  1.00  0.00     0.014 C 
HETATM   37  C   UNL     1      40.741  -9.377  11.769  1.00  0.00     0.002 C 
HETATM   38  C   UNL     1      41.995  -9.185  10.899  1.00  0.00     0.014 C 
ENDBRANCH  32  35
ENDBRANCH   7  31
BRANCH  13  39
HETATM   39  O   UNL     1      40.168 -15.097  -0.142  1.00  0.00    -0.395 OA
HETATM   40  H   UNL     1      40.493 -16.013  -0.098  1.00  0.00     0.210 HD
ENDBRANCH  13  39
TORSDOF 9
ENDMDL
MODEL 7
REMARK VINA RESULT:      -7.9      2.452      7.376
REMARK  9 active torsions:
REMARK  status: ('A' for Active; 'I' for Inactive)
REMARK    1  A    between atoms: C_3  and  C_4 
REMARK    2  A    between atoms: C_4  and  C_5 
REMARK       I    between atoms: C_5  and  N_6 
REMARK    3  A    between atoms: N_6  and  C_7 
REMARK    4  A    between atoms: C_7  and  C_8 
REMARK    5  A    between atoms: C_18  and  N_19 
REMARK       I    between atoms: N_19  and  C_20 
REMARK    6  A    between atoms: C_20  and  C_21 
REMARK    7  A    between atoms: C_29  and  C_30 
REMARK    8  A    between atoms: C_30  and  O_31 
REMARK    9  A    between atoms: C_33  and  O_34 
ROOT
HETATM    1  C   UNL     1      37.968 -12.932   0.344  1.00  0.00     0.016 C 
HETATM    2  C   UNL     1      39.406 -12.411  -0.012  1.00  0.00    -0.030 C 
HETATM    3  C   UNL     1      40.329 -12.878   1.231  1.00  0.00     0.056 C 
HETATM    4  C   UNL     1      41.004 -14.199   0.945  1.00  0.00     0.056 A 
HETATM    5  C   UNL     1      40.818 -14.931  -0.206  1.00  0.00     0.012 A 
HETATM    6  S   UNL     1      41.699 -16.376  -0.142  1.00  0.00    -0.055 SA
HETATM    7  C   UNL     1      42.283 -15.947   1.402  1.00  0.00     0.173 A 
HETATM    8  N   UNL     1      41.846 -14.796   1.870  1.00  0.00    -0.227 NA
HETATM    9  C   UNL     1      39.968 -14.566  -1.363  1.00  0.00     0.055 C 
HETATM   10  C   UNL     1      39.777 -13.034  -1.437  1.00  0.00     0.012 C 
HETATM   11  C   UNL     1      40.890 -12.281  -2.280  1.00  0.00     0.008 C 
HETATM   12  C   UNL     1      40.849 -12.781  -3.755  1.00  0.00     0.020 C 
HETATM   13  C   UNL     1      40.585 -10.755  -2.294  1.00  0.00     0.128 C 
HETATM   14  C   UNL     1      40.389 -10.181  -0.894  1.00  0.00     0.033 C 
HETATM   15  C   UNL     1      39.247 -10.875  -0.153  1.00  0.00     0.013 C 
ENDROOT
BRANCH   3  16
HETATM   16  C   UNL     1      41.306 -11.830   1.797  1.00  0.00     0.114 C 
BRANCH  16  17
HETATM   17  C   UNL     1      41.402 -11.681   3.308  1.00  0.00     0.218 C 
HETATM   18  N   UNL     1      42.325 -12.489   3.939  1.00  0.00    -0.357 N 
HETATM   19  H   UNL     1      42.785 -13.199   3.389  1.00  0.00     0.162 HD
HETATM   20  O   UNL     1      40.582 -11.002   3.922  1.00  0.00    -0.274 OA
BRANCH  18  21
HETATM   21  C   UNL     1      42.237 -12.749   5.361  1.00  0.00     0.162 C 
BRANCH  21  22
HETATM   22  C   UNL     1      42.047 -14.184   5.760  1.00  0.00    -0.023 A 
HETATM   23  C   UNL     1      40.804 -14.808   5.743  1.00  0.00     0.125 A 
HETATM   24  N   UNL     1      40.587 -16.089   6.131  1.00  0.00    -0.273 NA
HETATM   25  C   UNL     1      41.667 -16.781   6.556  1.00  0.00     0.116 A 
HETATM   26  C   UNL     1      42.946 -16.254   6.621  1.00  0.00     0.020 A 
HETATM   27  C   UNL     1      43.133 -14.935   6.222  1.00  0.00     0.012 A 
ENDBRANCH  21  22
ENDBRANCH  18  21
ENDBRANCH  16  17
ENDBRANCH   3  16
BRANCH  11  28
HETATM   28  C   UNL     1      42.329 -12.538  -1.773  1.00  0.00     0.176 C 
BRANCH  28  29
HETATM   29  O   UNL     1      43.058 -13.338  -2.700  1.00  0.00    -0.400 OA
HETATM   30  H   UNL     1      43.488 -12.725  -3.325  1.00  0.00     0.209 HD
ENDBRANCH  28  29
ENDBRANCH  11  28
BRANCH   7  31
HETATM   31  N   UNL     1      43.170 -16.732   2.099  1.00  0.00    -0.305 N 
HETATM   32  C   UNL     1      42.851 -17.706   3.026  1.00  0.00     0.227 C 
HETATM   33  O   UNL     1      41.713 -17.968   3.426  1.00  0.00    -0.273 OA
HETATM   34  H   UNL     1      44.139 -16.547   1.872  1.00  0.00     0.171 HD
BRANCH  32  35
HETATM   35  C   UNL     1      44.085 -18.490   3.558  1.00  0.00     0.078 C 
HETATM   36  C   UNL     1      43.885 -19.308   4.865  1.00  0.00     0.014 C 
HETATM   37  C   UNL     1      44.755 -20.415   4.245  1.00  0.00     0.002 C 
HETATM   38  C   UNL     1      44.386 -19.850   2.863  1.00  0.00     0.014 C 
ENDBRANCH  32  35
ENDBRANCH   7  31
BRANCH  13  39
HETATM   39  O   UNL     1      39.382 -10.488  -3.025  1.00  0.00    -0.395 OA
HETATM   40  H   UNL     1      38.966 -11.348  -3.213  1.00  0.00     0.210 HD
ENDBRANCH  13  39
TORSDOF 9
ENDMDL
MODEL 8
REMARK VINA RESULT:      -7.6      2.297      7.822
REMARK  9 active torsions:
REMARK  status: ('A' for Active; 'I' for Inactive)
REMARK    1  A    between atoms: C_3  and  C_4 
REMARK    2  A    between atoms: C_4  and  C_5 
REMARK       I    between atoms: C_5  and  N_6 
REMARK    3  A    between atoms: N_6  and  C_7 
REMARK    4  A    between atoms: C_7  and  C_8 
REMARK    5  A    between atoms: C_18  and  N_19 
REMARK       I    between atoms: N_19  and  C_20 
REMARK    6  A    between atoms: C_20  and  C_21 
REMARK    7  A    between atoms: C_29  and  C_30 
REMARK    8  A    between atoms: C_30  and  O_31 
REMARK    9  A    between atoms: C_33  and  O_34 
ROOT
HETATM    1  C   UNL     1      41.842 -11.662   1.470  1.00  0.00     0.016 C 
HETATM    2  C   UNL     1      40.763 -12.266   2.438  1.00  0.00    -0.030 C 
HETATM    3  C   UNL     1      40.553 -13.782   1.920  1.00  0.00     0.056 C 
HETATM    4  C   UNL     1      41.424 -14.749   2.686  1.00  0.00     0.056 A 
HETATM    5  C   UNL     1      42.317 -14.377   3.666  1.00  0.00     0.012 A 
HETATM    6  S   UNL     1      43.148 -15.728   4.259  1.00  0.00    -0.055 SA
HETATM    7  C   UNL     1      42.275 -16.730   3.190  1.00  0.00     0.173 A 
HETATM    8  N   UNL     1      41.411 -16.107   2.413  1.00  0.00    -0.227 NA
HETATM    9  C   UNL     1      42.570 -13.005   4.163  1.00  0.00     0.055 C 
HETATM   10  C   UNL     1      41.338 -12.102   3.921  1.00  0.00     0.012 C 
HETATM   11  C   UNL     1      40.281 -12.114   5.104  1.00  0.00     0.008 C 
HETATM   12  C   UNL     1      40.951 -11.572   6.402  1.00  0.00     0.020 C 
HETATM   13  C   UNL     1      39.100 -11.164   4.753  1.00  0.00     0.128 C 
HETATM   14  C   UNL     1      38.489 -11.463   3.387  1.00  0.00     0.033 C 
HETATM   15  C   UNL     1      39.523 -11.350   2.268  1.00  0.00     0.013 C 
ENDROOT
BRANCH   3  16
HETATM   16  C   UNL     1      39.097 -14.274   1.798  1.00  0.00     0.114 C 
BRANCH  16  17
HETATM   17  C   UNL     1      38.266 -13.774   0.625  1.00  0.00     0.218 C 
HETATM   18  N   UNL     1      38.967 -13.439  -0.514  1.00  0.00    -0.357 N 
HETATM   19  H   UNL     1      39.975 -13.432  -0.464  1.00  0.00     0.162 HD
HETATM   20  O   UNL     1      37.070 -13.531   0.767  1.00  0.00    -0.274 OA
BRANCH  18  21
HETATM   21  C   UNL     1      38.379 -12.586  -1.526  1.00  0.00     0.162 C 
BRANCH  21  22
HETATM   22  C   UNL     1      37.667 -13.287  -2.648  1.00  0.00    -0.023 A 
HETATM   23  C   UNL     1      37.885 -14.626  -2.954  1.00  0.00     0.125 A 
HETATM   24  N   UNL     1      37.290 -15.281  -3.981  1.00  0.00    -0.273 NA
HETATM   25  C   UNL     1      36.434 -14.562  -4.739  1.00  0.00     0.116 A 
HETATM   26  C   UNL     1      36.152 -13.223  -4.528  1.00  0.00     0.020 A 
HETATM   27  C   UNL     1      36.784 -12.579  -3.470  1.00  0.00     0.012 A 
ENDBRANCH  21  22
ENDBRANCH  18  21
ENDBRANCH  16  17
ENDBRANCH   3  16
BRANCH  11  28
HETATM   28  C   UNL     1      39.752 -13.528   5.446  1.00  0.00     0.176 C 
BRANCH  28  29
HETATM   29  O   UNL     1      39.716 -13.729   6.856  1.00  0.00    -0.400 OA
HETATM   30  H   UNL     1      38.797 -13.959   7.084  1.00  0.00     0.209 HD
ENDBRANCH  28  29
ENDBRANCH  11  28
BRANCH   7  31
HETATM   31  N   UNL     1      42.438 -18.094   3.159  1.00  0.00    -0.305 N 
HETATM   32  C   UNL     1      43.359 -18.794   2.404  1.00  0.00     0.227 C 
HETATM   33  O   UNL     1      44.133 -18.298   1.579  1.00  0.00    -0.273 OA
HETATM   34  H   UNL     1      41.802 -18.591   3.770  1.00  0.00     0.171 HD
BRANCH  32  35
HETATM   35  C   UNL     1      43.357 -20.325   2.677  1.00  0.00     0.078 C 
HETATM   36  C   UNL     1      43.751 -21.250   1.490  1.00  0.00     0.014 C 
HETATM   37  C   UNL     1      44.523 -22.124   2.493  1.00  0.00     0.002 C 
HETATM   38  C   UNL     1      44.605 -20.893   3.413  1.00  0.00     0.014 C 
ENDBRANCH  32  35
ENDBRANCH   7  31
BRANCH  13  39
HETATM   39  O   UNL     1      39.542  -9.801   4.721  1.00  0.00    -0.395 OA
HETATM   40  H   UNL     1      38.745  -9.243   4.720  1.00  0.00     0.210 HD
ENDBRANCH  13  39
TORSDOF 9
ENDMDL
MODEL 9
REMARK VINA RESULT:      -7.4      2.890      7.994
REMARK  9 active torsions:
REMARK  status: ('A' for Active; 'I' for Inactive)
REMARK    1  A    between atoms: C_3  and  C_4 
REMARK    2  A    between atoms: C_4  and  C_5 
REMARK       I    between atoms: C_5  and  N_6 
REMARK    3  A    between atoms: N_6  and  C_7 
REMARK    4  A    between atoms: C_7  and  C_8 
REMARK    5  A    between atoms: C_18  and  N_19 
REMARK       I    between atoms: N_19  and  C_20 
REMARK    6  A    between atoms: C_20  and  C_21 
REMARK    7  A    between atoms: C_29  and  C_30 
REMARK    8  A    between atoms: C_30  and  O_31 
REMARK    9  A    between atoms: C_33  and  O_34 
ROOT
HETATM    1  C   UNL     1      40.207 -17.512   1.670  1.00  0.00     0.016 C 
HETATM    2  C   UNL     1      41.628 -17.051   2.153  1.00  0.00    -0.030 C 
HETATM    3  C   UNL     1      41.456 -15.479   2.486  1.00  0.00     0.056 C 
HETATM    4  C   UNL     1      41.157 -15.258   3.950  1.00  0.00     0.056 A 
HETATM    5  C   UNL     1      41.004 -16.271   4.870  1.00  0.00     0.012 A 
HETATM    6  S   UNL     1      40.626 -15.637   6.395  1.00  0.00    -0.055 SA
HETATM    7  C   UNL     1      40.694 -14.059   5.753  1.00  0.00     0.173 A 
HETATM    8  N   UNL     1      40.970 -13.986   4.466  1.00  0.00    -0.227 NA
HETATM    9  C   UNL     1      41.124 -17.725   4.619  1.00  0.00     0.055 C 
HETATM   10  C   UNL     1      42.018 -17.993   3.385  1.00  0.00     0.012 C 
HETATM   11  C   UNL     1      43.562 -18.131   3.720  1.00  0.00     0.008 C 
HETATM   12  C   UNL     1      43.779 -19.348   4.668  1.00  0.00     0.020 C 
HETATM   13  C   UNL     1      44.353 -18.411   2.409  1.00  0.00     0.128 C 
HETATM   14  C   UNL     1      44.057 -17.391   1.314  1.00  0.00     0.033 C 
HETATM   15  C   UNL     1      42.570 -17.357   0.960  1.00  0.00     0.013 C 
ENDROOT
BRANCH   3  16
HETATM   16  C   UNL     1      42.560 -14.538   1.964  1.00  0.00     0.114 C 
BRANCH  16  17
HETATM   17  C   UNL     1      42.194 -13.533   0.882  1.00  0.00     0.218 C 
HETATM   18  N   UNL     1      41.670 -14.059  -0.280  1.00  0.00    -0.357 N 
HETATM   19  H   UNL     1      41.673 -15.063  -0.388  1.00  0.00     0.162 HD
HETATM   20  O   UNL     1      42.514 -12.352   0.994  1.00  0.00    -0.274 OA
BRANCH  18  21
HETATM   21  C   UNL     1      41.667 -13.292  -1.509  1.00  0.00     0.162 C 
BRANCH  21  22
HETATM   22  C   UNL     1      40.331 -13.111  -2.171  1.00  0.00    -0.023 A 
HETATM   23  C   UNL     1      40.092 -12.123  -3.121  1.00  0.00     0.125 A 
HETATM   24  N   UNL     1      38.891 -11.907  -3.711  1.00  0.00    -0.273 NA
HETATM   25  C   UNL     1      37.879 -12.718  -3.335  1.00  0.00     0.116 A 
HETATM   26  C   UNL     1      38.006 -13.726  -2.394  1.00  0.00     0.020 A 
HETATM   27  C   UNL     1      39.250 -13.918  -1.802  1.00  0.00     0.012 A 
ENDBRANCH  21  22
ENDBRANCH  18  21
ENDBRANCH  16  17
ENDBRANCH   3  16
BRANCH  11  28
HETATM   28  C   UNL     1      44.149 -16.900   4.452  1.00  0.00     0.176 C 
BRANCH  28  29
HETATM   29  O   UNL     1      44.327 -17.172   5.839  1.00  0.00    -0.400 OA
HETATM   30  H   UNL     1      44.592 -16.333   6.259  1.00  0.00     0.209 HD
ENDBRANCH  28  29
ENDBRANCH  11  28
BRANCH   7  31
HETATM   31  N   UNL     1      40.503 -12.939   6.526  1.00  0.00    -0.305 N 
HETATM   32  C   UNL     1      39.495 -12.005   6.382  1.00  0.00     0.227 C 
HETATM   33  O   UNL     1      38.650 -11.996   5.482  1.00  0.00    -0.273 OA
HETATM   34  H   UNL     1      41.188 -12.835   7.263  1.00  0.00     0.171 HD
BRANCH  32  35
HETATM   35  C   UNL     1      39.495 -10.910   7.488  1.00  0.00     0.078 C 
HETATM   36  C   UNL     1      39.284 -11.391   8.951  1.00  0.00     0.014 C 
HETATM   37  C   UNL     1      40.340 -10.361   9.389  1.00  0.00     0.002 C 
HETATM   38  C   UNL     1      40.892 -10.405   7.953  1.00  0.00     0.014 C 
ENDBRANCH  32  35
ENDBRANCH   7  31
BRANCH  13  39
HETATM   39  O   UNL     1      44.014 -19.699   1.881  1.00  0.00    -0.395 OA
HETATM   40  H   UNL     1      44.235 -20.355   2.566  1.00  0.00     0.210 HD
ENDBRANCH  13  39
TORSDOF 9
ENDMDL
MODEL 10
REMARK VINA RESULT:      -7.3      3.026      6.992
REMARK  9 active torsions:
REMARK  status: ('A' for Active; 'I' for Inactive)
REMARK    1  A    between atoms: C_3  and  C_4 
REMARK    2  A    between atoms: C_4  and  C_5 
REMARK       I    between atoms: C_5  and  N_6 
REMARK    3  A    between atoms: N_6  and  C_7 
REMARK    4  A    between atoms: C_7  and  C_8 
REMARK    5  A    between atoms: C_18  and  N_19 
REMARK       I    between atoms: N_19  and  C_20 
REMARK    6  A    between atoms: C_20  and  C_21 
REMARK    7  A    between atoms: C_29  and  C_30 
REMARK    8  A    between atoms: C_30  and  O_31 
REMARK    9  A    between atoms: C_33  and  O_34 
ROOT
HETATM    1  C   UNL     1      42.718 -11.822  -0.913  1.00  0.00     0.016 C 
HETATM    2  C   UNL     1      41.513 -12.661  -0.357  1.00  0.00    -0.030 C 
HETATM    3  C   UNL     1      41.830 -12.837   1.219  1.00  0.00     0.056 C 
HETATM    4  C   UNL     1      41.145 -11.769   2.038  1.00  0.00     0.056 A 
HETATM    5  C   UNL     1      40.388 -10.751   1.504  1.00  0.00     0.012 A 
HETATM    6  S   UNL     1      39.827  -9.722   2.728  1.00  0.00    -0.055 SA
HETATM    7  C   UNL     1      40.612 -10.687   3.894  1.00  0.00     0.173 A 
HETATM    8  N   UNL     1      41.274 -11.721   3.417  1.00  0.00    -0.227 NA
HETATM    9  C   UNL     1      40.085 -10.525   0.073  1.00  0.00     0.055 C 
HETATM   10  C   UNL     1      40.184 -11.848  -0.721  1.00  0.00     0.012 C 
HETATM   11  C   UNL     1      38.832 -12.676  -0.777  1.00  0.00     0.008 C 
HETATM   12  C   UNL     1      37.740 -11.833  -1.501  1.00  0.00     0.020 C 
HETATM   13  C   UNL     1      39.052 -13.973  -1.608  1.00  0.00     0.128 C 
HETATM   14  C   UNL     1      40.245 -14.789  -1.121  1.00  0.00     0.033 C 
HETATM   15  C   UNL     1      41.541 -13.981  -1.170  1.00  0.00     0.013 C 
ENDROOT
BRANCH   3  16
HETATM   16  C   UNL     1      41.633 -14.247   1.809  1.00  0.00     0.114 C 
BRANCH  16  17
HETATM   17  C   UNL     1      42.786 -14.870   2.580  1.00  0.00     0.218 C 
HETATM   18  N   UNL     1      42.613 -16.180   2.975  1.00  0.00    -0.357 N 
HETATM   19  H   UNL     1      41.705 -16.599   2.837  1.00  0.00     0.162 HD
HETATM   20  O   UNL     1      43.728 -14.179   2.962  1.00  0.00    -0.274 OA
BRANCH  18  21
HETATM   21  C   UNL     1      43.418 -16.750   4.036  1.00  0.00     0.162 C 
BRANCH  21  22
HETATM   22  C   UNL     1      43.863 -18.170   3.837  1.00  0.00    -0.023 A 
HETATM   23  C   UNL     1      44.556 -18.883   4.810  1.00  0.00     0.125 A 
HETATM   24  N   UNL     1      45.006 -20.152   4.652  1.00  0.00    -0.273 NA
HETATM   25  C   UNL     1      44.751 -20.738   3.463  1.00  0.00     0.116 A 
HETATM   26  C   UNL     1      44.077 -20.118   2.423  1.00  0.00     0.020 A 
HETATM   27  C   UNL     1      43.634 -18.813   2.616  1.00  0.00     0.012 A 
ENDBRANCH  21  22
ENDBRANCH  18  21
ENDBRANCH  16  17
ENDBRANCH   3  16
BRANCH  11  28
HETATM   28  C   UNL     1      38.260 -13.020   0.619  1.00  0.00     0.176 C 
BRANCH  28  29
HETATM   29  O   UNL     1      37.279 -14.050   0.526  1.00  0.00    -0.400 OA
HETATM   30  H   UNL     1      37.443 -14.520  -0.312  1.00  0.00     0.209 HD
ENDBRANCH  28  29
ENDBRANCH  11  28
BRANCH   7  31
HETATM   31  N   UNL     1      40.536 -10.423   5.241  1.00  0.00    -0.305 N 
HETATM   32  C   UNL     1      39.642 -10.978   6.137  1.00  0.00     0.227 C 
HETATM   33  O   UNL     1      38.719 -11.744   5.846  1.00  0.00    -0.273 OA
HETATM   34  H   UNL     1      41.228  -9.758   5.562  1.00  0.00     0.171 HD
BRANCH  32  35
HETATM   35  C   UNL     1      39.890 -10.550   7.612  1.00  0.00     0.078 C 
HETATM   36  C   UNL     1      39.076  -9.333   8.136  1.00  0.00     0.014 C 
HETATM   37  C   UNL     1      38.916 -10.079   9.471  1.00  0.00     0.002 C 
HETATM   38  C   UNL     1      39.161 -11.389   8.701  1.00  0.00     0.014 C 
ENDBRANCH  32  35
ENDBRANCH   7  31
BRANCH  13  39
HETATM   39  O   UNL     1      39.300 -13.653  -2.983  1.00  0.00    -0.395 OA
HETATM   40  H   UNL     1      38.486 -13.249  -3.333  1.00  0.00     0.210 HD
ENDBRANCH  13  39
TORSDOF 9
ENDMDL
