MODEL 1
REMARK VINA RESULT:      -8.7      0.000      0.000
REMARK  5 active torsions:
REMARK  status: ('A' for Active; 'I' for Inactive)
REMARK    1  A    between atoms: C_8  and  N_9 
REMARK    2  A    between atoms: C_12  and  N_13 
REMARK    3  A    between atoms: N_13  and  C_15 
REMARK    4  A    between atoms: C_15  and  C_16 
REMARK    5  A    between atoms: C_17  and  C_18 
ROOT
HETATM    1  N   UNL     1      43.771 -19.367   6.129  1.00  0.00    -0.067 N 
HETATM    2  H   UNL     1      42.939 -19.314   5.527  1.00  0.00     0.280 HD
HETATM    3  C   UNL     1      43.572 -20.574   7.023  1.00  0.00     0.270 C 
ENDROOT
BRANCH   1   4
HETATM    4  C   UNL     1      43.951 -18.030   6.875  1.00  0.00     0.190 C 
HETATM    5  C   UNL     1      44.457 -16.932   5.923  1.00  0.00     0.048 C 
HETATM    6  C   UNL     1      43.361 -16.360   5.023  1.00  0.00     0.099 C 
HETATM    7  N   UNL     1      42.237 -15.915   5.855  1.00  0.00    -0.268 NA
HETATM    8  C   UNL     1      41.628 -16.970   6.669  1.00  0.00     0.099 C 
HETATM    9  C   UNL     1      42.690 -17.540   7.606  1.00  0.00     0.048 C 
BRANCH   7  10
HETATM   10  C   UNL     1      41.331 -15.068   5.197  1.00  0.00     0.109 A 
HETATM   11  N   UNL     1      40.877 -13.968   5.823  1.00  0.00    -0.224 NA
HETATM   12  C   UNL     1      39.944 -13.209   5.195  1.00  0.00     0.102 A 
HETATM   13  N   UNL     1      39.450 -13.507   3.986  1.00  0.00    -0.348 N 
HETATM   14  C   UNL     1      39.411 -12.011   5.913  1.00  0.00     0.091 C 
HETATM   15  C   UNL     1      39.884 -14.596   3.332  1.00  0.00     0.009 A 
HETATM   16  H   UNL     1      38.736 -12.907   3.576  1.00  0.00     0.167 HD
HETATM   17  C   UNL     1      39.306 -14.919   1.991  1.00  0.00     0.068 C 
HETATM   18  C   UNL     1      40.844 -15.408   3.939  1.00  0.00     0.069 A 
ENDBRANCH   7  10
ENDBRANCH   1   4
BRANCH   1  19
HETATM   19  C   UNL     1      44.952 -19.634   5.179  1.00  0.00     0.277 C 
BRANCH  19  20
HETATM   20  C   UNL     1      44.666 -20.638   4.122  1.00  0.00     0.016 A 
HETATM   21  C   UNL     1      44.044 -20.440   2.851  1.00  0.00     0.096 A 
HETATM   22  N   UNL     1      43.867 -21.607   2.223  1.00  0.00    -0.174 NA
HETATM   23  N   UNL     1      44.470 -22.518   2.995  1.00  0.00    -0.288 N 
HETATM   24  H   UNL     1      44.508 -23.482   2.669  1.00  0.00     0.188 HD
HETATM   25  C   UNL     1      44.936 -21.993   4.164  1.00  0.00     0.120 A 
BRANCH  21  26
HETATM   26  C   UNL     1      43.562 -19.202   2.249  1.00  0.00    -0.005 A 
HETATM   27  C   UNL     1      42.194 -19.001   2.013  1.00  0.00     0.017 A 
HETATM   28  C   UNL     1      41.749 -17.809   1.435  1.00  0.00     0.043 A 
HETATM   29  C   UNL     1      42.668 -16.818   1.107  1.00  0.00     0.116 A 
HETATM   30  F   UNL     1      42.240 -15.683   0.541  1.00  0.00    -0.206 F 
HETATM   31  C   UNL     1      44.024 -16.989   1.358  1.00  0.00     0.043 A 
HETATM   32  C   UNL     1      44.471 -18.180   1.933  1.00  0.00     0.017 A 
ENDBRANCH  21  26
ENDBRANCH  19  20
ENDBRANCH   1  19
TORSDOF 5
ENDMDL
MODEL 2
REMARK VINA RESULT:      -8.2      2.321      3.999
REMARK  5 active torsions:
REMARK  status: ('A' for Active; 'I' for Inactive)
REMARK    1  A    between atoms: C_8  and  N_9 
REMARK    2  A    between atoms: C_12  and  N_13 
REMARK    3  A    between atoms: N_13  and  C_15 
REMARK    4  A    between atoms: C_15  and  C_16 
REMARK    5  A    between atoms: C_17  and  C_18 
ROOT
HETATM    1  N   UNL     1      42.112 -15.992   5.537  1.00  0.00    -0.067 N 
HETATM    2  H   UNL     1      41.864 -16.447   4.650  1.00  0.00     0.280 HD
HETATM    3  C   UNL     1      41.275 -16.664   6.607  1.00  0.00     0.270 C 
ENDROOT
BRANCH   1   4
HETATM    4  C   UNL     1      41.902 -14.470   5.410  1.00  0.00     0.190 C 
HETATM    5  C   UNL     1      42.926 -13.851   4.443  1.00  0.00     0.048 C 
HETATM    6  C   UNL     1      42.588 -14.090   2.971  1.00  0.00     0.099 C 
HETATM    7  N   UNL     1      41.217 -13.634   2.711  1.00  0.00    -0.268 NA
HETATM    8  C   UNL     1      40.191 -14.309   3.511  1.00  0.00     0.099 C 
HETATM    9  C   UNL     1      40.480 -14.062   4.989  1.00  0.00     0.048 C 
BRANCH   7  10
HETATM   10  C   UNL     1      40.908 -13.477   1.351  1.00  0.00     0.109 A 
HETATM   11  N   UNL     1      39.650 -13.696   0.928  1.00  0.00    -0.224 NA
HETATM   12  C   UNL     1      39.395 -13.611  -0.402  1.00  0.00     0.102 A 
HETATM   13  N   UNL     1      40.337 -13.327  -1.312  1.00  0.00    -0.348 N 
HETATM   14  C   UNL     1      38.006 -13.899  -0.873  1.00  0.00     0.091 C 
HETATM   15  C   UNL     1      41.601 -13.098  -0.923  1.00  0.00     0.009 A 
HETATM   16  H   UNL     1      40.086 -13.297  -2.299  1.00  0.00     0.167 HD
HETATM   17  C   UNL     1      42.638 -12.799  -1.957  1.00  0.00     0.068 C 
HETATM   18  C   UNL     1      41.911 -13.174   0.436  1.00  0.00     0.069 A 
ENDBRANCH   7  10
ENDBRANCH   1   4
BRANCH   1  19
HETATM   19  C   UNL     1      43.595 -16.328   5.775  1.00  0.00     0.277 C 
BRANCH  19  20
HETATM   20  C   UNL     1      43.971 -17.713   5.393  1.00  0.00     0.016 A 
HETATM   21  C   UNL     1      43.745 -18.389   4.155  1.00  0.00     0.096 A 
HETATM   22  N   UNL     1      44.137 -19.665   4.232  1.00  0.00    -0.174 NA
HETATM   23  N   UNL     1      44.720 -19.783   5.430  1.00  0.00    -0.288 N 
HETATM   24  H   UNL     1      45.150 -20.673   5.675  1.00  0.00     0.188 HD
HETATM   25  C   UNL     1      44.617 -18.649   6.181  1.00  0.00     0.120 A 
BRANCH  21  26
HETATM   26  C   UNL     1      43.118 -17.885   2.937  1.00  0.00    -0.005 A 
HETATM   27  C   UNL     1      43.894 -17.520   1.826  1.00  0.00     0.017 A 
HETATM   28  C   UNL     1      43.278 -17.040   0.668  1.00  0.00     0.043 A 
HETATM   29  C   UNL     1      41.892 -16.937   0.617  1.00  0.00     0.116 A 
HETATM   30  F   UNL     1      41.306 -16.464  -0.490  1.00  0.00    -0.206 F 
HETATM   31  C   UNL     1      41.107 -17.319   1.698  1.00  0.00     0.043 A 
HETATM   32  C   UNL     1      41.720 -17.797   2.858  1.00  0.00     0.017 A 
ENDBRANCH  21  26
ENDBRANCH  19  20
ENDBRANCH   1  19
TORSDOF 5
ENDMDL
MODEL 3
REMARK VINA RESULT:      -8.1      4.274      7.924
REMARK  5 active torsions:
REMARK  status: ('A' for Active; 'I' for Inactive)
REMARK    1  A    between atoms: C_8  and  N_9 
REMARK    2  A    between atoms: C_12  and  N_13 
REMARK    3  A    between atoms: N_13  and  C_15 
REMARK    4  A    between atoms: C_15  and  C_16 
REMARK    5  A    between atoms: C_17  and  C_18 
ROOT
HETATM    1  N   UNL     1      41.140 -14.043   0.996  1.00  0.00    -0.067 N 
HETATM    2  H   UNL     1      42.152 -14.166   0.866  1.00  0.00     0.280 HD
HETATM    3  C   UNL     1      40.960 -13.411   2.361  1.00  0.00     0.270 C 
ENDROOT
BRANCH   1   4
HETATM    4  C   UNL     1      40.432 -15.400   0.812  1.00  0.00     0.190 C 
HETATM    5  C   UNL     1      41.293 -16.362  -0.025  1.00  0.00     0.048 C 
HETATM    6  C   UNL     1      42.439 -16.991   0.766  1.00  0.00     0.099 C 
HETATM    7  N   UNL     1      41.900 -17.621   1.977  1.00  0.00    -0.268 NA
HETATM    8  C   UNL     1      41.197 -16.704   2.879  1.00  0.00     0.099 C 
HETATM    9  C   UNL     1      40.023 -16.082   2.127  1.00  0.00     0.048 C 
BRANCH   7  10
HETATM   10  C   UNL     1      42.779 -18.518   2.604  1.00  0.00     0.109 A 
HETATM   11  N   UNL     1      43.347 -18.181   3.775  1.00  0.00    -0.224 NA
HETATM   12  C   UNL     1      44.251 -19.032   4.321  1.00  0.00     0.102 A 
HETATM   13  N   UNL     1      44.610 -20.188   3.745  1.00  0.00    -0.348 N 
HETATM   14  C   UNL     1      44.913 -18.633   5.601  1.00  0.00     0.091 C 
HETATM   15  C   UNL     1      44.059 -20.557   2.579  1.00  0.00     0.009 A 
HETATM   16  H   UNL     1      45.310 -20.775   4.196  1.00  0.00     0.167 HD
HETATM   17  C   UNL     1      44.486 -21.843   1.946  1.00  0.00     0.068 C 
HETATM   18  C   UNL     1      43.123 -19.712   1.978  1.00  0.00     0.069 A 
ENDBRANCH   7  10
ENDBRANCH   1   4
BRANCH   1  19
HETATM   19  C   UNL     1      40.702 -13.039  -0.085  1.00  0.00     0.277 C 
BRANCH  19  20
HETATM   20  C   UNL     1      41.477 -13.132  -1.348  1.00  0.00     0.016 A 
HETATM   21  C   UNL     1      41.021 -13.516  -2.647  1.00  0.00     0.096 A 
HETATM   22  N   UNL     1      42.041 -13.578  -3.509  1.00  0.00    -0.174 NA
HETATM   23  N   UNL     1      43.102 -13.122  -2.834  1.00  0.00    -0.288 N 
HETATM   24  H   UNL     1      43.988 -13.027  -3.327  1.00  0.00     0.188 HD
HETATM   25  C   UNL     1      42.825 -12.872  -1.522  1.00  0.00     0.120 A 
BRANCH  21  26
HETATM   26  C   UNL     1      39.675 -13.882  -3.075  1.00  0.00    -0.005 A 
HETATM   27  C   UNL     1      38.646 -12.929  -3.109  1.00  0.00     0.017 A 
HETATM   28  C   UNL     1      37.363 -13.297  -3.520  1.00  0.00     0.043 A 
HETATM   29  C   UNL     1      37.113 -14.609  -3.908  1.00  0.00     0.116 A 
HETATM   30  F   UNL     1      35.880 -14.961  -4.290  1.00  0.00    -0.206 F 
HETATM   31  C   UNL     1      38.127 -15.560  -3.906  1.00  0.00     0.043 A 
HETATM   32  C   UNL     1      39.410 -15.196  -3.492  1.00  0.00     0.017 A 
ENDBRANCH  21  26
ENDBRANCH  19  20
ENDBRANCH   1  19
TORSDOF 5
ENDMDL
MODEL 4
REMARK VINA RESULT:      -8.1      3.014      4.969
REMARK  5 active torsions:
REMARK  status: ('A' for Active; 'I' for Inactive)
REMARK    1  A    between atoms: C_8  and  N_9 
REMARK    2  A    between atoms: C_12  and  N_13 
REMARK    3  A    between atoms: N_13  and  C_15 
REMARK    4  A    between atoms: C_15  and  C_16 
REMARK    5  A    between atoms: C_17  and  C_18 
ROOT
HETATM    1  N   UNL     1      41.954 -15.699   5.327  1.00  0.00    -0.067 N 
HETATM    2  H   UNL     1      41.904 -16.176   4.418  1.00  0.00     0.280 HD
HETATM    3  C   UNL     1      40.987 -16.423   6.241  1.00  0.00     0.270 C 
ENDROOT
BRANCH   1   4
HETATM    4  C   UNL     1      41.663 -14.197   5.134  1.00  0.00     0.190 C 
HETATM    5  C   UNL     1      42.886 -13.470   4.550  1.00  0.00     0.048 C 
HETATM    6  C   UNL     1      43.064 -13.698   3.048  1.00  0.00     0.099 C 
HETATM    7  N   UNL     1      41.816 -13.352   2.357  1.00  0.00    -0.268 NA
HETATM    8  C   UNL     1      40.650 -14.131   2.783  1.00  0.00     0.099 C 
HETATM    9  C   UNL     1      40.424 -13.899   4.275  1.00  0.00     0.048 C 
BRANCH   7  10
HETATM   10  C   UNL     1      41.950 -13.186   0.970  1.00  0.00     0.109 A 
HETATM   11  N   UNL     1      42.474 -12.046   0.486  1.00  0.00    -0.224 NA
HETATM   12  C   UNL     1      42.522 -11.879  -0.860  1.00  0.00     0.102 A 
HETATM   13  N   UNL     1      42.066 -12.793  -1.727  1.00  0.00    -0.348 N 
HETATM   14  C   UNL     1      43.065 -10.592  -1.392  1.00  0.00     0.091 C 
HETATM   15  C   UNL     1      41.541 -13.943  -1.278  1.00  0.00     0.009 A 
HETATM   16  H   UNL     1      42.112 -12.600  -2.726  1.00  0.00     0.167 HD
HETATM   17  C   UNL     1      41.023 -14.941  -2.264  1.00  0.00     0.068 C 
HETATM   18  C   UNL     1      41.470 -14.159   0.100  1.00  0.00     0.069 A 
ENDBRANCH   7  10
ENDBRANCH   1   4
BRANCH   1  19
HETATM   19  C   UNL     1      43.389 -15.924   5.834  1.00  0.00     0.277 C 
BRANCH  19  20
HETATM   20  C   UNL     1      43.539 -17.102   6.726  1.00  0.00     0.016 A 
HETATM   21  C   UNL     1      43.702 -18.476   6.368  1.00  0.00     0.096 A 
HETATM   22  N   UNL     1      43.697 -19.253   7.455  1.00  0.00    -0.174 NA
HETATM   23  N   UNL     1      43.667 -18.410   8.493  1.00  0.00    -0.288 N 
HETATM   24  H   UNL     1      43.718 -18.795   9.434  1.00  0.00     0.188 HD
HETATM   25  C   UNL     1      43.537 -17.107   8.109  1.00  0.00     0.120 A 
BRANCH  21  26
HETATM   26  C   UNL     1      43.797 -19.072   5.039  1.00  0.00    -0.005 A 
HETATM   27  C   UNL     1      44.669 -20.143   4.792  1.00  0.00     0.017 A 
HETATM   28  C   UNL     1      44.748 -20.702   3.514  1.00  0.00     0.043 A 
HETATM   29  C   UNL     1      43.951 -20.199   2.492  1.00  0.00     0.116 A 
HETATM   30  F   UNL     1      44.039 -20.728   1.266  1.00  0.00    -0.206 F 
HETATM   31  C   UNL     1      43.063 -19.156   2.725  1.00  0.00     0.043 A 
HETATM   32  C   UNL     1      42.983 -18.594   4.001  1.00  0.00     0.017 A 
ENDBRANCH  21  26
ENDBRANCH  19  20
ENDBRANCH   1  19
TORSDOF 5
ENDMDL
MODEL 5
REMARK VINA RESULT:      -8.1      2.180      7.678
REMARK  5 active torsions:
REMARK  status: ('A' for Active; 'I' for Inactive)
REMARK    1  A    between atoms: C_8  and  N_9 
REMARK    2  A    between atoms: C_12  and  N_13 
REMARK    3  A    between atoms: N_13  and  C_15 
REMARK    4  A    between atoms: C_15  and  C_16 
REMARK    5  A    between atoms: C_17  and  C_18 
ROOT
HETATM    1  N   UNL     1      40.330 -14.528   2.057  1.00  0.00    -0.067 N 
HETATM    2  H   UNL     1      40.473 -15.003   2.957  1.00  0.00     0.280 HD
HETATM    3  C   UNL     1      38.905 -14.829   1.639  1.00  0.00     0.270 C 
ENDROOT
BRANCH   1   4
HETATM    4  C   UNL     1      41.410 -14.988   1.057  1.00  0.00     0.190 C 
HETATM    5  C   UNL     1      42.813 -14.893   1.680  1.00  0.00     0.048 C 
HETATM    6  C   UNL     1      43.124 -16.035   2.647  1.00  0.00     0.099 C 
HETATM    7  N   UNL     1      42.891 -17.317   1.970  1.00  0.00    -0.268 NA
HETATM    8  C   UNL     1      41.520 -17.510   1.490  1.00  0.00     0.099 C 
HETATM    9  C   UNL     1      41.188 -16.401   0.494  1.00  0.00     0.048 C 
BRANCH   7  10
HETATM   10  C   UNL     1      43.460 -18.425   2.617  1.00  0.00     0.109 A 
HETATM   11  N   UNL     1      43.689 -19.553   1.921  1.00  0.00    -0.224 NA
HETATM   12  C   UNL     1      44.169 -20.633   2.587  1.00  0.00     0.102 A 
HETATM   13  N   UNL     1      44.417 -20.631   3.904  1.00  0.00    -0.348 N 
HETATM   14  C   UNL     1      44.380 -21.898   1.819  1.00  0.00     0.091 C 
HETATM   15  C   UNL     1      44.204 -19.521   4.627  1.00  0.00     0.009 A 
HETATM   16  H   UNL     1      44.758 -21.482   4.349  1.00  0.00     0.167 HD
HETATM   17  C   UNL     1      44.473 -19.546   6.097  1.00  0.00     0.068 C 
HETATM   18  C   UNL     1      43.711 -18.383   3.984  1.00  0.00     0.069 A 
ENDBRANCH   7  10
ENDBRANCH   1   4
BRANCH   1  19
HETATM   19  C   UNL     1      40.459 -13.024   2.357  1.00  0.00     0.277 C 
BRANCH  19  20
HETATM   20  C   UNL     1      39.812 -12.601   3.625  1.00  0.00     0.016 A 
HETATM   21  C   UNL     1      40.147 -12.975   4.963  1.00  0.00     0.096 A 
HETATM   22  N   UNL     1      39.266 -12.469   5.832  1.00  0.00    -0.174 NA
HETATM   23  N   UNL     1      38.464 -11.685   5.104  1.00  0.00    -0.288 N 
HETATM   24  H   UNL     1      37.745 -11.146   5.584  1.00  0.00     0.188 HD
HETATM   25  C   UNL     1      38.728 -11.755   3.768  1.00  0.00     0.120 A 
BRANCH  21  26
HETATM   26  C   UNL     1      41.227 -13.838   5.431  1.00  0.00    -0.005 A 
HETATM   27  C   UNL     1      40.976 -15.166   5.808  1.00  0.00     0.017 A 
HETATM   28  C   UNL     1      42.021 -15.978   6.254  1.00  0.00     0.043 A 
HETATM   29  C   UNL     1      43.314 -15.468   6.310  1.00  0.00     0.116 A 
HETATM   30  F   UNL     1      44.311 -16.245   6.750  1.00  0.00    -0.206 F 
HETATM   31  C   UNL     1      43.585 -14.164   5.915  1.00  0.00     0.043 A 
HETATM   32  C   UNL     1      42.542 -13.349   5.472  1.00  0.00     0.017 A 
ENDBRANCH  21  26
ENDBRANCH  19  20
ENDBRANCH   1  19
TORSDOF 5
ENDMDL
MODEL 6
REMARK VINA RESULT:      -8.0      3.794      6.111
REMARK  5 active torsions:
REMARK  status: ('A' for Active; 'I' for Inactive)
REMARK    1  A    between atoms: C_8  and  N_9 
REMARK    2  A    between atoms: C_12  and  N_13 
REMARK    3  A    between atoms: N_13  and  C_15 
REMARK    4  A    between atoms: C_15  and  C_16 
REMARK    5  A    between atoms: C_17  and  C_18 
ROOT
HETATM    1  N   UNL     1      41.046 -15.835   3.423  1.00  0.00    -0.067 N 
HETATM    2  H   UNL     1      40.307 -16.103   2.763  1.00  0.00     0.280 HD
HETATM    3  C   UNL     1      40.457 -14.752   4.304  1.00  0.00     0.270 C 
ENDROOT
BRANCH   1   4
HETATM    4  C   UNL     1      42.308 -15.419   2.640  1.00  0.00     0.190 C 
HETATM    5  C   UNL     1      42.541 -16.350   1.438  1.00  0.00     0.048 C 
HETATM    6  C   UNL     1      41.623 -16.049   0.253  1.00  0.00     0.099 C 
HETATM    7  N   UNL     1      41.741 -14.628  -0.099  1.00  0.00    -0.268 NA
HETATM    8  C   UNL     1      41.382 -13.703   0.979  1.00  0.00     0.099 C 
HETATM    9  C   UNL     1      42.304 -13.956   2.169  1.00  0.00     0.048 C 
BRANCH   7  10
HETATM   10  C   UNL     1      41.227 -14.301  -1.363  1.00  0.00     0.109 A 
HETATM   11  N   UNL     1      40.401 -15.161  -1.986  1.00  0.00    -0.224 NA
HETATM   12  C   UNL     1      39.979 -14.855  -3.238  1.00  0.00     0.102 A 
HETATM   13  N   UNL     1      40.352 -13.743  -3.886  1.00  0.00    -0.348 N 
HETATM   14  C   UNL     1      39.096 -15.834  -3.943  1.00  0.00     0.091 C 
HETATM   15  C   UNL     1      41.172 -12.862  -3.292  1.00  0.00     0.009 A 
HETATM   16  H   UNL     1      40.016 -13.580  -4.834  1.00  0.00     0.167 HD
HETATM   17  C   UNL     1      41.588 -11.636  -4.040  1.00  0.00     0.068 C 
HETATM   18  C   UNL     1      41.632 -13.134  -2.002  1.00  0.00     0.069 A 
ENDBRANCH   7  10
ENDBRANCH   1   4
BRANCH   1  19
HETATM   19  C   UNL     1      41.313 -17.087   4.278  1.00  0.00     0.277 C 
BRANCH  19  20
HETATM   20  C   UNL     1      42.563 -17.021   5.078  1.00  0.00     0.016 A 
HETATM   21  C   UNL     1      43.692 -17.896   5.041  1.00  0.00     0.096 A 
HETATM   22  N   UNL     1      44.577 -17.568   5.987  1.00  0.00    -0.174 NA
HETATM   23  N   UNL     1      44.108 -16.441   6.534  1.00  0.00    -0.288 N 
HETATM   24  H   UNL     1      44.668 -15.978   7.248  1.00  0.00     0.188 HD
HETATM   25  C   UNL     1      42.884 -16.088   6.047  1.00  0.00     0.120 A 
BRANCH  21  26
HETATM   26  C   UNL     1      43.925 -19.056   4.188  1.00  0.00    -0.005 A 
HETATM   27  C   UNL     1      44.552 -20.206   4.691  1.00  0.00     0.017 A 
HETATM   28  C   UNL     1      44.767 -21.308   3.861  1.00  0.00     0.043 A 
HETATM   29  C   UNL     1      44.346 -21.265   2.536  1.00  0.00     0.116 A 
HETATM   30  F   UNL     1      44.566 -22.318   1.740  1.00  0.00    -0.206 F 
HETATM   31  C   UNL     1      43.700 -20.145   2.028  1.00  0.00     0.043 A 
HETATM   32  C   UNL     1      43.486 -19.041   2.855  1.00  0.00     0.017 A 
ENDBRANCH  21  26
ENDBRANCH  19  20
ENDBRANCH   1  19
TORSDOF 5
ENDMDL
MODEL 7
REMARK VINA RESULT:      -8.0      2.501      4.326
REMARK  5 active torsions:
REMARK  status: ('A' for Active; 'I' for Inactive)
REMARK    1  A    between atoms: C_8  and  N_9 
REMARK    2  A    between atoms: C_12  and  N_13 
REMARK    3  A    between atoms: N_13  and  C_15 
REMARK    4  A    between atoms: C_15  and  C_16 
REMARK    5  A    between atoms: C_17  and  C_18 
ROOT
HETATM    1  N   UNL     1      43.033 -16.196   6.110  1.00  0.00    -0.067 N 
HETATM    2  H   UNL     1      43.183 -15.977   7.103  1.00  0.00     0.280 HD
HETATM    3  C   UNL     1      43.375 -14.936   5.341  1.00  0.00     0.270 C 
ENDROOT
BRANCH   1   4
HETATM    4  C   UNL     1      41.593 -16.707   5.909  1.00  0.00     0.190 C 
HETATM    5  C   UNL     1      40.600 -15.536   5.821  1.00  0.00     0.048 C 
HETATM    6  C   UNL     1      40.613 -14.834   4.463  1.00  0.00     0.099 C 
HETATM    7  N   UNL     1      40.410 -15.830   3.403  1.00  0.00    -0.268 NA
HETATM    8  C   UNL     1      41.425 -16.886   3.359  1.00  0.00     0.099 C 
HETATM    9  C   UNL     1      41.415 -17.630   4.692  1.00  0.00     0.048 C 
BRANCH   7  10
HETATM   10  C   UNL     1      40.059 -15.286   2.158  1.00  0.00     0.109 A 
HETATM   11  N   UNL     1      38.911 -14.596   2.035  1.00  0.00    -0.224 NA
HETATM   12  C   UNL     1      38.558 -14.146   0.805  1.00  0.00     0.102 A 
HETATM   13  N   UNL     1      39.295 -14.363  -0.293  1.00  0.00    -0.348 N 
HETATM   14  C   UNL     1      37.260 -13.418   0.666  1.00  0.00     0.091 C 
HETATM   15  C   UNL     1      40.449 -15.043  -0.206  1.00  0.00     0.009 A 
HETATM   16  H   UNL     1      38.966 -14.016  -1.193  1.00  0.00     0.167 HD
HETATM   17  C   UNL     1      41.247 -15.287  -1.446  1.00  0.00     0.068 C 
HETATM   18  C   UNL     1      40.853 -15.526   1.041  1.00  0.00     0.069 A 
ENDBRANCH   7  10
ENDBRANCH   1   4
BRANCH   1  19
HETATM   19  C   UNL     1      44.062 -17.288   5.767  1.00  0.00     0.277 C 
BRANCH  19  20
HETATM   20  C   UNL     1      44.010 -18.473   6.661  1.00  0.00     0.016 A 
HETATM   21  C   UNL     1      44.065 -19.857   6.310  1.00  0.00     0.096 A 
HETATM   22  N   UNL     1      43.882 -20.627   7.387  1.00  0.00    -0.174 NA
HETATM   23  N   UNL     1      43.843 -19.781   8.423  1.00  0.00    -0.288 N 
HETATM   24  H   UNL     1      43.769 -20.167   9.363  1.00  0.00     0.188 HD
HETATM   25  C   UNL     1      43.881 -18.474   8.038  1.00  0.00     0.120 A 
BRANCH  21  26
HETATM   26  C   UNL     1      44.220 -20.463   4.992  1.00  0.00    -0.005 A 
HETATM   27  C   UNL     1      44.115 -19.689   3.826  1.00  0.00     0.017 A 
HETATM   28  C   UNL     1      44.267 -20.286   2.572  1.00  0.00     0.043 A 
HETATM   29  C   UNL     1      44.535 -21.648   2.485  1.00  0.00     0.116 A 
HETATM   30  F   UNL     1      44.667 -22.218   1.282  1.00  0.00    -0.206 F 
HETATM   31  C   UNL     1      44.669 -22.424   3.630  1.00  0.00     0.043 A 
HETATM   32  C   UNL     1      44.515 -21.831   4.884  1.00  0.00     0.017 A 
ENDBRANCH  21  26
ENDBRANCH  19  20
ENDBRANCH   1  19
TORSDOF 5
ENDMDL
MODEL 8
REMARK VINA RESULT:      -7.7      4.437      8.034
REMARK  5 active torsions:
REMARK  status: ('A' for Active; 'I' for Inactive)
REMARK    1  A    between atoms: C_8  and  N_9 
REMARK    2  A    between atoms: C_12  and  N_13 
REMARK    3  A    between atoms: N_13  and  C_15 
REMARK    4  A    between atoms: C_15  and  C_16 
REMARK    5  A    between atoms: C_17  and  C_18 
ROOT
HETATM    1  N   UNL     1      40.368 -13.961   1.020  1.00  0.00    -0.067 N 
HETATM    2  H   UNL     1      41.268 -14.373   0.746  1.00  0.00     0.280 HD
HETATM    3  C   UNL     1      40.640 -12.498   1.306  1.00  0.00     0.270 C 
ENDROOT
BRANCH   1   4
HETATM    4  C   UNL     1      39.779 -14.754   2.203  1.00  0.00     0.190 C 
HETATM    5  C   UNL     1      39.674 -16.251   1.865  1.00  0.00     0.048 C 
HETATM    6  C   UNL     1      41.013 -16.985   1.949  1.00  0.00     0.099 C 
HETATM    7  N   UNL     1      41.612 -16.743   3.268  1.00  0.00    -0.268 NA
HETATM    8  C   UNL     1      41.867 -15.332   3.570  1.00  0.00     0.099 C 
HETATM    9  C   UNL     1      40.542 -14.574   3.526  1.00  0.00     0.048 C 
BRANCH   7  10
HETATM   10  C   UNL     1      42.654 -17.623   3.600  1.00  0.00     0.109 A 
HETATM   11  N   UNL     1      42.890 -18.694   2.822  1.00  0.00    -0.224 NA
HETATM   12  C   UNL     1      43.853 -19.569   3.207  1.00  0.00     0.102 A 
HETATM   13  N   UNL     1      44.573 -19.420   4.327  1.00  0.00    -0.348 N 
HETATM   14  C   UNL     1      44.083 -20.782   2.362  1.00  0.00     0.091 C 
HETATM   15  C   UNL     1      44.366 -18.361   5.124  1.00  0.00     0.009 A 
HETATM   16  H   UNL     1      45.268 -20.124   4.572  1.00  0.00     0.167 HD
HETATM   17  C   UNL     1      45.169 -18.223   6.377  1.00  0.00     0.068 C 
HETATM   18  C   UNL     1      43.385 -17.432   4.768  1.00  0.00     0.069 A 
ENDBRANCH   7  10
ENDBRANCH   1   4
BRANCH   1  19
HETATM   19  C   UNL     1      39.467 -14.070  -0.223  1.00  0.00     0.277 C 
BRANCH  19  20
HETATM   20  C   UNL     1      40.158 -14.594  -1.429  1.00  0.00     0.016 A 
HETATM   21  C   UNL     1      39.706 -14.595  -2.785  1.00  0.00     0.096 A 
HETATM   22  N   UNL     1      40.565 -15.252  -3.570  1.00  0.00    -0.174 NA
HETATM   23  N   UNL     1      41.604 -15.553  -2.783  1.00  0.00    -0.288 N 
HETATM   24  H   UNL     1      42.413 -16.010  -3.200  1.00  0.00     0.188 HD
HETATM   25  C   UNL     1      41.395 -15.210  -1.480  1.00  0.00     0.120 A 
BRANCH  21  26
HETATM   26  C   UNL     1      38.470 -14.054  -3.340  1.00  0.00    -0.005 A 
HETATM   27  C   UNL     1      38.240 -12.670  -3.372  1.00  0.00     0.017 A 
HETATM   28  C   UNL     1      37.051 -12.169  -3.907  1.00  0.00     0.043 A 
HETATM   29  C   UNL     1      36.102 -13.047  -4.418  1.00  0.00     0.116 A 
HETATM   30  F   UNL     1      34.958 -12.563  -4.918  1.00  0.00    -0.206 F 
HETATM   31  C   UNL     1      36.324 -14.418  -4.418  1.00  0.00     0.043 A 
HETATM   32  C   UNL     1      37.510 -14.922  -3.882  1.00  0.00     0.017 A 
ENDBRANCH  21  26
ENDBRANCH  19  20
ENDBRANCH   1  19
TORSDOF 5
ENDMDL
MODEL 9
REMARK VINA RESULT:      -7.7      2.296      7.445
REMARK  5 active torsions:
REMARK  status: ('A' for Active; 'I' for Inactive)
REMARK    1  A    between atoms: C_8  and  N_9 
REMARK    2  A    between atoms: C_12  and  N_13 
REMARK    3  A    between atoms: N_13  and  C_15 
REMARK    4  A    between atoms: C_15  and  C_16 
REMARK    5  A    between atoms: C_17  and  C_18 
ROOT
HETATM    1  N   UNL     1      40.516 -13.877   2.594  1.00  0.00    -0.067 N 
HETATM    2  H   UNL     1      40.518 -14.452   3.445  1.00  0.00     0.280 HD
HETATM    3  C   UNL     1      39.171 -13.180   2.554  1.00  0.00     0.270 C 
ENDROOT
BRANCH   1   4
HETATM    4  C   UNL     1      40.822 -14.767   1.373  1.00  0.00     0.190 C 
HETATM    5  C   UNL     1      42.339 -14.908   1.160  1.00  0.00     0.048 C 
HETATM    6  C   UNL     1      42.996 -15.892   2.128  1.00  0.00     0.099 C 
HETATM    7  N   UNL     1      42.292 -17.179   2.059  1.00  0.00    -0.268 NA
HETATM    8  C   UNL     1      40.869 -17.112   2.402  1.00  0.00     0.099 C 
HETATM    9  C   UNL     1      40.175 -16.161   1.430  1.00  0.00     0.048 C 
BRANCH   7  10
HETATM   10  C   UNL     1      42.994 -18.254   2.628  1.00  0.00     0.109 A 
HETATM   11  N   UNL     1      43.604 -18.093   3.815  1.00  0.00    -0.224 NA
HETATM   12  C   UNL     1      44.339 -19.123   4.306  1.00  0.00     0.102 A 
HETATM   13  N   UNL     1      44.490 -20.287   3.661  1.00  0.00    -0.348 N 
HETATM   14  C   UNL     1      45.051 -18.924   5.606  1.00  0.00     0.091 C 
HETATM   15  C   UNL     1      43.891 -20.482   2.476  1.00  0.00     0.009 A 
HETATM   16  H   UNL     1      45.072 -21.015   4.073  1.00  0.00     0.167 HD
HETATM   17  C   UNL     1      44.088 -21.783   1.765  1.00  0.00     0.068 C 
HETATM   18  C   UNL     1      43.124 -19.450   1.931  1.00  0.00     0.069 A 
ENDBRANCH   7  10
ENDBRANCH   1   4
BRANCH   1  19
HETATM   19  C   UNL     1      41.621 -12.825   2.802  1.00  0.00     0.277 C 
BRANCH  19  20
HETATM   20  C   UNL     1      41.531 -12.100   4.095  1.00  0.00     0.016 A 
HETATM   21  C   UNL     1      41.583 -12.632   5.420  1.00  0.00     0.096 A 
HETATM   22  N   UNL     1      41.363 -11.674   6.325  1.00  0.00    -0.174 NA
HETATM   23  N   UNL     1      41.302 -10.535   5.626  1.00  0.00    -0.288 N 
HETATM   24  H   UNL     1      41.197  -9.658   6.134  1.00  0.00     0.188 HD
HETATM   25  C   UNL     1      41.363 -10.739   4.279  1.00  0.00     0.120 A 
BRANCH  21  26
HETATM   26  C   UNL     1      41.771 -14.015   5.846  1.00  0.00    -0.005 A 
HETATM   27  C   UNL     1      40.689 -14.907   5.894  1.00  0.00     0.017 A 
HETATM   28  C   UNL     1      40.887 -16.228   6.304  1.00  0.00     0.043 A 
HETATM   29  C   UNL     1      42.163 -16.657   6.653  1.00  0.00     0.116 A 
HETATM   30  F   UNL     1      42.345 -17.920   7.058  1.00  0.00    -0.206 F 
HETATM   31  C   UNL     1      43.250 -15.795   6.585  1.00  0.00     0.043 A 
HETATM   32  C   UNL     1      43.055 -14.474   6.179  1.00  0.00     0.017 A 
ENDBRANCH  21  26
ENDBRANCH  19  20
ENDBRANCH   1  19
TORSDOF 5
ENDMDL
MODEL 10
REMARK VINA RESULT:      -7.6      3.913      6.780
REMARK  5 active torsions:
REMARK  status: ('A' for Active; 'I' for Inactive)
REMARK    1  A    between atoms: C_8  and  N_9 
REMARK    2  A    between atoms: C_12  and  N_13 
REMARK    3  A    between atoms: N_13  and  C_15 
REMARK    4  A    between atoms: C_15  and  C_16 
REMARK    5  A    between atoms: C_17  and  C_18 
ROOT
HETATM    1  N   UNL     1      41.473 -14.224   2.657  1.00  0.00    -0.067 N 
HETATM    2  H   UNL     1      40.748 -13.632   3.081  1.00  0.00     0.280 HD
HETATM    3  C   UNL     1      42.349 -13.299   1.836  1.00  0.00     0.270 C 
ENDROOT
BRANCH   1   4
HETATM    4  C   UNL     1      40.806 -15.362   1.860  1.00  0.00     0.190 C 
HETATM    5  C   UNL     1      39.296 -15.114   1.704  1.00  0.00     0.048 C 
HETATM    6  C   UNL     1      38.961 -14.076   0.632  1.00  0.00     0.099 C 
HETATM    7  N   UNL     1      39.606 -14.462  -0.629  1.00  0.00    -0.268 NA
HETATM    8  C   UNL     1      41.066 -14.565  -0.560  1.00  0.00     0.099 C 
HETATM    9  C   UNL     1      41.434 -15.620   0.481  1.00  0.00     0.048 C 
BRANCH   7  10
HETATM   10  C   UNL     1      39.106 -13.797  -1.761  1.00  0.00     0.109 A 
HETATM   11  N   UNL     1      38.066 -14.322  -2.432  1.00  0.00    -0.224 NA
HETATM   12  C   UNL     1      37.652 -13.700  -3.565  1.00  0.00     0.102 A 
HETATM   13  N   UNL     1      38.234 -12.595  -4.048  1.00  0.00    -0.348 N 
HETATM   14  C   UNL     1      36.523 -14.312  -4.332  1.00  0.00     0.091 C 
HETATM   15  C   UNL     1      39.272 -12.043  -3.400  1.00  0.00     0.009 A 
HETATM   16  H   UNL     1      37.889 -12.187  -4.916  1.00  0.00     0.167 HD
HETATM   17  C   UNL     1      39.917 -10.819  -3.967  1.00  0.00     0.068 C 
HETATM   18  C   UNL     1      39.733 -12.647  -2.229  1.00  0.00     0.069 A 
ENDBRANCH   7  10
ENDBRANCH   1   4
BRANCH   1  19
HETATM   19  C   UNL     1      42.294 -14.779   3.834  1.00  0.00     0.277 C 
BRANCH  19  20
HETATM   20  C   UNL     1      41.523 -15.656   4.751  1.00  0.00     0.016 A 
HETATM   21  C   UNL     1      41.649 -17.066   4.952  1.00  0.00     0.096 A 
HETATM   22  N   UNL     1      40.704 -17.512   5.786  1.00  0.00    -0.174 NA
HETATM   23  N   UNL     1      40.068 -16.417   6.218  1.00  0.00    -0.288 N 
HETATM   24  H   UNL     1      39.338 -16.525   6.919  1.00  0.00     0.188 HD
HETATM   25  C   UNL     1      40.499 -15.280   5.601  1.00  0.00     0.120 A 
BRANCH  21  26
HETATM   26  C   UNL     1      42.586 -17.999   4.337  1.00  0.00    -0.005 A 
HETATM   27  C   UNL     1      42.511 -18.298   2.968  1.00  0.00     0.017 A 
HETATM   28  C   UNL     1      43.417 -19.195   2.396  1.00  0.00     0.043 A 
HETATM   29  C   UNL     1      44.400 -19.780   3.186  1.00  0.00     0.116 A 
HETATM   30  F   UNL     1      45.257 -20.648   2.636  1.00  0.00    -0.206 F 
HETATM   31  C   UNL     1      44.506 -19.475   4.537  1.00  0.00     0.043 A 
HETATM   32  C   UNL     1      43.600 -18.581   5.113  1.00  0.00     0.017 A 
ENDBRANCH  21  26
ENDBRANCH  19  20
ENDBRANCH   1  19
TORSDOF 5
ENDMDL
