MODEL 1
REMARK VINA RESULT:      -9.2      0.000      0.000
REMARK  6 active torsions:
REMARK  status: ('A' for Active; 'I' for Inactive)
REMARK    1  A    between atoms: C_7  and  C_8 
REMARK    2  A    between atoms: C_8  and  O_9 
REMARK    3  A    between atoms: N_12  and  C_13 
REMARK    4  A    between atoms: C_13  and  C_14 
REMARK    5  A    between atoms: C_14  and  C_15 
REMARK    6  A    between atoms: C_15  and  C_16 
ROOT
HETATM    1  C   UNL     1      41.049 -15.623   5.404  1.00  0.00     0.199 A 
HETATM    2  C   UNL     1      41.367 -17.127   5.662  1.00  0.00     0.269 A 
HETATM    3  O   UNL     1      40.613 -18.069   5.454  1.00  0.00    -0.269 OA
HETATM    4  N   UNL     1      42.625 -17.188   6.289  1.00  0.00    -0.314 N 
HETATM    5  C   UNL     1      43.173 -15.903   6.435  1.00  0.00     0.047 A 
HETATM    6  C   UNL     1      42.293 -14.944   5.915  1.00  0.00     0.017 A 
HETATM    7  C   UNL     1      44.378 -15.538   7.009  1.00  0.00     0.030 A 
HETATM    8  C   UNL     1      44.697 -14.178   7.064  1.00  0.00     0.002 A 
HETATM    9  C   UNL     1      43.815 -13.212   6.555  1.00  0.00     0.001 A 
HETATM   10  C   UNL     1      42.601 -13.591   5.981  1.00  0.00     0.013 A 
ENDROOT
BRANCH   1  11
HETATM   11  C   UNL     1      40.870 -15.234   3.955  1.00  0.00     0.025 A 
HETATM   12  C   UNL     1      40.174 -14.121   3.477  1.00  0.00     0.016 A 
HETATM   13  C   UNL     1      39.444 -13.035   4.189  1.00  0.00     0.069 C 
HETATM   14  N   UNL     1      40.247 -14.125   2.109  1.00  0.00    -0.359 N 
HETATM   15  H   UNL     1      39.830 -13.433   1.502  1.00  0.00     0.166 HD
HETATM   16  C   UNL     1      40.992 -15.186   1.664  1.00  0.00     0.043 A 
HETATM   17  C   UNL     1      41.395 -15.906   2.789  1.00  0.00     0.003 A 
HETATM   18  C   UNL     1      41.333 -15.549   0.355  1.00  0.00     0.030 A 
HETATM   19  C   UNL     1      42.191 -17.054   2.576  1.00  0.00     0.014 A 
HETATM   20  C   UNL     1      42.545 -17.432   1.274  1.00  0.00     0.001 A 
HETATM   21  C   UNL     1      42.120 -16.688   0.180  1.00  0.00     0.002 A 
ENDBRANCH   1  11
BRANCH   1  22
HETATM   22  O   UNL     1      39.936 -15.260   6.223  1.00  0.00    -0.371 OA
HETATM   23  H   UNL     1      40.276 -15.341   7.133  1.00  0.00     0.212 HD
ENDBRANCH   1  22
BRANCH   4  24
HETATM   24  C   UNL     1      43.132 -18.387   6.916  1.00  0.00     0.133 C 
BRANCH  24  25
HETATM   25  C   UNL     1      44.466 -18.876   6.358  1.00  0.00     0.025 C 
BRANCH  25  26
HETATM   26  C   UNL     1      44.559 -18.755   4.835  1.00  0.00     0.040 C 
BRANCH  26  27
HETATM   27  C   UNL     1      44.581 -20.110   4.164  1.00  0.00    -0.058 A 
HETATM   28  C   UNL     1      44.396 -20.231   2.779  1.00  0.00     0.007 A 
HETATM   29  C   UNL     1      44.384 -21.488   2.172  1.00  0.00     0.001 A 
HETATM   30  C   UNL     1      44.565 -22.637   2.940  1.00  0.00     0.000 A 
HETATM   31  C   UNL     1      44.764 -22.529   4.316  1.00  0.00     0.001 A 
HETATM   32  C   UNL     1      44.772 -21.273   4.924  1.00  0.00     0.007 A 
ENDBRANCH  26  27
ENDBRANCH  25  26
ENDBRANCH  24  25
ENDBRANCH   4  24
TORSDOF 6
ENDMDL
MODEL 2
REMARK VINA RESULT:      -8.9      2.724      4.077
REMARK  6 active torsions:
REMARK  status: ('A' for Active; 'I' for Inactive)
REMARK    1  A    between atoms: C_7  and  C_8 
REMARK    2  A    between atoms: C_8  and  O_9 
REMARK    3  A    between atoms: N_12  and  C_13 
REMARK    4  A    between atoms: C_13  and  C_14 
REMARK    5  A    between atoms: C_14  and  C_15 
REMARK    6  A    between atoms: C_15  and  C_16 
ROOT
HETATM    1  C   UNL     1      40.298 -15.113   1.239  1.00  0.00     0.199 A 
HETATM    2  C   UNL     1      41.451 -16.095   0.871  1.00  0.00     0.269 A 
HETATM    3  O   UNL     1      41.368 -17.052   0.112  1.00  0.00    -0.269 OA
HETATM    4  N   UNL     1      42.561 -15.754   1.665  1.00  0.00    -0.314 N 
HETATM    5  C   UNL     1      42.273 -14.645   2.476  1.00  0.00     0.047 A 
HETATM    6  C   UNL     1      40.958 -14.215   2.253  1.00  0.00     0.017 A 
HETATM    7  C   UNL     1      43.089 -14.015   3.399  1.00  0.00     0.030 A 
HETATM    8  C   UNL     1      42.564 -12.934   4.114  1.00  0.00     0.002 A 
HETATM    9  C   UNL     1      41.243 -12.507   3.903  1.00  0.00     0.001 A 
HETATM   10  C   UNL     1      40.429 -13.152   2.973  1.00  0.00     0.013 A 
ENDROOT
BRANCH   1  11
HETATM   11  C   UNL     1      39.797 -14.245   0.108  1.00  0.00     0.025 A 
HETATM   12  C   UNL     1      38.481 -13.818  -0.087  1.00  0.00     0.016 A 
HETATM   13  C   UNL     1      37.241 -14.057   0.702  1.00  0.00     0.069 C 
HETATM   14  N   UNL     1      38.443 -13.051  -1.221  1.00  0.00    -0.359 N 
HETATM   15  H   UNL     1      37.615 -12.612  -1.599  1.00  0.00     0.166 HD
HETATM   16  C   UNL     1      39.693 -12.929  -1.769  1.00  0.00     0.043 A 
HETATM   17  C   UNL     1      40.567 -13.666  -0.969  1.00  0.00     0.003 A 
HETATM   18  C   UNL     1      40.103 -12.221  -2.906  1.00  0.00     0.030 A 
HETATM   19  C   UNL     1      41.931 -13.683  -1.339  1.00  0.00     0.014 A 
HETATM   20  C   UNL     1      42.361 -12.979  -2.471  1.00  0.00     0.001 A 
HETATM   21  C   UNL     1      41.457 -12.258  -3.243  1.00  0.00     0.002 A 
ENDBRANCH   1  11
BRANCH   1  22
HETATM   22  O   UNL     1      39.261 -15.865   1.870  1.00  0.00    -0.371 OA
HETATM   23  H   UNL     1      39.722 -16.639   2.241  1.00  0.00     0.212 HD
ENDBRANCH   1  22
BRANCH   4  24
HETATM   24  C   UNL     1      43.724 -16.603   1.795  1.00  0.00     0.133 C 
BRANCH  24  25
HETATM   25  C   UNL     1      43.519 -17.820   2.695  1.00  0.00     0.025 C 
BRANCH  25  26
HETATM   26  C   UNL     1      43.700 -19.149   1.958  1.00  0.00     0.040 C 
BRANCH  26  27
HETATM   27  C   UNL     1      44.132 -20.256   2.892  1.00  0.00    -0.058 A 
HETATM   28  C   UNL     1      44.243 -21.578   2.439  1.00  0.00     0.007 A 
HETATM   29  C   UNL     1      44.611 -22.600   3.316  1.00  0.00     0.001 A 
HETATM   30  C   UNL     1      44.882 -22.311   4.652  1.00  0.00     0.000 A 
HETATM   31  C   UNL     1      44.789 -20.998   5.112  1.00  0.00     0.001 A 
HETATM   32  C   UNL     1      44.417 -19.976   4.236  1.00  0.00     0.007 A 
ENDBRANCH  26  27
ENDBRANCH  25  26
ENDBRANCH  24  25
ENDBRANCH   4  24
TORSDOF 6
ENDMDL
MODEL 3
REMARK VINA RESULT:      -8.9      1.180      2.017
REMARK  6 active torsions:
REMARK  status: ('A' for Active; 'I' for Inactive)
REMARK    1  A    between atoms: C_7  and  C_8 
REMARK    2  A    between atoms: C_8  and  O_9 
REMARK    3  A    between atoms: N_12  and  C_13 
REMARK    4  A    between atoms: C_13  and  C_14 
REMARK    5  A    between atoms: C_14  and  C_15 
REMARK    6  A    between atoms: C_15  and  C_16 
ROOT
HETATM    1  C   UNL     1      41.251 -15.753   4.713  1.00  0.00     0.199 A 
HETATM    2  C   UNL     1      41.523 -17.227   5.139  1.00  0.00     0.269 A 
HETATM    3  O   UNL     1      40.854 -18.204   4.826  1.00  0.00    -0.269 OA
HETATM    4  N   UNL     1      42.598 -17.209   6.046  1.00  0.00    -0.314 N 
HETATM    5  C   UNL     1      43.076 -15.901   6.228  1.00  0.00     0.047 A 
HETATM    6  C   UNL     1      42.329 -15.004   5.452  1.00  0.00     0.017 A 
HETATM    7  C   UNL     1      44.106 -15.463   7.041  1.00  0.00     0.030 A 
HETATM    8  C   UNL     1      44.383 -14.094   7.076  1.00  0.00     0.002 A 
HETATM    9  C   UNL     1      43.630 -13.189   6.310  1.00  0.00     0.001 A 
HETATM   10  C   UNL     1      42.592 -13.641   5.496  1.00  0.00     0.013 A 
ENDROOT
BRANCH   1  11
HETATM   11  C   UNL     1      41.411 -15.462   3.238  1.00  0.00     0.025 A 
HETATM   12  C   UNL     1      42.575 -15.629   2.484  1.00  0.00     0.016 A 
HETATM   13  C   UNL     1      43.931 -16.119   2.859  1.00  0.00     0.069 C 
HETATM   14  N   UNL     1      42.306 -15.256   1.193  1.00  0.00    -0.359 N 
HETATM   15  H   UNL     1      42.971 -15.275   0.432  1.00  0.00     0.166 HD
HETATM   16  C   UNL     1      40.997 -14.875   1.059  1.00  0.00     0.043 A 
HETATM   17  C   UNL     1      40.405 -14.986   2.317  1.00  0.00     0.003 A 
HETATM   18  C   UNL     1      40.306 -14.448  -0.081  1.00  0.00     0.030 A 
HETATM   19  C   UNL     1      39.037 -14.649   2.425  1.00  0.00     0.014 A 
HETATM   20  C   UNL     1      38.327 -14.221   1.295  1.00  0.00     0.001 A 
HETATM   21  C   UNL     1      38.956 -14.124   0.059  1.00  0.00     0.002 A 
ENDBRANCH   1  11
BRANCH   1  22
HETATM   22  O   UNL     1      39.971 -15.374   5.222  1.00  0.00    -0.371 OA
HETATM   23  H   UNL     1      39.943 -14.408   5.095  1.00  0.00     0.212 HD
ENDBRANCH   1  22
BRANCH   4  24
HETATM   24  C   UNL     1      42.962 -18.350   6.855  1.00  0.00     0.133 C 
BRANCH  24  25
HETATM   25  C   UNL     1      44.134 -19.163   6.309  1.00  0.00     0.025 C 
BRANCH  25  26
HETATM   26  C   UNL     1      44.549 -18.744   4.897  1.00  0.00     0.040 C 
BRANCH  26  27
HETATM   27  C   UNL     1      44.373 -19.868   3.902  1.00  0.00    -0.058 A 
HETATM   28  C   UNL     1      43.734 -19.649   2.673  1.00  0.00     0.007 A 
HETATM   29  C   UNL     1      43.546 -20.701   1.775  1.00  0.00     0.001 A 
HETATM   30  C   UNL     1      44.002 -21.980   2.089  1.00  0.00     0.000 A 
HETATM   31  C   UNL     1      44.651 -22.207   3.302  1.00  0.00     0.001 A 
HETATM   32  C   UNL     1      44.835 -21.157   4.203  1.00  0.00     0.007 A 
ENDBRANCH  26  27
ENDBRANCH  25  26
ENDBRANCH  24  25
ENDBRANCH   4  24
TORSDOF 6
ENDMDL
MODEL 4
REMARK VINA RESULT:      -8.8      2.736      4.625
REMARK  6 active torsions:
REMARK  status: ('A' for Active; 'I' for Inactive)
REMARK    1  A    between atoms: C_7  and  C_8 
REMARK    2  A    between atoms: C_8  and  O_9 
REMARK    3  A    between atoms: N_12  and  C_13 
REMARK    4  A    between atoms: C_13  and  C_14 
REMARK    5  A    between atoms: C_14  and  C_15 
REMARK    6  A    between atoms: C_15  and  C_16 
ROOT
HETATM    1  C   UNL     1      40.431 -15.232   1.316  1.00  0.00     0.199 A 
HETATM    2  C   UNL     1      41.457 -16.284   0.798  1.00  0.00     0.269 A 
HETATM    3  O   UNL     1      41.231 -17.174  -0.013  1.00  0.00    -0.269 OA
HETATM    4  N   UNL     1      42.648 -16.100   1.524  1.00  0.00    -0.314 N 
HETATM    5  C   UNL     1      42.524 -15.030   2.424  1.00  0.00     0.047 A 
HETATM    6  C   UNL     1      41.242 -14.470   2.331  1.00  0.00     0.017 A 
HETATM    7  C   UNL     1      43.459 -14.541   3.320  1.00  0.00     0.030 A 
HETATM    8  C   UNL     1      43.090 -13.472   4.141  1.00  0.00     0.002 A 
HETATM    9  C   UNL     1      41.803 -12.915   4.061  1.00  0.00     0.001 A 
HETATM   10  C   UNL     1      40.868 -13.417   3.156  1.00  0.00     0.013 A 
ENDROOT
BRANCH   1  11
HETATM   11  C   UNL     1      39.934 -14.245   0.284  1.00  0.00     0.025 A 
HETATM   12  C   UNL     1      38.614 -13.825   0.109  1.00  0.00     0.016 A 
HETATM   13  C   UNL     1      37.362 -14.183   0.833  1.00  0.00     0.069 C 
HETATM   14  N   UNL     1      38.582 -12.928  -0.925  1.00  0.00    -0.359 N 
HETATM   15  H   UNL     1      37.752 -12.464  -1.269  1.00  0.00     0.166 HD
HETATM   16  C   UNL     1      39.841 -12.715  -1.423  1.00  0.00     0.043 A 
HETATM   17  C   UNL     1      40.714 -13.524  -0.696  1.00  0.00     0.003 A 
HETATM   18  C   UNL     1      40.259 -11.867  -2.456  1.00  0.00     0.030 A 
HETATM   19  C   UNL     1      42.086 -13.468  -1.031  1.00  0.00     0.014 A 
HETATM   20  C   UNL     1      42.524 -12.624  -2.059  1.00  0.00     0.001 A 
HETATM   21  C   UNL     1      41.620 -11.835  -2.761  1.00  0.00     0.002 A 
ENDBRANCH   1  11
BRANCH   1  22
HETATM   22  O   UNL     1      39.375 -15.931   1.975  1.00  0.00    -0.371 OA
HETATM   23  H   UNL     1      39.104 -16.611   1.332  1.00  0.00     0.212 HD
ENDBRANCH   1  22
BRANCH   4  24
HETATM   24  C   UNL     1      43.732 -17.056   1.509  1.00  0.00     0.133 C 
BRANCH  24  25
HETATM   25  C   UNL     1      43.381 -18.418   2.104  1.00  0.00     0.025 C 
BRANCH  25  26
HETATM   26  C   UNL     1      43.963 -18.628   3.504  1.00  0.00     0.040 C 
BRANCH  26  27
HETATM   27  C   UNL     1      43.164 -17.900   4.561  1.00  0.00    -0.058 A 
HETATM   28  C   UNL     1      41.764 -17.854   4.502  1.00  0.00     0.007 A 
HETATM   29  C   UNL     1      41.036 -17.151   5.463  1.00  0.00     0.001 A 
HETATM   30  C   UNL     1      41.698 -16.494   6.500  1.00  0.00     0.000 A 
HETATM   31  C   UNL     1      43.089 -16.544   6.577  1.00  0.00     0.001 A 
HETATM   32  C   UNL     1      43.818 -17.243   5.614  1.00  0.00     0.007 A 
ENDBRANCH  26  27
ENDBRANCH  25  26
ENDBRANCH  24  25
ENDBRANCH   4  24
TORSDOF 6
ENDMDL
MODEL 5
REMARK VINA RESULT:      -8.8      2.316      3.598
REMARK  6 active torsions:
REMARK  status: ('A' for Active; 'I' for Inactive)
REMARK    1  A    between atoms: C_7  and  C_8 
REMARK    2  A    between atoms: C_8  and  O_9 
REMARK    3  A    between atoms: N_12  and  C_13 
REMARK    4  A    between atoms: C_13  and  C_14 
REMARK    5  A    between atoms: C_14  and  C_15 
REMARK    6  A    between atoms: C_15  and  C_16 
ROOT
HETATM    1  C   UNL     1      39.951 -15.156   2.191  1.00  0.00     0.199 A 
HETATM    2  C   UNL     1      40.728 -16.480   2.461  1.00  0.00     0.269 A 
HETATM    3  O   UNL     1      40.917 -17.382   1.654  1.00  0.00    -0.269 OA
HETATM    4  N   UNL     1      41.060 -16.500   3.827  1.00  0.00    -0.314 N 
HETATM    5  C   UNL     1      40.620 -15.329   4.465  1.00  0.00     0.047 A 
HETATM    6  C   UNL     1      39.975 -14.493   3.544  1.00  0.00     0.017 A 
HETATM    7  C   UNL     1      40.740 -14.974   5.798  1.00  0.00     0.030 A 
HETATM    8  C   UNL     1      40.193 -13.754   6.207  1.00  0.00     0.002 A 
HETATM    9  C   UNL     1      39.535 -12.918   5.291  1.00  0.00     0.001 A 
HETATM   10  C   UNL     1      39.417 -13.288   3.951  1.00  0.00     0.013 A 
ENDROOT
BRANCH   1  11
HETATM   11  C   UNL     1      40.595 -14.213   1.201  1.00  0.00     0.025 A 
HETATM   12  C   UNL     1      41.836 -13.588   1.341  1.00  0.00     0.016 A 
HETATM   13  C   UNL     1      42.854 -13.650   2.428  1.00  0.00     0.069 C 
HETATM   14  N   UNL     1      42.056 -12.818   0.230  1.00  0.00    -0.359 N 
HETATM   15  H   UNL     1      42.879 -12.254   0.066  1.00  0.00     0.166 HD
HETATM   16  C   UNL     1      41.018 -12.934  -0.656  1.00  0.00     0.043 A 
HETATM   17  C   UNL     1      40.081 -13.794  -0.083  1.00  0.00     0.003 A 
HETATM   18  C   UNL     1      40.849 -12.342  -1.914  1.00  0.00     0.030 A 
HETATM   19  C   UNL     1      38.912 -14.074  -0.826  1.00  0.00     0.014 A 
HETATM   20  C   UNL     1      38.727 -13.493  -2.087  1.00  0.00     0.001 A 
HETATM   21  C   UNL     1      39.684 -12.639  -2.622  1.00  0.00     0.002 A 
ENDBRANCH   1  11
BRANCH   1  22
HETATM   22  O   UNL     1      38.606 -15.494   1.848  1.00  0.00    -0.371 OA
HETATM   23  H   UNL     1      38.350 -16.153   2.519  1.00  0.00     0.212 HD
ENDBRANCH   1  22
BRANCH   4  24
HETATM   24  C   UNL     1      41.547 -17.683   4.499  1.00  0.00     0.133 C 
BRANCH  24  25
HETATM   25  C   UNL     1      43.058 -17.706   4.721  1.00  0.00     0.025 C 
BRANCH  25  26
HETATM   26  C   UNL     1      43.847 -18.005   3.444  1.00  0.00     0.040 C 
BRANCH  26  27
HETATM   27  C   UNL     1      44.026 -19.490   3.228  1.00  0.00    -0.058 A 
HETATM   28  C   UNL     1      44.611 -20.297   4.215  1.00  0.00     0.007 A 
HETATM   29  C   UNL     1      44.803 -21.661   3.995  1.00  0.00     0.001 A 
HETATM   30  C   UNL     1      44.404 -22.238   2.790  1.00  0.00     0.000 A 
HETATM   31  C   UNL     1      43.809 -21.450   1.806  1.00  0.00     0.001 A 
HETATM   32  C   UNL     1      43.621 -20.084   2.024  1.00  0.00     0.007 A 
ENDBRANCH  26  27
ENDBRANCH  25  26
ENDBRANCH  24  25
ENDBRANCH   4  24
TORSDOF 6
ENDMDL
MODEL 6
REMARK VINA RESULT:      -8.6      2.154      4.015
REMARK  6 active torsions:
REMARK  status: ('A' for Active; 'I' for Inactive)
REMARK    1  A    between atoms: C_7  and  C_8 
REMARK    2  A    between atoms: C_8  and  O_9 
REMARK    3  A    between atoms: N_12  and  C_13 
REMARK    4  A    between atoms: C_13  and  C_14 
REMARK    5  A    between atoms: C_14  and  C_15 
REMARK    6  A    between atoms: C_15  and  C_16 
ROOT
HETATM    1  C   UNL     1      40.362 -15.300   2.434  1.00  0.00     0.199 A 
HETATM    2  C   UNL     1      41.633 -15.446   1.544  1.00  0.00     0.269 A 
HETATM    3  O   UNL     1      41.675 -15.337   0.324  1.00  0.00    -0.269 OA
HETATM    4  N   UNL     1      42.689 -15.845   2.382  1.00  0.00    -0.314 N 
HETATM    5  C   UNL     1      42.259 -15.941   3.715  1.00  0.00     0.047 A 
HETATM    6  C   UNL     1      40.899 -15.614   3.806  1.00  0.00     0.017 A 
HETATM    7  C   UNL     1      42.985 -16.313   4.833  1.00  0.00     0.030 A 
HETATM    8  C   UNL     1      42.324 -16.360   6.064  1.00  0.00     0.002 A 
HETATM    9  C   UNL     1      40.959 -16.045   6.159  1.00  0.00     0.001 A 
HETATM   10  C   UNL     1      40.236 -15.674   5.025  1.00  0.00     0.013 A 
ENDROOT
BRANCH   1  11
HETATM   11  C   UNL     1      39.753 -13.918   2.479  1.00  0.00     0.025 A 
HETATM   12  C   UNL     1      38.585 -13.506   1.832  1.00  0.00     0.016 A 
HETATM   13  C   UNL     1      37.629 -14.245   0.960  1.00  0.00     0.069 C 
HETATM   14  N   UNL     1      38.375 -12.186   2.126  1.00  0.00    -0.359 N 
HETATM   15  H   UNL     1      37.600 -11.630   1.789  1.00  0.00     0.166 HD
HETATM   16  C   UNL     1      39.347 -11.713   2.969  1.00  0.00     0.043 A 
HETATM   17  C   UNL     1      40.230 -12.766   3.209  1.00  0.00     0.003 A 
HETATM   18  C   UNL     1      39.498 -10.439   3.529  1.00  0.00     0.030 A 
HETATM   19  C   UNL     1      41.324 -12.515   4.068  1.00  0.00     0.014 A 
HETATM   20  C   UNL     1      41.491 -11.247   4.640  1.00  0.00     0.001 A 
HETATM   21  C   UNL     1      40.589 -10.224   4.373  1.00  0.00     0.002 A 
ENDBRANCH   1  11
BRANCH   1  22
HETATM   22  O   UNL     1      39.430 -16.310   2.043  1.00  0.00    -0.371 OA
HETATM   23  H   UNL     1      39.980 -17.106   1.926  1.00  0.00     0.212 HD
ENDBRANCH   1  22
BRANCH   4  24
HETATM   24  C   UNL     1      43.951 -16.334   1.876  1.00  0.00     0.133 C 
BRANCH  24  25
HETATM   25  C   UNL     1      43.870 -17.690   1.178  1.00  0.00     0.025 C 
BRANCH  25  26
HETATM   26  C   UNL     1      42.883 -18.650   1.847  1.00  0.00     0.040 C 
BRANCH  26  27
HETATM   27  C   UNL     1      43.592 -19.794   2.537  1.00  0.00    -0.058 A 
HETATM   28  C   UNL     1      43.720 -21.043   1.913  1.00  0.00     0.007 A 
HETATM   29  C   UNL     1      44.346 -22.103   2.570  1.00  0.00     0.001 A 
HETATM   30  C   UNL     1      44.859 -21.925   3.854  1.00  0.00     0.000 A 
HETATM   31  C   UNL     1      44.750 -20.684   4.480  1.00  0.00     0.001 A 
HETATM   32  C   UNL     1      44.121 -19.624   3.825  1.00  0.00     0.007 A 
ENDBRANCH  26  27
ENDBRANCH  25  26
ENDBRANCH  24  25
ENDBRANCH   4  24
TORSDOF 6
ENDMDL
MODEL 7
REMARK VINA RESULT:      -8.5      2.444      4.011
REMARK  6 active torsions:
REMARK  status: ('A' for Active; 'I' for Inactive)
REMARK    1  A    between atoms: C_7  and  C_8 
REMARK    2  A    between atoms: C_8  and  O_9 
REMARK    3  A    between atoms: N_12  and  C_13 
REMARK    4  A    between atoms: C_13  and  C_14 
REMARK    5  A    between atoms: C_14  and  C_15 
REMARK    6  A    between atoms: C_15  and  C_16 
ROOT
HETATM    1  C   UNL     1      40.495 -15.105   2.390  1.00  0.00     0.199 A 
HETATM    2  C   UNL     1      41.772 -15.365   1.536  1.00  0.00     0.269 A 
HETATM    3  O   UNL     1      41.861 -15.258   0.320  1.00  0.00    -0.269 OA
HETATM    4  N   UNL     1      42.762 -15.863   2.404  1.00  0.00    -0.314 N 
HETATM    5  C   UNL     1      42.285 -15.922   3.723  1.00  0.00     0.047 A 
HETATM    6  C   UNL     1      40.959 -15.470   3.776  1.00  0.00     0.017 A 
HETATM    7  C   UNL     1      42.940 -16.362   4.860  1.00  0.00     0.030 A 
HETATM    8  C   UNL     1      42.241 -16.351   6.070  1.00  0.00     0.002 A 
HETATM    9  C   UNL     1      40.909 -15.911   6.127  1.00  0.00     0.001 A 
HETATM   10  C   UNL     1      40.257 -15.472   4.974  1.00  0.00     0.013 A 
ENDROOT
BRANCH   1  11
HETATM   11  C   UNL     1      40.015 -13.672   2.424  1.00  0.00     0.025 A 
HETATM   12  C   UNL     1      40.653 -12.600   3.053  1.00  0.00     0.016 A 
HETATM   13  C   UNL     1      41.922 -12.528   3.830  1.00  0.00     0.069 C 
HETATM   14  N   UNL     1      39.901 -11.474   2.850  1.00  0.00    -0.359 N 
HETATM   15  H   UNL     1      40.128 -10.552   3.197  1.00  0.00     0.166 HD
HETATM   16  C   UNL     1      38.801 -11.755   2.083  1.00  0.00     0.043 A 
HETATM   17  C   UNL     1      38.834 -13.121   1.800  1.00  0.00     0.003 A 
HETATM   18  C   UNL     1      37.792 -10.899   1.624  1.00  0.00     0.030 A 
HETATM   19  C   UNL     1      37.791 -13.647   1.005  1.00  0.00     0.014 A 
HETATM   20  C   UNL     1      36.774 -12.806   0.535  1.00  0.00     0.001 A 
HETATM   21  C   UNL     1      36.776 -11.451   0.842  1.00  0.00     0.002 A 
ENDBRANCH   1  11
BRANCH   1  22
HETATM   22  O   UNL     1      39.486 -16.023   1.967  1.00  0.00    -0.371 OA
HETATM   23  H   UNL     1      39.850 -16.415   1.152  1.00  0.00     0.212 HD
ENDBRANCH   1  22
BRANCH   4  24
HETATM   24  C   UNL     1      43.988 -16.465   1.933  1.00  0.00     0.133 C 
BRANCH  24  25
HETATM   25  C   UNL     1      43.793 -17.752   1.134  1.00  0.00     0.025 C 
BRANCH  25  26
HETATM   26  C   UNL     1      42.826 -18.732   1.803  1.00  0.00     0.040 C 
BRANCH  26  27
HETATM   27  C   UNL     1      43.556 -19.858   2.497  1.00  0.00    -0.058 A 
HETATM   28  C   UNL     1      43.711 -21.107   1.878  1.00  0.00     0.007 A 
HETATM   29  C   UNL     1      44.358 -22.152   2.540  1.00  0.00     0.001 A 
HETATM   30  C   UNL     1      44.866 -21.959   3.823  1.00  0.00     0.000 A 
HETATM   31  C   UNL     1      44.731 -20.718   4.444  1.00  0.00     0.001 A 
HETATM   32  C   UNL     1      44.080 -19.674   3.785  1.00  0.00     0.007 A 
ENDBRANCH  26  27
ENDBRANCH  25  26
ENDBRANCH  24  25
ENDBRANCH   4  24
TORSDOF 6
ENDMDL
MODEL 8
REMARK VINA RESULT:      -8.3      2.639      5.406
REMARK  6 active torsions:
REMARK  status: ('A' for Active; 'I' for Inactive)
REMARK    1  A    between atoms: C_7  and  C_8 
REMARK    2  A    between atoms: C_8  and  O_9 
REMARK    3  A    between atoms: N_12  and  C_13 
REMARK    4  A    between atoms: C_13  and  C_14 
REMARK    5  A    between atoms: C_14  and  C_15 
REMARK    6  A    between atoms: C_15  and  C_16 
ROOT
HETATM    1  C   UNL     1      41.566 -12.857   3.850  1.00  0.00     0.199 A 
HETATM    2  C   UNL     1      42.810 -13.795   3.865  1.00  0.00     0.269 A 
HETATM    3  O   UNL     1      43.845 -13.610   4.493  1.00  0.00    -0.269 OA
HETATM    4  N   UNL     1      42.572 -14.822   2.934  1.00  0.00    -0.314 N 
HETATM    5  C   UNL     1      41.306 -14.677   2.344  1.00  0.00     0.047 A 
HETATM    6  C   UNL     1      40.662 -13.545   2.861  1.00  0.00     0.017 A 
HETATM    7  C   UNL     1      40.706 -15.468   1.379  1.00  0.00     0.030 A 
HETATM    8  C   UNL     1      39.437 -15.104   0.923  1.00  0.00     0.002 A 
HETATM    9  C   UNL     1      38.791 -13.963   1.428  1.00  0.00     0.001 A 
HETATM   10  C   UNL     1      39.406 -13.172   2.399  1.00  0.00     0.013 A 
ENDROOT
BRANCH   1  11
HETATM   11  C   UNL     1      40.820 -12.744   5.160  1.00  0.00     0.025 A 
HETATM   12  C   UNL     1      40.372 -13.804   5.951  1.00  0.00     0.016 A 
HETATM   13  C   UNL     1      40.484 -15.280   5.777  1.00  0.00     0.069 C 
HETATM   14  N   UNL     1      39.746 -13.283   7.052  1.00  0.00    -0.359 N 
HETATM   15  H   UNL     1      39.325 -13.826   7.794  1.00  0.00     0.166 HD
HETATM   16  C   UNL     1      39.788 -11.913   7.033  1.00  0.00     0.043 A 
HETATM   17  C   UNL     1      40.448 -11.538   5.863  1.00  0.00     0.003 A 
HETATM   18  C   UNL     1      39.294 -10.994   7.966  1.00  0.00     0.030 A 
HETATM   19  C   UNL     1      40.620 -10.155   5.627  1.00  0.00     0.014 A 
HETATM   20  C   UNL     1      40.134  -9.220   6.550  1.00  0.00     0.001 A 
HETATM   21  C   UNL     1      39.480  -9.636   7.704  1.00  0.00     0.002 A 
ENDBRANCH   1  11
BRANCH   1  22
HETATM   22  O   UNL     1      41.972 -11.592   3.327  1.00  0.00    -0.371 OA
HETATM   23  H   UNL     1      41.266 -10.982   3.607  1.00  0.00     0.212 HD
ENDBRANCH   1  22
BRANCH   4  24
HETATM   24  C   UNL     1      43.605 -15.725   2.480  1.00  0.00     0.133 C 
BRANCH  24  25
HETATM   25  C   UNL     1      43.472 -17.152   3.008  1.00  0.00     0.025 C 
BRANCH  25  26
HETATM   26  C   UNL     1      43.696 -18.214   1.929  1.00  0.00     0.040 C 
BRANCH  26  27
HETATM   27  C   UNL     1      43.980 -19.573   2.527  1.00  0.00    -0.058 A 
HETATM   28  C   UNL     1      44.440 -19.698   3.845  1.00  0.00     0.007 A 
HETATM   29  C   UNL     1      44.732 -20.954   4.379  1.00  0.00     0.001 A 
HETATM   30  C   UNL     1      44.558 -22.101   3.605  1.00  0.00     0.000 A 
HETATM   31  C   UNL     1      44.089 -21.991   2.297  1.00  0.00     0.001 A 
HETATM   32  C   UNL     1      43.801 -20.734   1.761  1.00  0.00     0.007 A 
ENDBRANCH  26  27
ENDBRANCH  25  26
ENDBRANCH  24  25
ENDBRANCH   4  24
TORSDOF 6
ENDMDL
MODEL 9
REMARK VINA RESULT:      -8.0      2.167      3.834
REMARK  6 active torsions:
REMARK  status: ('A' for Active; 'I' for Inactive)
REMARK    1  A    between atoms: C_7  and  C_8 
REMARK    2  A    between atoms: C_8  and  O_9 
REMARK    3  A    between atoms: N_12  and  C_13 
REMARK    4  A    between atoms: C_13  and  C_14 
REMARK    5  A    between atoms: C_14  and  C_15 
REMARK    6  A    between atoms: C_15  and  C_16 
ROOT
HETATM    1  C   UNL     1      42.602 -14.388   3.582  1.00  0.00     0.199 A 
HETATM    2  C   UNL     1      42.827 -15.020   4.989  1.00  0.00     0.269 A 
HETATM    3  O   UNL     1      43.162 -14.421   6.003  1.00  0.00    -0.269 OA
HETATM    4  N   UNL     1      42.697 -16.414   4.848  1.00  0.00    -0.314 N 
HETATM    5  C   UNL     1      42.379 -16.754   3.523  1.00  0.00     0.047 A 
HETATM    6  C   UNL     1      42.294 -15.597   2.737  1.00  0.00     0.017 A 
HETATM    7  C   UNL     1      42.182 -18.010   2.977  1.00  0.00     0.030 A 
HETATM    8  C   UNL     1      41.899 -18.099   1.612  1.00  0.00     0.002 A 
HETATM    9  C   UNL     1      41.824 -16.944   0.816  1.00  0.00     0.001 A 
HETATM   10  C   UNL     1      42.028 -15.683   1.377  1.00  0.00     0.013 A 
ENDROOT
BRANCH   1  11
HETATM   11  C   UNL     1      41.433 -13.437   3.476  1.00  0.00     0.025 A 
HETATM   12  C   UNL     1      40.323 -13.391   4.322  1.00  0.00     0.016 A 
HETATM   13  C   UNL     1      39.963 -14.202   5.520  1.00  0.00     0.069 C 
HETATM   14  N   UNL     1      39.494 -12.391   3.890  1.00  0.00    -0.359 N 
HETATM   15  H   UNL     1      38.615 -12.137   4.318  1.00  0.00     0.166 HD
HETATM   16  C   UNL     1      40.029 -11.751   2.802  1.00  0.00     0.043 A 
HETATM   17  C   UNL     1      41.240 -12.379   2.510  1.00  0.00     0.003 A 
HETATM   18  C   UNL     1      39.528 -10.668   2.070  1.00  0.00     0.030 A 
HETATM   19  C   UNL     1      41.986 -11.880   1.418  1.00  0.00     0.014 A 
HETATM   20  C   UNL     1      41.502 -10.796   0.674  1.00  0.00     0.001 A 
HETATM   21  C   UNL     1      40.289 -10.200   0.998  1.00  0.00     0.002 A 
ENDBRANCH   1  11
BRANCH   1  22
HETATM   22  O   UNL     1      43.836 -13.809   3.155  1.00  0.00    -0.371 OA
HETATM   23  H   UNL     1      44.446 -13.980   3.896  1.00  0.00     0.212 HD
ENDBRANCH   1  22
BRANCH   4  24
HETATM   24  C   UNL     1      43.098 -17.347   5.876  1.00  0.00     0.133 C 
BRANCH  24  25
HETATM   25  C   UNL     1      44.466 -17.986   5.650  1.00  0.00     0.025 C 
BRANCH  25  26
HETATM   26  C   UNL     1      44.543 -19.431   6.148  1.00  0.00     0.040 C 
BRANCH  26  27
HETATM   27  C   UNL     1      44.582 -20.419   5.005  1.00  0.00    -0.058 A 
HETATM   28  C   UNL     1      44.569 -19.981   3.673  1.00  0.00     0.007 A 
HETATM   29  C   UNL     1      44.571 -20.901   2.623  1.00  0.00     0.001 A 
HETATM   30  C   UNL     1      44.596 -22.269   2.891  1.00  0.00     0.000 A 
HETATM   31  C   UNL     1      44.623 -22.717   4.211  1.00  0.00     0.001 A 
HETATM   32  C   UNL     1      44.617 -21.798   5.262  1.00  0.00     0.007 A 
ENDBRANCH  26  27
ENDBRANCH  25  26
ENDBRANCH  24  25
ENDBRANCH   4  24
TORSDOF 6
ENDMDL
MODEL 10
REMARK VINA RESULT:      -8.0      3.857      5.707
REMARK  6 active torsions:
REMARK  status: ('A' for Active; 'I' for Inactive)
REMARK    1  A    between atoms: C_7  and  C_8 
REMARK    2  A    between atoms: C_8  and  O_9 
REMARK    3  A    between atoms: N_12  and  C_13 
REMARK    4  A    between atoms: C_13  and  C_14 
REMARK    5  A    between atoms: C_14  and  C_15 
REMARK    6  A    between atoms: C_15  and  C_16 
ROOT
HETATM    1  C   UNL     1      39.703 -13.829  -0.649  1.00  0.00     0.199 A 
HETATM    2  C   UNL     1      40.829 -14.899  -0.769  1.00  0.00     0.269 A 
HETATM    3  O   UNL     1      41.105 -15.547  -1.771  1.00  0.00    -0.269 OA
HETATM    4  N   UNL     1      41.384 -15.070   0.512  1.00  0.00    -0.314 N 
HETATM    5  C   UNL     1      40.772 -14.210   1.439  1.00  0.00     0.047 A 
HETATM    6  C   UNL     1      39.785 -13.443   0.805  1.00  0.00     0.017 A 
HETATM    7  C   UNL     1      41.022 -14.082   2.795  1.00  0.00     0.030 A 
HETATM    8  C   UNL     1      40.257 -13.167   3.523  1.00  0.00     0.002 A 
HETATM    9  C   UNL     1      39.259 -12.404   2.895  1.00  0.00     0.001 A 
HETATM   10  C   UNL     1      39.013 -12.544   1.529  1.00  0.00     0.013 A 
ENDROOT
BRANCH   1  11
HETATM   11  C   UNL     1      39.903 -12.577  -1.473  1.00  0.00     0.025 A 
HETATM   12  C   UNL     1      38.943 -11.949  -2.270  1.00  0.00     0.016 A 
HETATM   13  C   UNL     1      37.516 -12.280  -2.539  1.00  0.00     0.069 C 
HETATM   14  N   UNL     1      39.519 -10.848  -2.847  1.00  0.00    -0.359 N 
HETATM   15  H   UNL     1      39.052 -10.209  -3.474  1.00  0.00     0.166 HD
HETATM   16  C   UNL     1      40.820 -10.708  -2.438  1.00  0.00     0.043 A 
HETATM   17  C   UNL     1      41.099 -11.773  -1.581  1.00  0.00     0.003 A 
HETATM   18  C   UNL     1      41.755  -9.719  -2.764  1.00  0.00     0.030 A 
HETATM   19  C   UNL     1      42.395 -11.836  -1.021  1.00  0.00     0.014 A 
HETATM   20  C   UNL     1      43.343 -10.854  -1.334  1.00  0.00     0.001 A 
HETATM   21  C   UNL     1      43.025  -9.810  -2.194  1.00  0.00     0.002 A 
ENDBRANCH   1  11
BRANCH   1  22
HETATM   22  O   UNL     1      38.453 -14.472  -0.903  1.00  0.00    -0.371 OA
HETATM   23  H   UNL     1      38.216 -14.180  -1.802  1.00  0.00     0.212 HD
ENDBRANCH   1  22
BRANCH   4  24
HETATM   24  C   UNL     1      42.267 -16.163   0.846  1.00  0.00     0.133 C 
BRANCH  24  25
HETATM   25  C   UNL     1      41.572 -17.365   1.483  1.00  0.00     0.025 C 
BRANCH  25  26
HETATM   26  C   UNL     1      42.064 -17.660   2.902  1.00  0.00     0.040 C 
BRANCH  26  27
HETATM   27  C   UNL     1      42.986 -18.857   2.940  1.00  0.00    -0.058 A 
HETATM   28  C   UNL     1      42.995 -19.793   1.896  1.00  0.00     0.007 A 
HETATM   29  C   UNL     1      43.825 -20.914   1.954  1.00  0.00     0.001 A 
HETATM   30  C   UNL     1      44.662 -21.108   3.052  1.00  0.00     0.000 A 
HETATM   31  C   UNL     1      44.672 -20.177   4.090  1.00  0.00     0.001 A 
HETATM   32  C   UNL     1      43.839 -19.059   4.034  1.00  0.00     0.007 A 
ENDBRANCH  26  27
ENDBRANCH  25  26
ENDBRANCH  24  25
ENDBRANCH   4  24
TORSDOF 6
ENDMDL
