MODEL 1
REMARK VINA RESULT:      -8.9      0.000      0.000
REMARK  5 active torsions:
REMARK  status: ('A' for Active; 'I' for Inactive)
REMARK    1  A    between atoms: C_2  and  C_3 
REMARK    2  A    between atoms: C_7  and  N_8 
REMARK    3  A    between atoms: C_13  and  N_14 
REMARK       I    between atoms: N_14  and  C_15 
REMARK    4  A    between atoms: C_15  and  C_16 
REMARK       I    between atoms: C_16  and  N_17 
REMARK    5  A    between atoms: N_17  and  C_18 
ROOT
HETATM    1  N   UNL     1      43.264 -15.830   5.438  1.00  0.00    -0.045 N 
HETATM    2  N   UNL     1      43.391 -16.985   4.723  1.00  0.00    -0.156 NA
HETATM    3  C   UNL     1      44.184 -17.754   5.477  1.00  0.00     0.055 A 
HETATM    4  C   UNL     1      44.571 -19.115   5.027  1.00  0.00     0.072 C 
HETATM    5  C   UNL     1      44.561 -17.107   6.675  1.00  0.00     0.079 A 
HETATM    6  C   UNL     1      43.963 -15.868   6.635  1.00  0.00     0.152 A 
ENDROOT
BRANCH   6   7
HETATM    7  N   UNL     1      44.031 -14.838   7.570  1.00  0.00    -0.303 N 
HETATM    8  C   UNL     1      44.926 -13.725   7.475  1.00  0.00     0.315 C 
HETATM    9  O   UNL     1      45.759 -13.608   6.591  1.00  0.00    -0.262 OA
HETATM   10  H   UNL     1      43.402 -14.876   8.381  1.00  0.00     0.171 HD
BRANCH   8  11
HETATM   11  C   UNL     1      44.775 -12.657   8.574  1.00  0.00     0.310 C 
HETATM   12  N   UNL     1      43.589 -11.956   8.511  1.00  0.00    -0.348 N 
HETATM   13  H   UNL     1      42.981 -12.141   7.716  1.00  0.00     0.163 HD
HETATM   14  O   UNL     1      45.671 -12.522   9.395  1.00  0.00    -0.262 OA
BRANCH  12  15
HETATM   15  C   UNL     1      43.212 -10.895   9.438  1.00  0.00     0.085 C 
HETATM   16  C   UNL     1      42.846 -11.522  10.792  1.00  0.00     0.034 C 
HETATM   17  C   UNL     1      42.326 -10.511  11.837  1.00  0.00    -0.045 C 
HETATM   18  C   UNL     1      43.471  -9.609  12.334  1.00  0.00     0.015 C 
HETATM   19  C   UNL     1      41.774 -11.288  13.048  1.00  0.00     0.015 C 
HETATM   20  C   UNL     1      41.187  -9.664  11.225  1.00  0.00     0.013 C 
HETATM   21  C   UNL     1      41.557  -9.016   9.883  1.00  0.00    -0.016 C 
HETATM   22  C   UNL     1      40.363  -8.249   9.315  1.00  0.00     0.010 C 
HETATM   23  C   UNL     1      42.047 -10.070   8.880  1.00  0.00     0.029 C 
ENDBRANCH  12  15
ENDBRANCH   8  11
ENDBRANCH   6   7
BRANCH   1  24
HETATM   24  C   UNL     1      42.483 -14.778   4.942  1.00  0.00     0.732 A 
HETATM   25  N   UNL     1      42.953 -14.321   3.749  1.00  0.00    -0.152 N 
HETATM   26  C   UNL     1      42.332 -13.316   3.080  1.00  0.00     0.268 A 
HETATM   27  H   UNL     1      43.777 -14.743   3.331  1.00  0.00     0.188 HD
HETATM   28  C   UNL     1      41.128 -12.752   3.754  1.00  0.00     0.035 A 
HETATM   29  O   UNL     1      42.739 -12.911   1.999  1.00  0.00    -0.267 OA
HETATM   30  C   UNL     1      40.768 -13.285   4.945  1.00  0.00     0.061 A 
HETATM   31  N   UNL     1      41.444 -14.324   5.564  1.00  0.00    -0.067 NA
HETATM   32  C   UNL     1      39.562 -12.815   5.719  1.00  0.00     0.072 C 
BRANCH  28  33
HETATM   33  C   UNL     1      40.463 -11.604   3.039  1.00  0.00     0.042 C 
HETATM   34  C   UNL     1      39.326 -12.073   2.141  1.00  0.00     0.010 C 
ENDBRANCH  28  33
ENDBRANCH   1  24
TORSDOF 5
ENDMDL
MODEL 2
REMARK VINA RESULT:      -8.8      2.582      7.374
REMARK  5 active torsions:
REMARK  status: ('A' for Active; 'I' for Inactive)
REMARK    1  A    between atoms: C_2  and  C_3 
REMARK    2  A    between atoms: C_7  and  N_8 
REMARK    3  A    between atoms: C_13  and  N_14 
REMARK       I    between atoms: N_14  and  C_15 
REMARK    4  A    between atoms: C_15  and  C_16 
REMARK       I    between atoms: C_16  and  N_17 
REMARK    5  A    between atoms: N_17  and  C_18 
ROOT
HETATM    1  N   UNL     1      42.449 -10.221  10.206  1.00  0.00    -0.045 N 
HETATM    2  N   UNL     1      42.366  -9.480  11.348  1.00  0.00    -0.156 NA
HETATM    3  C   UNL     1      43.274 -10.028  12.163  1.00  0.00     0.055 A 
HETATM    4  C   UNL     1      43.482  -9.497  13.533  1.00  0.00     0.072 C 
HETATM    5  C   UNL     1      43.946 -11.110  11.550  1.00  0.00     0.079 A 
HETATM    6  C   UNL     1      43.402 -11.224  10.291  1.00  0.00     0.152 A 
ENDROOT
BRANCH   6   7
HETATM    7  N   UNL     1      43.708 -12.145   9.291  1.00  0.00    -0.303 N 
HETATM    8  C   UNL     1      44.953 -12.182   8.588  1.00  0.00     0.315 C 
HETATM    9  O   UNL     1      45.845 -11.366   8.760  1.00  0.00    -0.262 OA
HETATM   10  H   UNL     1      42.997 -12.842   9.040  1.00  0.00     0.171 HD
BRANCH   8  11
HETATM   11  C   UNL     1      45.112 -13.336   7.582  1.00  0.00     0.310 C 
HETATM   12  N   UNL     1      44.057 -14.225   7.581  1.00  0.00    -0.348 N 
HETATM   13  H   UNL     1      43.335 -14.089   8.285  1.00  0.00     0.163 HD
HETATM   14  O   UNL     1      46.112 -13.375   6.878  1.00  0.00    -0.262 OA
BRANCH  12  15
HETATM   15  C   UNL     1      43.972 -15.398   6.719  1.00  0.00     0.085 C 
HETATM   16  C   UNL     1      42.699 -15.300   5.864  1.00  0.00     0.034 C 
HETATM   17  C   UNL     1      42.435 -16.536   4.978  1.00  0.00    -0.045 C 
HETATM   18  C   UNL     1      43.450 -16.600   3.822  1.00  0.00     0.015 C 
HETATM   19  C   UNL     1      41.026 -16.416   4.366  1.00  0.00     0.015 C 
HETATM   20  C   UNL     1      42.499 -17.819   5.837  1.00  0.00     0.013 C 
HETATM   21  C   UNL     1      43.781 -17.934   6.674  1.00  0.00    -0.016 C 
HETATM   22  C   UNL     1      43.741 -19.194   7.539  1.00  0.00     0.010 C 
HETATM   23  C   UNL     1      43.980 -16.687   7.548  1.00  0.00     0.029 C 
ENDBRANCH  12  15
ENDBRANCH   8  11
ENDBRANCH   6   7
BRANCH   1  24
HETATM   24  C   UNL     1      41.627  -9.921   9.111  1.00  0.00     0.732 A 
HETATM   25  N   UNL     1      40.310 -10.108   9.404  1.00  0.00    -0.152 N 
HETATM   26  C   UNL     1      39.338  -9.856   8.492  1.00  0.00     0.268 A 
HETATM   27  H   UNL     1      40.035 -10.429  10.327  1.00  0.00     0.188 HD
HETATM   28  C   UNL     1      39.820  -9.383   7.162  1.00  0.00     0.035 A 
HETATM   29  O   UNL     1      38.152 -10.005   8.753  1.00  0.00    -0.267 OA
HETATM   30  C   UNL     1      41.155  -9.248   6.991  1.00  0.00     0.061 A 
HETATM   31  N   UNL     1      42.093  -9.511   7.976  1.00  0.00    -0.067 NA
HETATM   32  C   UNL     1      41.769  -8.763   5.701  1.00  0.00     0.072 C 
BRANCH  28  33
HETATM   33  C   UNL     1      38.747  -9.147   6.130  1.00  0.00     0.042 C 
HETATM   34  C   UNL     1      38.221  -7.718   6.172  1.00  0.00     0.010 C 
ENDBRANCH  28  33
ENDBRANCH   1  24
TORSDOF 5
ENDMDL
MODEL 3
REMARK VINA RESULT:      -8.7      3.960      9.233
REMARK  5 active torsions:
REMARK  status: ('A' for Active; 'I' for Inactive)
REMARK    1  A    between atoms: C_2  and  C_3 
REMARK    2  A    between atoms: C_7  and  N_8 
REMARK    3  A    between atoms: C_13  and  N_14 
REMARK       I    between atoms: N_14  and  C_15 
REMARK    4  A    between atoms: C_15  and  C_16 
REMARK       I    between atoms: C_16  and  N_17 
REMARK    5  A    between atoms: N_17  and  C_18 
ROOT
HETATM    1  N   UNL     1      43.971 -16.153   5.895  1.00  0.00    -0.045 N 
HETATM    2  N   UNL     1      44.571 -15.601   6.988  1.00  0.00    -0.156 NA
HETATM    3  C   UNL     1      44.346 -14.289   6.862  1.00  0.00     0.055 A 
HETATM    4  C   UNL     1      44.859 -13.330   7.872  1.00  0.00     0.072 C 
HETATM    5  C   UNL     1      43.597 -13.994   5.700  1.00  0.00     0.079 A 
HETATM    6  C   UNL     1      43.366 -15.203   5.086  1.00  0.00     0.152 A 
ENDROOT
BRANCH   6   7
HETATM    7  N   UNL     1      42.684 -15.460   3.899  1.00  0.00    -0.303 N 
HETATM    8  C   UNL     1      41.297 -15.804   3.828  1.00  0.00     0.315 C 
HETATM    9  O   UNL     1      40.595 -15.965   4.813  1.00  0.00    -0.262 OA
HETATM   10  H   UNL     1      43.206 -15.400   3.017  1.00  0.00     0.171 HD
BRANCH   8  11
HETATM   11  C   UNL     1      40.725 -15.962   2.407  1.00  0.00     0.310 C 
HETATM   12  N   UNL     1      40.926 -14.862   1.599  1.00  0.00    -0.348 N 
HETATM   13  H   UNL     1      41.341 -14.039   2.031  1.00  0.00     0.163 HD
HETATM   14  O   UNL     1      40.170 -17.009   2.106  1.00  0.00    -0.262 OA
BRANCH  12  15
HETATM   15  C   UNL     1      40.478 -14.767   0.215  1.00  0.00     0.085 C 
HETATM   16  C   UNL     1      41.631 -14.232  -0.648  1.00  0.00     0.034 C 
HETATM   17  C   UNL     1      41.255 -13.984  -2.124  1.00  0.00    -0.045 C 
HETATM   18  C   UNL     1      41.053 -15.321  -2.863  1.00  0.00     0.015 C 
HETATM   19  C   UNL     1      42.411 -13.233  -2.812  1.00  0.00     0.015 C 
HETATM   20  C   UNL     1      39.978 -13.117  -2.201  1.00  0.00     0.013 C 
HETATM   21  C   UNL     1      38.815 -13.661  -1.359  1.00  0.00    -0.016 C 
HETATM   22  C   UNL     1      37.614 -12.718  -1.439  1.00  0.00     0.010 C 
HETATM   23  C   UNL     1      39.242 -13.868   0.101  1.00  0.00     0.029 C 
ENDBRANCH  12  15
ENDBRANCH   8  11
ENDBRANCH   6   7
BRANCH   1  24
HETATM   24  C   UNL     1      44.006 -17.540   5.698  1.00  0.00     0.732 A 
HETATM   25  N   UNL     1      43.872 -18.219   6.871  1.00  0.00    -0.152 N 
HETATM   26  C   UNL     1      43.858 -19.575   6.908  1.00  0.00     0.268 A 
HETATM   27  H   UNL     1      43.764 -17.710   7.743  1.00  0.00     0.188 HD
HETATM   28  C   UNL     1      44.016 -20.250   5.587  1.00  0.00     0.035 A 
HETATM   29  O   UNL     1      43.720 -20.192   7.956  1.00  0.00    -0.267 OA
HETATM   30  C   UNL     1      44.153 -19.463   4.494  1.00  0.00     0.061 A 
HETATM   31  N   UNL     1      44.144 -18.079   4.530  1.00  0.00    -0.067 NA
HETATM   32  C   UNL     1      44.303 -20.021   3.101  1.00  0.00     0.072 C 
BRANCH  28  33
HETATM   33  C   UNL     1      44.048 -21.755   5.628  1.00  0.00     0.042 C 
HETATM   34  C   UNL     1      45.394 -22.309   5.178  1.00  0.00     0.010 C 
ENDBRANCH  28  33
ENDBRANCH   1  24
TORSDOF 5
ENDMDL
MODEL 4
REMARK VINA RESULT:      -8.5      2.784      8.898
REMARK  5 active torsions:
REMARK  status: ('A' for Active; 'I' for Inactive)
REMARK    1  A    between atoms: C_2  and  C_3 
REMARK    2  A    between atoms: C_7  and  N_8 
REMARK    3  A    between atoms: C_13  and  N_14 
REMARK       I    between atoms: N_14  and  C_15 
REMARK    4  A    between atoms: C_15  and  C_16 
REMARK       I    between atoms: C_16  and  N_17 
REMARK    5  A    between atoms: N_17  and  C_18 
ROOT
HETATM    1  N   UNL     1      40.626 -10.097   7.589  1.00  0.00    -0.045 N 
HETATM    2  N   UNL     1      39.654  -9.141   7.610  1.00  0.00    -0.156 NA
HETATM    3  C   UNL     1      39.183  -9.121   6.358  1.00  0.00     0.055 A 
HETATM    4  C   UNL     1      38.098  -8.186   5.970  1.00  0.00     0.072 C 
HETATM    5  C   UNL     1      39.839 -10.064   5.534  1.00  0.00     0.079 A 
HETATM    6  C   UNL     1      40.768 -10.682   6.340  1.00  0.00     0.152 A 
ENDROOT
BRANCH   6   7
HETATM    7  N   UNL     1      41.682 -11.679   6.007  1.00  0.00    -0.303 N 
HETATM    8  C   UNL     1      41.347 -13.064   5.874  1.00  0.00     0.315 C 
HETATM    9  O   UNL     1      40.233 -13.509   6.102  1.00  0.00    -0.262 OA
HETATM   10  H   UNL     1      42.659 -11.408   5.847  1.00  0.00     0.171 HD
BRANCH   8  11
HETATM   11  C   UNL     1      42.493 -13.983   5.416  1.00  0.00     0.310 C 
HETATM   12  N   UNL     1      42.071 -15.096   4.719  1.00  0.00    -0.348 N 
HETATM   13  H   UNL     1      41.067 -15.248   4.651  1.00  0.00     0.163 HD
HETATM   14  O   UNL     1      43.645 -13.669   5.679  1.00  0.00    -0.262 OA
BRANCH  12  15
HETATM   15  C   UNL     1      42.964 -16.116   4.180  1.00  0.00     0.085 C 
HETATM   16  C   UNL     1      42.254 -16.843   3.028  1.00  0.00     0.034 C 
HETATM   17  C   UNL     1      43.055 -18.022   2.435  1.00  0.00    -0.045 C 
HETATM   18  C   UNL     1      44.265 -17.507   1.635  1.00  0.00     0.015 C 
HETATM   19  C   UNL     1      42.146 -18.805   1.468  1.00  0.00     0.015 C 
HETATM   20  C   UNL     1      43.510 -18.969   3.570  1.00  0.00     0.013 C 
HETATM   21  C   UNL     1      44.242 -18.249   4.712  1.00  0.00    -0.016 C 
HETATM   22  C   UNL     1      44.604 -19.239   5.819  1.00  0.00     0.010 C 
HETATM   23  C   UNL     1      43.390 -17.101   5.274  1.00  0.00     0.029 C 
ENDBRANCH  12  15
ENDBRANCH   8  11
ENDBRANCH   6   7
BRANCH   1  24
HETATM   24  C   UNL     1      41.345 -10.394   8.755  1.00  0.00     0.732 A 
HETATM   25  N   UNL     1      40.518 -10.692   9.794  1.00  0.00    -0.152 N 
HETATM   26  C   UNL     1      41.007 -11.031  11.014  1.00  0.00     0.268 A 
HETATM   27  H   UNL     1      39.511 -10.680   9.663  1.00  0.00     0.188 HD
HETATM   28  C   UNL     1      42.494 -11.032  11.127  1.00  0.00     0.035 A 
HETATM   29  O   UNL     1      40.270 -11.317  11.949  1.00  0.00    -0.267 OA
HETATM   30  C   UNL     1      43.206 -10.706  10.023  1.00  0.00     0.061 A 
HETATM   31  N   UNL     1      42.638 -10.383   8.802  1.00  0.00    -0.067 NA
HETATM   32  C   UNL     1      44.714 -10.686  10.001  1.00  0.00     0.072 C 
BRANCH  28  33
HETATM   33  C   UNL     1      43.040 -11.361  12.492  1.00  0.00     0.042 C 
HETATM   34  C   UNL     1      43.245 -10.113  13.340  1.00  0.00     0.010 C 
ENDBRANCH  28  33
ENDBRANCH   1  24
TORSDOF 5
ENDMDL
MODEL 5
REMARK VINA RESULT:      -8.4      2.631      8.520
REMARK  5 active torsions:
REMARK  status: ('A' for Active; 'I' for Inactive)
REMARK    1  A    between atoms: C_2  and  C_3 
REMARK    2  A    between atoms: C_7  and  N_8 
REMARK    3  A    between atoms: C_13  and  N_14 
REMARK       I    between atoms: N_14  and  C_15 
REMARK    4  A    between atoms: C_15  and  C_16 
REMARK       I    between atoms: C_16  and  N_17 
REMARK    5  A    between atoms: N_17  and  C_18 
ROOT
HETATM    1  N   UNL     1      40.667 -10.337   7.301  1.00  0.00    -0.045 N 
HETATM    2  N   UNL     1      39.866  -9.237   7.221  1.00  0.00    -0.156 NA
HETATM    3  C   UNL     1      39.315  -9.316   6.006  1.00  0.00     0.055 A 
HETATM    4  C   UNL     1      38.370  -8.274   5.531  1.00  0.00     0.072 C 
HETATM    5  C   UNL     1      39.749 -10.465   5.306  1.00  0.00     0.079 A 
HETATM    6  C   UNL     1      40.621 -11.111   6.151  1.00  0.00     0.152 A 
ENDROOT
BRANCH   6   7
HETATM    7  N   UNL     1      41.335 -12.287   5.932  1.00  0.00    -0.303 N 
HETATM    8  C   UNL     1      40.730 -13.566   5.722  1.00  0.00     0.315 C 
HETATM    9  O   UNL     1      39.525 -13.755   5.776  1.00  0.00    -0.262 OA
HETATM   10  H   UNL     1      42.360 -12.237   5.920  1.00  0.00     0.171 HD
BRANCH   8  11
HETATM   11  C   UNL     1      41.704 -14.718   5.413  1.00  0.00     0.310 C 
HETATM   12  N   UNL     1      41.166 -15.972   5.618  1.00  0.00    -0.348 N 
HETATM   13  H   UNL     1      40.235 -16.018   6.026  1.00  0.00     0.163 HD
HETATM   14  O   UNL     1      42.828 -14.452   5.015  1.00  0.00    -0.262 OA
BRANCH  12  15
HETATM   15  C   UNL     1      41.887 -17.221   5.397  1.00  0.00     0.085 C 
HETATM   16  C   UNL     1      43.232 -17.159   6.136  1.00  0.00     0.034 C 
HETATM   17  C   UNL     1      44.142 -18.383   5.898  1.00  0.00    -0.045 C 
HETATM   18  C   UNL     1      43.576 -19.626   6.610  1.00  0.00     0.015 C 
HETATM   19  C   UNL     1      45.534 -18.091   6.489  1.00  0.00     0.015 C 
HETATM   20  C   UNL     1      44.287 -18.640   4.380  1.00  0.00     0.013 C 
HETATM   21  C   UNL     1      42.943 -18.727   3.641  1.00  0.00    -0.016 C 
HETATM   22  C   UNL     1      43.173 -18.919   2.142  1.00  0.00     0.010 C 
HETATM   23  C   UNL     1      42.093 -17.475   3.900  1.00  0.00     0.029 C 
ENDBRANCH  12  15
ENDBRANCH   8  11
ENDBRANCH   6   7
BRANCH   1  24
HETATM   24  C   UNL     1      41.412 -10.583   8.462  1.00  0.00     0.732 A 
HETATM   25  N   UNL     1      40.608 -10.786   9.543  1.00  0.00    -0.152 N 
HETATM   26  C   UNL     1      41.123 -11.062  10.767  1.00  0.00     0.268 A 
HETATM   27  H   UNL     1      39.599 -10.749   9.439  1.00  0.00     0.188 HD
HETATM   28  C   UNL     1      42.612 -11.105  10.837  1.00  0.00     0.035 A 
HETATM   29  O   UNL     1      40.406 -11.263  11.739  1.00  0.00    -0.267 OA
HETATM   30  C   UNL     1      43.300 -10.874   9.695  1.00  0.00     0.061 A 
HETATM   31  N   UNL     1      42.705 -10.612   8.472  1.00  0.00    -0.067 NA
HETATM   32  C   UNL     1      44.807 -10.906   9.629  1.00  0.00     0.072 C 
BRANCH  28  33
HETATM   33  C   UNL     1      43.189 -11.364  12.205  1.00  0.00     0.042 C 
HETATM   34  C   UNL     1      43.384 -10.077  12.994  1.00  0.00     0.010 C 
ENDBRANCH  28  33
ENDBRANCH   1  24
TORSDOF 5
ENDMDL
MODEL 6
REMARK VINA RESULT:      -8.3      3.867      9.183
REMARK  5 active torsions:
REMARK  status: ('A' for Active; 'I' for Inactive)
REMARK    1  A    between atoms: C_2  and  C_3 
REMARK    2  A    between atoms: C_7  and  N_8 
REMARK    3  A    between atoms: C_13  and  N_14 
REMARK       I    between atoms: N_14  and  C_15 
REMARK    4  A    between atoms: C_15  and  C_16 
REMARK       I    between atoms: C_16  and  N_17 
REMARK    5  A    between atoms: N_17  and  C_18 
ROOT
HETATM    1  N   UNL     1      43.646 -15.592   5.006  1.00  0.00    -0.045 N 
HETATM    2  N   UNL     1      44.278 -15.446   6.206  1.00  0.00    -0.156 NA
HETATM    3  C   UNL     1      43.913 -14.229   6.624  1.00  0.00     0.055 A 
HETATM    4  C   UNL     1      44.412 -13.688   7.914  1.00  0.00     0.072 C 
HETATM    5  C   UNL     1      43.044 -13.595   5.706  1.00  0.00     0.079 A 
HETATM    6  C   UNL     1      42.884 -14.484   4.668  1.00  0.00     0.152 A 
ENDROOT
BRANCH   6   7
HETATM    7  N   UNL     1      42.135 -14.336   3.503  1.00  0.00    -0.303 N 
HETATM    8  C   UNL     1      40.709 -14.446   3.446  1.00  0.00     0.315 C 
HETATM    9  O   UNL     1      40.021 -14.743   4.410  1.00  0.00    -0.262 OA
HETATM   10  H   UNL     1      42.633 -14.135   2.628  1.00  0.00     0.171 HD
BRANCH   8  11
HETATM   11  C   UNL     1      40.076 -14.161   2.072  1.00  0.00     0.310 C 
HETATM   12  N   UNL     1      40.990 -13.810   1.099  1.00  0.00    -0.348 N 
HETATM   13  H   UNL     1      41.957 -13.690   1.392  1.00  0.00     0.163 HD
HETATM   14  O   UNL     1      38.866 -14.272   1.944  1.00  0.00    -0.262 OA
BRANCH  12  15
HETATM   15  C   UNL     1      40.640 -13.493  -0.281  1.00  0.00     0.085 C 
HETATM   16  C   UNL     1      40.476 -14.802  -1.068  1.00  0.00     0.034 C 
HETATM   17  C   UNL     1      40.205 -14.604  -2.575  1.00  0.00    -0.045 C 
HETATM   18  C   UNL     1      38.785 -14.052  -2.802  1.00  0.00     0.015 C 
HETATM   19  C   UNL     1      40.301 -15.970  -3.281  1.00  0.00     0.015 C 
HETATM   20  C   UNL     1      41.266 -13.654  -3.177  1.00  0.00     0.013 C 
HETATM   21  C   UNL     1      41.415 -12.334  -2.406  1.00  0.00    -0.016 C 
HETATM   22  C   UNL     1      42.521 -11.480  -3.025  1.00  0.00     0.010 C 
HETATM   23  C   UNL     1      41.703 -12.594  -0.921  1.00  0.00     0.029 C 
ENDBRANCH  12  15
ENDBRANCH   8  11
ENDBRANCH   6   7
BRANCH   1  24
HETATM   24  C   UNL     1      43.801 -16.774   4.269  1.00  0.00     0.732 A 
HETATM   25  N   UNL     1      44.089 -17.835   5.073  1.00  0.00    -0.152 N 
HETATM   26  C   UNL     1      44.259 -19.082   4.567  1.00  0.00     0.268 A 
HETATM   27  H   UNL     1      44.165 -17.706   6.078  1.00  0.00     0.188 HD
HETATM   28  C   UNL     1      44.127 -19.193   3.086  1.00  0.00     0.035 A 
HETATM   29  O   UNL     1      44.500 -20.044   5.285  1.00  0.00    -0.267 OA
HETATM   30  C   UNL     1      43.851 -18.062   2.396  1.00  0.00     0.061 A 
HETATM   31  N   UNL     1      43.675 -16.819   2.982  1.00  0.00    -0.067 NA
HETATM   32  C   UNL     1      43.676 -18.041   0.897  1.00  0.00     0.072 C 
BRANCH  28  33
HETATM   33  C   UNL     1      44.362 -20.567   2.514  1.00  0.00     0.042 C 
HETATM   34  C   UNL     1      43.092 -21.164   1.924  1.00  0.00     0.010 C 
ENDBRANCH  28  33
ENDBRANCH   1  24
TORSDOF 5
ENDMDL
MODEL 7
REMARK VINA RESULT:      -8.3      4.134      8.837
REMARK  5 active torsions:
REMARK  status: ('A' for Active; 'I' for Inactive)
REMARK    1  A    between atoms: C_2  and  C_3 
REMARK    2  A    between atoms: C_7  and  N_8 
REMARK    3  A    between atoms: C_13  and  N_14 
REMARK       I    between atoms: N_14  and  C_15 
REMARK    4  A    between atoms: C_15  and  C_16 
REMARK       I    between atoms: C_16  and  N_17 
REMARK    5  A    between atoms: N_17  and  C_18 
ROOT
HETATM    1  N   UNL     1      39.062 -12.954   1.185  1.00  0.00    -0.045 N 
HETATM    2  N   UNL     1      38.646 -11.886   0.447  1.00  0.00    -0.156 NA
HETATM    3  C   UNL     1      38.599 -12.349  -0.807  1.00  0.00     0.055 A 
HETATM    4  C   UNL     1      38.192 -11.466  -1.929  1.00  0.00     0.072 C 
HETATM    5  C   UNL     1      38.972 -13.711  -0.878  1.00  0.00     0.079 A 
HETATM    6  C   UNL     1      39.270 -14.085   0.412  1.00  0.00     0.152 A 
ENDROOT
BRANCH   6   7
HETATM    7  N   UNL     1      39.703 -15.324   0.881  1.00  0.00    -0.303 N 
HETATM    8  C   UNL     1      41.052 -15.792   0.783  1.00  0.00     0.315 C 
HETATM    9  O   UNL     1      41.938 -15.169   0.220  1.00  0.00    -0.262 OA
HETATM   10  H   UNL     1      39.015 -15.942   1.325  1.00  0.00     0.171 HD
BRANCH   8  11
HETATM   11  C   UNL     1      41.330 -17.155   1.442  1.00  0.00     0.310 C 
HETATM   12  N   UNL     1      42.301 -17.112   2.422  1.00  0.00    -0.348 N 
HETATM   13  H   UNL     1      42.790 -16.230   2.552  1.00  0.00     0.163 HD
HETATM   14  O   UNL     1      40.692 -18.131   1.076  1.00  0.00    -0.262 OA
BRANCH  12  15
HETATM   15  C   UNL     1      42.742 -18.270   3.192  1.00  0.00     0.085 C 
HETATM   16  C   UNL     1      43.709 -17.800   4.289  1.00  0.00     0.034 C 
HETATM   17  C   UNL     1      44.333 -18.946   5.114  1.00  0.00    -0.045 C 
HETATM   18  C   UNL     1      43.279 -19.588   6.034  1.00  0.00     0.015 C 
HETATM   19  C   UNL     1      45.449 -18.366   6.005  1.00  0.00     0.015 C 
HETATM   20  C   UNL     1      44.948 -20.000   4.165  1.00  0.00     0.013 C 
HETATM   21  C   UNL     1      43.977 -20.490   3.081  1.00  0.00    -0.016 C 
HETATM   22  C   UNL     1      44.676 -21.480   2.149  1.00  0.00     0.010 C 
HETATM   23  C   UNL     1      43.405 -19.310   2.282  1.00  0.00     0.029 C 
ENDBRANCH  12  15
ENDBRANCH   8  11
ENDBRANCH   6   7
BRANCH   1  24
HETATM   24  C   UNL     1      39.222 -12.830   2.572  1.00  0.00     0.732 A 
HETATM   25  N   UNL     1      38.647 -11.691   3.046  1.00  0.00    -0.152 N 
HETATM   26  C   UNL     1      38.667 -11.384   4.368  1.00  0.00     0.268 A 
HETATM   27  H   UNL     1      38.175 -11.056   2.409  1.00  0.00     0.188 HD
HETATM   28  C   UNL     1      39.373 -12.366   5.240  1.00  0.00     0.035 A 
HETATM   29  O   UNL     1      38.136 -10.370   4.804  1.00  0.00    -0.267 OA
HETATM   30  C   UNL     1      39.915 -13.454   4.646  1.00  0.00     0.061 A 
HETATM   31  N   UNL     1      39.843 -13.712   3.287  1.00  0.00    -0.067 NA
HETATM   32  C   UNL     1      40.640 -14.529   5.417  1.00  0.00     0.072 C 
BRANCH  28  33
HETATM   33  C   UNL     1      39.439 -12.005   6.701  1.00  0.00     0.042 C 
HETATM   34  C   UNL     1      40.684 -11.193   7.032  1.00  0.00     0.010 C 
ENDBRANCH  28  33
ENDBRANCH   1  24
TORSDOF 5
ENDMDL
MODEL 8
REMARK VINA RESULT:      -8.1      2.487      4.923
REMARK  5 active torsions:
REMARK  status: ('A' for Active; 'I' for Inactive)
REMARK    1  A    between atoms: C_2  and  C_3 
REMARK    2  A    between atoms: C_7  and  N_8 
REMARK    3  A    between atoms: C_13  and  N_14 
REMARK       I    between atoms: N_14  and  C_15 
REMARK    4  A    between atoms: C_15  and  C_16 
REMARK       I    between atoms: C_16  and  N_17 
REMARK    5  A    between atoms: N_17  and  C_18 
ROOT
HETATM    1  N   UNL     1      40.674 -14.252   3.906  1.00  0.00    -0.045 N 
HETATM    2  N   UNL     1      39.899 -14.821   2.939  1.00  0.00    -0.156 NA
HETATM    3  C   UNL     1      39.234 -13.793   2.402  1.00  0.00     0.055 A 
HETATM    4  C   UNL     1      38.263 -14.009   1.300  1.00  0.00     0.072 C 
HETATM    5  C   UNL     1      39.582 -12.565   3.011  1.00  0.00     0.079 A 
HETATM    6  C   UNL     1      40.508 -12.878   3.979  1.00  0.00     0.152 A 
ENDROOT
BRANCH   6   7
HETATM    7  N   UNL     1      41.156 -12.026   4.871  1.00  0.00    -0.303 N 
HETATM    8  C   UNL     1      40.526 -11.423   6.006  1.00  0.00     0.315 C 
HETATM    9  O   UNL     1      39.339 -11.553   6.262  1.00  0.00    -0.262 OA
HETATM   10  H   UNL     1      42.147 -11.814   4.708  1.00  0.00     0.171 HD
BRANCH   8  11
HETATM   11  C   UNL     1      41.448 -10.583   6.908  1.00  0.00     0.310 C 
HETATM   12  N   UNL     1      41.924 -11.266   8.008  1.00  0.00    -0.348 N 
HETATM   13  H   UNL     1      41.562 -12.204   8.165  1.00  0.00     0.163 HD
HETATM   14  O   UNL     1      41.692  -9.427   6.593  1.00  0.00    -0.262 OA
BRANCH  12  15
HETATM   15  C   UNL     1      42.813 -10.690   9.011  1.00  0.00     0.085 C 
HETATM   16  C   UNL     1      43.688 -11.806   9.602  1.00  0.00     0.034 C 
HETATM   17  C   UNL     1      44.606 -11.345  10.755  1.00  0.00    -0.045 C 
HETATM   18  C   UNL     1      45.745 -10.457  10.219  1.00  0.00     0.015 C 
HETATM   19  C   UNL     1      45.242 -12.587  11.410  1.00  0.00     0.015 C 
HETATM   20  C   UNL     1      43.775 -10.590  11.817  1.00  0.00     0.013 C 
HETATM   21  C   UNL     1      42.917  -9.458  11.233  1.00  0.00    -0.016 C 
HETATM   22  C   UNL     1      42.082  -8.803  12.333  1.00  0.00     0.010 C 
HETATM   23  C   UNL     1      42.012  -9.979  10.107  1.00  0.00     0.029 C 
ENDBRANCH  12  15
ENDBRANCH   8  11
ENDBRANCH   6   7
BRANCH   1  24
HETATM   24  C   UNL     1      41.523 -15.049   4.686  1.00  0.00     0.732 A 
HETATM   25  N   UNL     1      41.236 -16.374   4.551  1.00  0.00    -0.152 N 
HETATM   26  C   UNL     1      41.951 -17.324   5.204  1.00  0.00     0.268 A 
HETATM   27  H   UNL     1      40.481 -16.670   3.940  1.00  0.00     0.188 HD
HETATM   28  C   UNL     1      43.044 -16.811   6.078  1.00  0.00     0.035 A 
HETATM   29  O   UNL     1      41.710 -18.517   5.074  1.00  0.00    -0.267 OA
HETATM   30  C   UNL     1      43.222 -15.470   6.137  1.00  0.00     0.061 A 
HETATM   31  N   UNL     1      42.460 -14.556   5.429  1.00  0.00    -0.067 NA
HETATM   32  C   UNL     1      44.302 -14.826   6.970  1.00  0.00     0.072 C 
BRANCH  28  33
HETATM   33  C   UNL     1      43.811 -17.860   6.842  1.00  0.00     0.042 C 
HETATM   34  C   UNL     1      45.084 -18.276   6.117  1.00  0.00     0.010 C 
ENDBRANCH  28  33
ENDBRANCH   1  24
TORSDOF 5
ENDMDL
MODEL 9
REMARK VINA RESULT:      -7.7      2.159      4.783
REMARK  5 active torsions:
REMARK  status: ('A' for Active; 'I' for Inactive)
REMARK    1  A    between atoms: C_2  and  C_3 
REMARK    2  A    between atoms: C_7  and  N_8 
REMARK    3  A    between atoms: C_13  and  N_14 
REMARK       I    between atoms: N_14  and  C_15 
REMARK    4  A    between atoms: C_15  and  C_16 
REMARK       I    between atoms: C_16  and  N_17 
REMARK    5  A    between atoms: N_17  and  C_18 
ROOT
HETATM    1  N   UNL     1      41.505 -16.219   3.918  1.00  0.00    -0.045 N 
HETATM    2  N   UNL     1      40.661 -16.440   2.871  1.00  0.00    -0.156 NA
HETATM    3  C   UNL     1      39.934 -15.321   2.791  1.00  0.00     0.055 A 
HETATM    4  C   UNL     1      38.876 -15.174   1.759  1.00  0.00     0.072 C 
HETATM    5  C   UNL     1      40.311 -14.377   3.773  1.00  0.00     0.079 A 
HETATM    6  C   UNL     1      41.322 -14.972   4.494  1.00  0.00     0.152 A 
ENDROOT
BRANCH   6   7
HETATM    7  N   UNL     1      42.027 -14.466   5.583  1.00  0.00    -0.303 N 
HETATM    8  C   UNL     1      43.267 -13.760   5.479  1.00  0.00     0.315 C 
HETATM    9  O   UNL     1      43.855 -13.589   4.423  1.00  0.00    -0.262 OA
HETATM   10  H   UNL     1      41.636 -14.606   6.522  1.00  0.00     0.171 HD
BRANCH   8  11
HETATM   11  C   UNL     1      43.833 -13.213   6.802  1.00  0.00     0.310 C 
HETATM   12  N   UNL     1      43.150 -12.118   7.290  1.00  0.00    -0.348 N 
HETATM   13  H   UNL     1      42.414 -11.730   6.704  1.00  0.00     0.163 HD
HETATM   14  O   UNL     1      44.795 -13.770   7.310  1.00  0.00    -0.262 OA
BRANCH  12  15
HETATM   15  C   UNL     1      43.490 -11.420   8.525  1.00  0.00     0.085 C 
HETATM   16  C   UNL     1      43.868 -12.455   9.596  1.00  0.00     0.034 C 
HETATM   17  C   UNL     1      44.151 -11.850  10.987  1.00  0.00    -0.045 C 
HETATM   18  C   UNL     1      45.481 -11.073  10.979  1.00  0.00     0.015 C 
HETATM   19  C   UNL     1      44.278 -12.996  12.010  1.00  0.00     0.015 C 
HETATM   20  C   UNL     1      42.981 -10.932  11.408  1.00  0.00     0.013 C 
HETATM   21  C   UNL     1      42.616  -9.880  10.350  1.00  0.00    -0.016 C 
HETATM   22  C   UNL     1      41.415  -9.055  10.812  1.00  0.00     0.010 C 
HETATM   23  C   UNL     1      42.326 -10.541   8.995  1.00  0.00     0.029 C 
ENDBRANCH  12  15
ENDBRANCH   8  11
ENDBRANCH   6   7
BRANCH   1  24
HETATM   24  C   UNL     1      42.432 -17.201   4.294  1.00  0.00     0.732 A 
HETATM   25  N   UNL     1      42.944 -17.851   3.212  1.00  0.00    -0.152 N 
HETATM   26  C   UNL     1      43.876 -18.828   3.348  1.00  0.00     0.268 A 
HETATM   27  H   UNL     1      42.641 -17.598   2.277  1.00  0.00     0.188 HD
HETATM   28  C   UNL     1      44.272 -19.139   4.752  1.00  0.00     0.035 A 
HETATM   29  O   UNL     1      44.353 -19.404   2.380  1.00  0.00    -0.267 OA
HETATM   30  C   UNL     1      43.682 -18.431   5.742  1.00  0.00     0.061 A 
HETATM   31  N   UNL     1      42.745 -17.434   5.528  1.00  0.00    -0.067 NA
HETATM   32  C   UNL     1      44.007 -18.638   7.200  1.00  0.00     0.072 C 
BRANCH  28  33
HETATM   33  C   UNL     1      45.272 -20.256   4.910  1.00  0.00     0.042 C 
HETATM   34  C   UNL     1      44.594 -21.593   5.180  1.00  0.00     0.010 C 
ENDBRANCH  28  33
ENDBRANCH   1  24
TORSDOF 5
ENDMDL
MODEL 10
REMARK VINA RESULT:      -7.7      3.969      8.708
REMARK  5 active torsions:
REMARK  status: ('A' for Active; 'I' for Inactive)
REMARK    1  A    between atoms: C_2  and  C_3 
REMARK    2  A    between atoms: C_7  and  N_8 
REMARK    3  A    between atoms: C_13  and  N_14 
REMARK       I    between atoms: N_14  and  C_15 
REMARK    4  A    between atoms: C_15  and  C_16 
REMARK       I    between atoms: C_16  and  N_17 
REMARK    5  A    between atoms: N_17  and  C_18 
ROOT
HETATM    1  N   UNL     1      43.632 -16.111   5.212  1.00  0.00    -0.045 N 
HETATM    2  N   UNL     1      44.382 -15.766   6.297  1.00  0.00    -0.156 NA
HETATM    3  C   UNL     1      43.934 -14.552   6.636  1.00  0.00     0.055 A 
HETATM    4  C   UNL     1      44.519 -13.821   7.787  1.00  0.00     0.072 C 
HETATM    5  C   UNL     1      42.894 -14.119   5.782  1.00  0.00     0.079 A 
HETATM    6  C   UNL     1      42.713 -15.132   4.868  1.00  0.00     0.152 A 
ENDROOT
BRANCH   6   7
HETATM    7  N   UNL     1      41.817 -15.194   3.803  1.00  0.00    -0.303 N 
HETATM    8  C   UNL     1      40.422 -14.893   3.910  1.00  0.00     0.315 C 
HETATM    9  O   UNL     1      39.875 -14.612   4.964  1.00  0.00    -0.262 OA
HETATM   10  H   UNL     1      42.176 -15.472   2.883  1.00  0.00     0.171 HD
BRANCH   8  11
HETATM   11  C   UNL     1      39.631 -14.942   2.590  1.00  0.00     0.310 C 
HETATM   12  N   UNL     1      39.188 -13.708   2.159  1.00  0.00    -0.348 N 
HETATM   13  H   UNL     1      39.344 -12.917   2.779  1.00  0.00     0.163 HD
HETATM   14  O   UNL     1      39.469 -16.020   2.037  1.00  0.00    -0.262 OA
BRANCH  12  15
HETATM   15  C   UNL     1      38.418 -13.492   0.940  1.00  0.00     0.085 C 
HETATM   16  C   UNL     1      39.385 -13.192  -0.215  1.00  0.00     0.034 C 
HETATM   17  C   UNL     1      38.689 -12.840  -1.547  1.00  0.00    -0.045 C 
HETATM   18  C   UNL     1      38.025 -14.088  -2.158  1.00  0.00     0.015 C 
HETATM   19  C   UNL     1      39.750 -12.333  -2.543  1.00  0.00     0.015 C 
HETATM   20  C   UNL     1      37.647 -11.722  -1.315  1.00  0.00     0.013 C 
HETATM   21  C   UNL     1      36.662 -12.029  -0.176  1.00  0.00    -0.016 C 
HETATM   22  C   UNL     1      35.707 -10.854   0.031  1.00  0.00     0.010 C 
HETATM   23  C   UNL     1      37.411 -12.352   1.125  1.00  0.00     0.029 C 
ENDBRANCH  12  15
ENDBRANCH   8  11
ENDBRANCH   6   7
BRANCH   1  24
HETATM   24  C   UNL     1      43.832 -17.348   4.584  1.00  0.00     0.732 A 
HETATM   25  N   UNL     1      43.772 -17.240   3.228  1.00  0.00    -0.152 N 
HETATM   26  C   UNL     1      43.960 -18.316   2.422  1.00  0.00     0.268 A 
HETATM   27  H   UNL     1      43.600 -16.337   2.797  1.00  0.00     0.188 HD
HETATM   28  C   UNL     1      44.213 -19.604   3.128  1.00  0.00     0.035 A 
HETATM   29  O   UNL     1      43.925 -18.223   1.202  1.00  0.00    -0.267 OA
HETATM   30  C   UNL     1      44.236 -19.583   4.481  1.00  0.00     0.061 A 
HETATM   31  N   UNL     1      44.050 -18.441   5.242  1.00  0.00    -0.067 NA
HETATM   32  C   UNL     1      44.498 -20.815   5.313  1.00  0.00     0.072 C 
BRANCH  28  33
HETATM   33  C   UNL     1      44.374 -20.810   2.239  1.00  0.00     0.042 C 
HETATM   34  C   UNL     1      43.036 -21.456   1.906  1.00  0.00     0.010 C 
ENDBRANCH  28  33
ENDBRANCH   1  24
TORSDOF 5
ENDMDL
