MODEL 1
REMARK VINA RESULT:      -8.7      0.000      0.000
REMARK  7 active torsions:
REMARK  status: ('A' for Active; 'I' for Inactive)
REMARK    1  A    between atoms: O_2  and  C_3 
REMARK    2  A    between atoms: C_6  and  C_7 
REMARK       I    between atoms: C_7  and  N_8 
REMARK    3  A    between atoms: C_14  and  C_15 
REMARK       I    between atoms: C_15  and  N_16 
REMARK    4  A    between atoms: N_16  and  C_17 
REMARK    5  A    between atoms: C_17  and  C_18 
REMARK       I    between atoms: N_25  and  C_26 
REMARK    6  A    between atoms: C_26  and  C_27 
REMARK    7  A    between atoms: C_30  and  O_31 
ROOT
HETATM    1  C   UNL     1      43.943 -15.699   6.208  1.00  0.00     0.253 C 
HETATM    2  N   UNL     1      42.951 -14.990   5.513  1.00  0.00    -0.348 N 
HETATM    3  C   UNL     1      41.820 -15.636   4.854  1.00  0.00     0.131 C 
HETATM    4  C   UNL     1      40.623 -14.716   4.702  1.00  0.00     0.081 C 
HETATM    5  C   UNL     1      40.953 -13.360   4.058  1.00  0.00     0.142 C 
HETATM    6  O   UNL     1      39.849 -12.489   4.429  1.00  0.00    -0.358 OA
HETATM    7  C   UNL     1      38.934 -12.366   3.339  1.00  0.00     0.206 C 
HETATM    8  C   UNL     1      39.542 -13.092   2.156  1.00  0.00     0.206 C 
HETATM    9  N   UNL     1      40.909 -13.365   2.591  1.00  0.00    -0.300 N 
HETATM   10  C   UNL     1      41.861 -14.024   1.828  1.00  0.00     0.257 C 
HETATM   11  O   UNL     1      42.916 -14.462   2.269  1.00  0.00    -0.267 OA
HETATM   12  C   UNL     1      42.182 -12.725   4.717  1.00  0.00     0.081 C 
HETATM   13  C   UNL     1      43.338 -13.666   5.033  1.00  0.00     0.131 C 
HETATM   14  O   UNL     1      44.892 -15.153   6.771  1.00  0.00    -0.267 OA
ENDROOT
BRANCH   8  15
HETATM   15  C   UNL     1      39.289 -12.241   0.909  1.00  0.00     0.243 C 
HETATM   16  N   UNL     1      39.690 -10.927   0.961  1.00  0.00    -0.355 N 
HETATM   17  H   UNL     1      40.332 -10.644   1.692  1.00  0.00     0.162 HD
HETATM   18  O   UNL     1      38.636 -12.698  -0.030  1.00  0.00    -0.271 OA
BRANCH  16  19
HETATM   19  C   UNL     1      39.616 -10.119  -0.237  1.00  0.00     0.161 C 
BRANCH  19  20
HETATM   20  C   UNL     1      40.970  -9.812  -0.812  1.00  0.00    -0.041 A 
HETATM   21  C   UNL     1      42.078  -9.636   0.028  1.00  0.00     0.009 A 
HETATM   22  C   UNL     1      43.349  -9.424  -0.511  1.00  0.00     0.001 A 
HETATM   23  C   UNL     1      43.525  -9.387  -1.894  1.00  0.00     0.000 A 
HETATM   24  C   UNL     1      42.430  -9.559  -2.739  1.00  0.00     0.001 A 
HETATM   25  C   UNL     1      41.160  -9.772  -2.202  1.00  0.00     0.009 A 
ENDBRANCH  19  20
ENDBRANCH  16  19
ENDBRANCH   8  15
BRANCH  10  26
HETATM   26  C   UNL     1      41.691 -14.153   0.368  1.00  0.00     0.032 A 
HETATM   27  C   UNL     1      41.012 -15.280  -0.106  1.00  0.00     0.020 A 
HETATM   28  C   UNL     1      40.787 -15.425  -1.474  1.00  0.00     0.038 A 
HETATM   29  C   UNL     1      41.222 -14.447  -2.373  1.00  0.00     0.068 A 
HETATM   30  C   UNL     1      41.879 -13.313  -1.890  1.00  0.00     0.038 A 
HETATM   31  C   UNL     1      42.100 -13.155  -0.517  1.00  0.00     0.020 A 
BRANCH  29  32
HETATM   32  O   UNL     1      40.934 -14.716  -3.682  1.00  0.00    -0.356 OA
HETATM   33  C   UNL     1      39.725 -15.416  -3.946  1.00  0.00     0.210 C 
ENDBRANCH  29  32
ENDBRANCH  10  26
BRANCH   1  34
HETATM   34  C   UNL     1      43.886 -17.178   6.288  1.00  0.00     0.032 A 
HETATM   35  C   UNL     1      44.201 -17.972   5.182  1.00  0.00     0.020 A 
HETATM   36  C   UNL     1      44.201 -19.364   5.306  1.00  0.00     0.038 A 
HETATM   37  C   UNL     1      43.937 -19.969   6.537  1.00  0.00     0.068 A 
HETATM   38  C   UNL     1      43.642 -19.173   7.646  1.00  0.00     0.038 A 
HETATM   39  C   UNL     1      43.625 -17.778   7.524  1.00  0.00     0.020 A 
BRANCH  37  40
HETATM   40  O   UNL     1      43.989 -21.336   6.529  1.00  0.00    -0.356 OA
HETATM   41  C   UNL     1      44.674 -21.931   5.433  1.00  0.00     0.210 C 
ENDBRANCH  37  40
ENDBRANCH   1  34
TORSDOF 7
ENDMDL
MODEL 2
REMARK VINA RESULT:      -8.5      2.866      9.776
REMARK  7 active torsions:
REMARK  status: ('A' for Active; 'I' for Inactive)
REMARK    1  A    between atoms: O_2  and  C_3 
REMARK    2  A    between atoms: C_6  and  C_7 
REMARK       I    between atoms: C_7  and  N_8 
REMARK    3  A    between atoms: C_14  and  C_15 
REMARK       I    between atoms: C_15  and  N_16 
REMARK    4  A    between atoms: N_16  and  C_17 
REMARK    5  A    between atoms: C_17  and  C_18 
REMARK       I    between atoms: N_25  and  C_26 
REMARK    6  A    between atoms: C_26  and  C_27 
REMARK    7  A    between atoms: C_30  and  O_31 
ROOT
HETATM    1  C   UNL     1      38.295 -10.834  -0.360  1.00  0.00     0.253 C 
HETATM    2  N   UNL     1      39.035 -12.011  -0.171  1.00  0.00    -0.348 N 
HETATM    3  C   UNL     1      38.608 -13.091   0.713  1.00  0.00     0.131 C 
HETATM    4  C   UNL     1      39.196 -14.435   0.327  1.00  0.00     0.081 C 
HETATM    5  C   UNL     1      40.722 -14.423   0.148  1.00  0.00     0.142 C 
HETATM    6  O   UNL     1      41.017 -15.602  -0.652  1.00  0.00    -0.358 OA
HETATM    7  C   UNL     1      41.495 -16.656   0.187  1.00  0.00     0.206 C 
HETATM    8  C   UNL     1      41.641 -16.089   1.584  1.00  0.00     0.206 C 
HETATM    9  N   UNL     1      41.475 -14.651   1.387  1.00  0.00    -0.300 N 
HETATM   10  C   UNL     1      41.529 -13.706   2.399  1.00  0.00     0.257 C 
HETATM   11  O   UNL     1      41.158 -12.545   2.281  1.00  0.00    -0.267 OA
HETATM   12  C   UNL     1      41.161 -13.245  -0.729  1.00  0.00     0.081 C 
HETATM   13  C   UNL     1      40.462 -11.917  -0.472  1.00  0.00     0.131 C 
HETATM   14  O   UNL     1      38.652  -9.927  -1.113  1.00  0.00    -0.267 OA
ENDROOT
BRANCH   8  15
HETATM   15  C   UNL     1      42.942 -16.638   2.175  1.00  0.00     0.243 C 
HETATM   16  N   UNL     1      42.830 -17.437   3.288  1.00  0.00    -0.355 N 
HETATM   17  H   UNL     1      41.922 -17.822   3.521  1.00  0.00     0.162 HD
HETATM   18  O   UNL     1      44.029 -16.259   1.737  1.00  0.00    -0.271 OA
BRANCH  16  19
HETATM   19  C   UNL     1      44.008 -18.107   3.796  1.00  0.00     0.161 C 
BRANCH  19  20
HETATM   20  C   UNL     1      44.067 -19.555   3.400  1.00  0.00    -0.041 A 
HETATM   21  C   UNL     1      43.611 -19.969   2.140  1.00  0.00     0.009 A 
HETATM   22  C   UNL     1      43.734 -21.303   1.746  1.00  0.00     0.001 A 
HETATM   23  C   UNL     1      44.315 -22.235   2.605  1.00  0.00     0.000 A 
HETATM   24  C   UNL     1      44.771 -21.835   3.859  1.00  0.00     0.001 A 
HETATM   25  C   UNL     1      44.649 -20.503   4.255  1.00  0.00     0.009 A 
ENDBRANCH  19  20
ENDBRANCH  16  19
ENDBRANCH   8  15
BRANCH  10  26
HETATM   26  C   UNL     1      42.149 -14.036   3.697  1.00  0.00     0.032 A 
HETATM   27  C   UNL     1      43.498 -13.712   3.870  1.00  0.00     0.020 A 
HETATM   28  C   UNL     1      44.117 -13.963   5.093  1.00  0.00     0.038 A 
HETATM   29  C   UNL     1      43.397 -14.522   6.152  1.00  0.00     0.068 A 
HETATM   30  C   UNL     1      42.043 -14.822   5.980  1.00  0.00     0.038 A 
HETATM   31  C   UNL     1      41.412 -14.565   4.758  1.00  0.00     0.020 A 
BRANCH  29  32
HETATM   32  O   UNL     1      44.125 -14.713   7.292  1.00  0.00    -0.356 OA
HETATM   33  C   UNL     1      44.815 -13.584   7.813  1.00  0.00     0.210 C 
ENDBRANCH  29  32
ENDBRANCH  10  26
BRANCH   1  34
HETATM   34  C   UNL     1      37.019 -10.630   0.366  1.00  0.00     0.032 A 
HETATM   35  C   UNL     1      36.957  -9.814   1.498  1.00  0.00     0.020 A 
HETATM   36  C   UNL     1      35.728  -9.588   2.124  1.00  0.00     0.038 A 
HETATM   37  C   UNL     1      34.552 -10.132   1.599  1.00  0.00     0.068 A 
HETATM   38  C   UNL     1      34.614 -10.931   0.456  1.00  0.00     0.038 A 
HETATM   39  C   UNL     1      35.845 -11.173  -0.166  1.00  0.00     0.020 A 
BRANCH  37  40
HETATM   40  O   UNL     1      33.415  -9.820   2.292  1.00  0.00    -0.356 OA
HETATM   41  C   UNL     1      32.283 -10.647   2.047  1.00  0.00     0.210 C 
ENDBRANCH  37  40
ENDBRANCH   1  34
TORSDOF 7
ENDMDL
MODEL 3
REMARK VINA RESULT:      -8.4      1.575      2.861
REMARK  7 active torsions:
REMARK  status: ('A' for Active; 'I' for Inactive)
REMARK    1  A    between atoms: O_2  and  C_3 
REMARK    2  A    between atoms: C_6  and  C_7 
REMARK       I    between atoms: C_7  and  N_8 
REMARK    3  A    between atoms: C_14  and  C_15 
REMARK       I    between atoms: C_15  and  N_16 
REMARK    4  A    between atoms: N_16  and  C_17 
REMARK    5  A    between atoms: C_17  and  C_18 
REMARK       I    between atoms: N_25  and  C_26 
REMARK    6  A    between atoms: C_26  and  C_27 
REMARK    7  A    between atoms: C_30  and  O_31 
ROOT
HETATM    1  C   UNL     1      43.942 -15.762   6.410  1.00  0.00     0.253 C 
HETATM    2  N   UNL     1      42.939 -15.038   5.747  1.00  0.00    -0.348 N 
HETATM    3  C   UNL     1      41.826 -15.672   5.047  1.00  0.00     0.131 C 
HETATM    4  C   UNL     1      40.610 -14.771   4.936  1.00  0.00     0.081 C 
HETATM    5  C   UNL     1      40.913 -13.376   4.369  1.00  0.00     0.142 C 
HETATM    6  O   UNL     1      39.788 -12.550   4.778  1.00  0.00    -0.358 OA
HETATM    7  C   UNL     1      38.876 -12.388   3.690  1.00  0.00     0.206 C 
HETATM    8  C   UNL     1      39.507 -13.036   2.474  1.00  0.00     0.206 C 
HETATM    9  N   UNL     1      40.877 -13.302   2.903  1.00  0.00    -0.300 N 
HETATM   10  C   UNL     1      41.848 -13.899   2.113  1.00  0.00     0.257 C 
HETATM   11  O   UNL     1      42.911 -14.337   2.536  1.00  0.00    -0.267 OA
HETATM   12  C   UNL     1      42.125 -12.751   5.069  1.00  0.00     0.081 C 
HETATM   13  C   UNL     1      43.299 -13.682   5.343  1.00  0.00     0.131 C 
HETATM   14  O   UNL     1      44.876 -15.226   7.008  1.00  0.00    -0.267 OA
ENDROOT
BRANCH   8  15
HETATM   15  C   UNL     1      39.242 -12.125   1.273  1.00  0.00     0.243 C 
HETATM   16  N   UNL     1      38.607 -12.690   0.193  1.00  0.00    -0.355 N 
HETATM   17  H   UNL     1      38.136 -13.578   0.316  1.00  0.00     0.162 HD
HETATM   18  O   UNL     1      39.704 -10.983   1.248  1.00  0.00    -0.271 OA
BRANCH  16  19
HETATM   19  C   UNL     1      38.195 -11.843  -0.905  1.00  0.00     0.161 C 
BRANCH  19  20
HETATM   20  C   UNL     1      37.739 -12.628  -2.103  1.00  0.00    -0.041 A 
HETATM   21  C   UNL     1      37.927 -14.016  -2.159  1.00  0.00     0.009 A 
HETATM   22  C   UNL     1      37.438 -14.753  -3.239  1.00  0.00     0.001 A 
HETATM   23  C   UNL     1      36.755 -14.112  -4.272  1.00  0.00     0.000 A 
HETATM   24  C   UNL     1      36.563 -12.732  -4.227  1.00  0.00     0.001 A 
HETATM   25  C   UNL     1      37.051 -11.994  -3.149  1.00  0.00     0.009 A 
ENDBRANCH  19  20
ENDBRANCH  16  19
ENDBRANCH   8  15
BRANCH  10  26
HETATM   26  C   UNL     1      41.689 -13.952   0.647  1.00  0.00     0.032 A 
HETATM   27  C   UNL     1      42.141 -12.855  -0.093  1.00  0.00     0.020 A 
HETATM   28  C   UNL     1      42.053 -12.877  -1.484  1.00  0.00     0.038 A 
HETATM   29  C   UNL     1      41.530 -13.993  -2.145  1.00  0.00     0.068 A 
HETATM   30  C   UNL     1      41.102 -15.094  -1.400  1.00  0.00     0.038 A 
HETATM   31  C   UNL     1      41.196 -15.084  -0.004  1.00  0.00     0.020 A 
BRANCH  29  32
HETATM   32  O   UNL     1      41.504 -13.881  -3.507  1.00  0.00    -0.356 OA
HETATM   33  C   UNL     1      40.964 -12.680  -4.044  1.00  0.00     0.210 C 
ENDBRANCH  29  32
ENDBRANCH  10  26
BRANCH   1  34
HETATM   34  C   UNL     1      43.917 -17.244   6.410  1.00  0.00     0.032 A 
HETATM   35  C   UNL     1      44.270 -17.970   5.270  1.00  0.00     0.020 A 
HETATM   36  C   UNL     1      44.299 -19.366   5.319  1.00  0.00     0.038 A 
HETATM   37  C   UNL     1      44.027 -20.042   6.511  1.00  0.00     0.068 A 
HETATM   38  C   UNL     1      43.694 -19.314   7.655  1.00  0.00     0.038 A 
HETATM   39  C   UNL     1      43.648 -17.915   7.607  1.00  0.00     0.020 A 
BRANCH  37  40
HETATM   40  O   UNL     1      44.110 -21.405   6.431  1.00  0.00    -0.356 OA
HETATM   41  C   UNL     1      44.765 -21.927   5.280  1.00  0.00     0.210 C 
ENDBRANCH  37  40
ENDBRANCH   1  34
TORSDOF 7
ENDMDL
MODEL 4
REMARK VINA RESULT:      -7.9      2.654      9.669
REMARK  7 active torsions:
REMARK  status: ('A' for Active; 'I' for Inactive)
REMARK    1  A    between atoms: O_2  and  C_3 
REMARK    2  A    between atoms: C_6  and  C_7 
REMARK       I    between atoms: C_7  and  N_8 
REMARK    3  A    between atoms: C_14  and  C_15 
REMARK       I    between atoms: C_15  and  N_16 
REMARK    4  A    between atoms: N_16  and  C_17 
REMARK    5  A    between atoms: C_17  and  C_18 
REMARK       I    between atoms: N_25  and  C_26 
REMARK    6  A    between atoms: C_26  and  C_27 
REMARK    7  A    between atoms: C_30  and  O_31 
ROOT
HETATM    1  C   UNL     1      38.471 -10.763  -0.645  1.00  0.00     0.253 C 
HETATM    2  N   UNL     1      39.174 -11.958  -0.429  1.00  0.00    -0.348 N 
HETATM    3  C   UNL     1      38.697 -13.017   0.455  1.00  0.00     0.131 C 
HETATM    4  C   UNL     1      39.257 -14.381   0.094  1.00  0.00     0.081 C 
HETATM    5  C   UNL     1      40.786 -14.413  -0.051  1.00  0.00     0.142 C 
HETATM    6  O   UNL     1      41.066 -15.607  -0.833  1.00  0.00    -0.358 OA
HETATM    7  C   UNL     1      41.496 -16.665   0.025  1.00  0.00     0.206 C 
HETATM    8  C   UNL     1      41.626 -16.089   1.420  1.00  0.00     0.206 C 
HETATM    9  N   UNL     1      41.505 -14.650   1.206  1.00  0.00    -0.300 N 
HETATM   10  C   UNL     1      41.562 -13.696   2.212  1.00  0.00     0.257 C 
HETATM   11  O   UNL     1      41.227 -12.526   2.074  1.00  0.00    -0.267 OA
HETATM   12  C   UNL     1      41.277 -13.256  -0.928  1.00  0.00     0.081 C 
HETATM   13  C   UNL     1      40.609 -11.906  -0.699  1.00  0.00     0.131 C 
HETATM   14  O   UNL     1      38.870  -9.873  -1.398  1.00  0.00    -0.267 OA
ENDROOT
BRANCH   8  15
HETATM   15  C   UNL     1      42.898 -16.668   2.045  1.00  0.00     0.243 C 
HETATM   16  N   UNL     1      42.737 -17.486   3.138  1.00  0.00    -0.355 N 
HETATM   17  H   UNL     1      41.817 -17.861   3.332  1.00  0.00     0.162 HD
HETATM   18  O   UNL     1      44.005 -16.297   1.651  1.00  0.00    -0.271 OA
BRANCH  16  19
HETATM   19  C   UNL     1      43.888 -18.182   3.673  1.00  0.00     0.161 C 
BRANCH  19  20
HETATM   20  C   UNL     1      43.908 -18.196   5.176  1.00  0.00    -0.041 A 
HETATM   21  C   UNL     1      45.124 -18.194   5.872  1.00  0.00     0.009 A 
HETATM   22  C   UNL     1      45.142 -18.133   7.267  1.00  0.00     0.001 A 
HETATM   23  C   UNL     1      43.944 -18.073   7.979  1.00  0.00     0.000 A 
HETATM   24  C   UNL     1      42.729 -18.075   7.297  1.00  0.00     0.001 A 
HETATM   25  C   UNL     1      42.710 -18.136   5.904  1.00  0.00     0.009 A 
ENDBRANCH  19  20
ENDBRANCH  16  19
ENDBRANCH   8  15
BRANCH  10  26
HETATM   26  C   UNL     1      42.144 -14.030   3.526  1.00  0.00     0.032 A 
HETATM   27  C   UNL     1      43.506 -13.776   3.713  1.00  0.00     0.020 A 
HETATM   28  C   UNL     1      44.093 -14.033   4.952  1.00  0.00     0.038 A 
HETATM   29  C   UNL     1      43.327 -14.530   6.010  1.00  0.00     0.068 A 
HETATM   30  C   UNL     1      41.962 -14.760   5.822  1.00  0.00     0.038 A 
HETATM   31  C   UNL     1      41.364 -14.496   4.585  1.00  0.00     0.020 A 
BRANCH  29  32
HETATM   32  O   UNL     1      44.027 -14.734   7.166  1.00  0.00    -0.356 OA
HETATM   33  C   UNL     1      44.791 -13.641   7.659  1.00  0.00     0.210 C 
ENDBRANCH  29  32
ENDBRANCH  10  26
BRANCH   1  34
HETATM   34  C   UNL     1      37.185 -10.518   0.050  1.00  0.00     0.032 A 
HETATM   35  C   UNL     1      35.986 -11.033  -0.449  1.00  0.00     0.020 A 
HETATM   36  C   UNL     1      34.799 -10.841   0.262  1.00  0.00     0.038 A 
HETATM   37  C   UNL     1      34.806 -10.178   1.492  1.00  0.00     0.068 A 
HETATM   38  C   UNL     1      36.008  -9.681   1.999  1.00  0.00     0.038 A 
HETATM   39  C   UNL     1      37.199  -9.858   1.282  1.00  0.00     0.020 A 
BRANCH  37  40
HETATM   40  O   UNL     1      33.584 -10.074   2.096  1.00  0.00    -0.356 OA
HETATM   41  C   UNL     1      33.064  -8.756   2.236  1.00  0.00     0.210 C 
ENDBRANCH  37  40
ENDBRANCH   1  34
TORSDOF 7
ENDMDL
MODEL 5
REMARK VINA RESULT:      -7.8      1.889      3.061
REMARK  7 active torsions:
REMARK  status: ('A' for Active; 'I' for Inactive)
REMARK    1  A    between atoms: O_2  and  C_3 
REMARK    2  A    between atoms: C_6  and  C_7 
REMARK       I    between atoms: C_7  and  N_8 
REMARK    3  A    between atoms: C_14  and  C_15 
REMARK       I    between atoms: C_15  and  N_16 
REMARK    4  A    between atoms: N_16  and  C_17 
REMARK    5  A    between atoms: C_17  and  C_18 
REMARK       I    between atoms: N_25  and  C_26 
REMARK    6  A    between atoms: C_26  and  C_27 
REMARK    7  A    between atoms: C_30  and  O_31 
ROOT
HETATM    1  C   UNL     1      44.050 -15.659   6.439  1.00  0.00     0.253 C 
HETATM    2  N   UNL     1      43.026 -14.964   5.776  1.00  0.00    -0.348 N 
HETATM    3  C   UNL     1      41.939 -15.631   5.066  1.00  0.00     0.131 C 
HETATM    4  C   UNL     1      40.693 -14.770   4.957  1.00  0.00     0.081 C 
HETATM    5  C   UNL     1      40.952 -13.362   4.400  1.00  0.00     0.142 C 
HETATM    6  O   UNL     1      39.798 -12.577   4.810  1.00  0.00    -0.358 OA
HETATM    7  C   UNL     1      38.886 -12.438   3.718  1.00  0.00     0.206 C 
HETATM    8  C   UNL     1      39.544 -13.056   2.501  1.00  0.00     0.206 C 
HETATM    9  N   UNL     1      40.920 -13.279   2.934  1.00  0.00    -0.300 N 
HETATM   10  C   UNL     1      41.914 -13.837   2.144  1.00  0.00     0.257 C 
HETATM   11  O   UNL     1      42.988 -14.242   2.570  1.00  0.00    -0.267 OA
HETATM   12  C   UNL     1      42.139 -12.701   5.110  1.00  0.00     0.081 C 
HETATM   13  C   UNL     1      43.342 -13.594   5.382  1.00  0.00     0.131 C 
HETATM   14  O   UNL     1      44.963 -15.096   7.045  1.00  0.00    -0.267 OA
ENDROOT
BRANCH   8  15
HETATM   15  C   UNL     1      39.254 -12.146   1.305  1.00  0.00     0.243 C 
HETATM   16  N   UNL     1      38.492 -12.677   0.291  1.00  0.00    -0.355 N 
HETATM   17  H   UNL     1      37.965 -13.523   0.471  1.00  0.00     0.162 HD
HETATM   18  O   UNL     1      39.798 -11.044   1.219  1.00  0.00    -0.271 OA
BRANCH  16  19
HETATM   19  C   UNL     1      38.059 -11.817  -0.789  1.00  0.00     0.161 C 
BRANCH  19  20
HETATM   20  C   UNL     1      36.606 -11.445  -0.686  1.00  0.00    -0.041 A 
HETATM   21  C   UNL     1      35.970 -11.398   0.562  1.00  0.00     0.009 A 
HETATM   22  C   UNL     1      34.641 -10.980   0.663  1.00  0.00     0.001 A 
HETATM   23  C   UNL     1      33.937 -10.605  -0.480  1.00  0.00     0.000 A 
HETATM   24  C   UNL     1      34.559 -10.649  -1.726  1.00  0.00     0.001 A 
HETATM   25  C   UNL     1      35.887 -11.065  -1.830  1.00  0.00     0.009 A 
ENDBRANCH  19  20
ENDBRANCH  16  19
ENDBRANCH   8  15
BRANCH  10  26
HETATM   26  C   UNL     1      41.763 -13.886   0.677  1.00  0.00     0.032 A 
HETATM   27  C   UNL     1      41.131 -15.006   0.130  1.00  0.00     0.020 A 
HETATM   28  C   UNL     1      40.925 -15.079  -1.247  1.00  0.00     0.038 A 
HETATM   29  C   UNL     1      41.333 -14.034  -2.082  1.00  0.00     0.068 A 
HETATM   30  C   UNL     1      41.942 -12.908  -1.525  1.00  0.00     0.038 A 
HETATM   31  C   UNL     1      42.144 -12.823  -0.143  1.00  0.00     0.020 A 
BRANCH  29  32
HETATM   32  O   UNL     1      41.069 -14.236  -3.407  1.00  0.00    -0.356 OA
HETATM   33  C   UNL     1      39.852 -14.898  -3.729  1.00  0.00     0.210 C 
ENDBRANCH  29  32
ENDBRANCH  10  26
BRANCH   1  34
HETATM   34  C   UNL     1      44.075 -17.140   6.429  1.00  0.00     0.032 A 
HETATM   35  C   UNL     1      43.710 -17.875   7.560  1.00  0.00     0.020 A 
HETATM   36  C   UNL     1      43.681 -19.270   7.501  1.00  0.00     0.038 A 
HETATM   37  C   UNL     1      43.966 -19.938   6.307  1.00  0.00     0.068 A 
HETATM   38  C   UNL     1      44.312 -19.202   5.172  1.00  0.00     0.038 A 
HETATM   39  C   UNL     1      44.358 -17.803   5.230  1.00  0.00     0.020 A 
BRANCH  37  40
HETATM   40  O   UNL     1      43.883 -21.302   6.376  1.00  0.00    -0.356 OA
HETATM   41  C   UNL     1      44.725 -22.028   5.488  1.00  0.00     0.210 C 
ENDBRANCH  37  40
ENDBRANCH   1  34
TORSDOF 7
ENDMDL
MODEL 6
REMARK VINA RESULT:      -7.8      2.462      9.333
REMARK  7 active torsions:
REMARK  status: ('A' for Active; 'I' for Inactive)
REMARK    1  A    between atoms: O_2  and  C_3 
REMARK    2  A    between atoms: C_6  and  C_7 
REMARK       I    between atoms: C_7  and  N_8 
REMARK    3  A    between atoms: C_14  and  C_15 
REMARK       I    between atoms: C_15  and  N_16 
REMARK    4  A    between atoms: N_16  and  C_17 
REMARK    5  A    between atoms: C_17  and  C_18 
REMARK       I    between atoms: N_25  and  C_26 
REMARK    6  A    between atoms: C_26  and  C_27 
REMARK    7  A    between atoms: C_30  and  O_31 
ROOT
HETATM    1  C   UNL     1      39.000 -11.860  -2.445  1.00  0.00     0.253 C 
HETATM    2  N   UNL     1      39.185 -12.234  -1.105  1.00  0.00    -0.348 N 
HETATM    3  C   UNL     1      40.430 -12.010  -0.378  1.00  0.00     0.131 C 
HETATM    4  C   UNL     1      40.229 -11.930   1.124  1.00  0.00     0.081 C 
HETATM    5  C   UNL     1      39.434 -13.105   1.713  1.00  0.00     0.142 C 
HETATM    6  O   UNL     1      38.951 -12.627   2.999  1.00  0.00    -0.358 OA
HETATM    7  C   UNL     1      39.772 -13.136   4.052  1.00  0.00     0.206 C 
HETATM    8  C   UNL     1      40.760 -14.099   3.426  1.00  0.00     0.206 C 
HETATM    9  N   UNL     1      40.255 -14.270   2.067  1.00  0.00    -0.300 N 
HETATM   10  C   UNL     1      40.843 -15.075   1.103  1.00  0.00     0.257 C 
HETATM   11  O   UNL     1      40.569 -15.037  -0.090  1.00  0.00    -0.267 OA
HETATM   12  C   UNL     1      38.163 -13.370   0.900  1.00  0.00     0.081 C 
HETATM   13  C   UNL     1      38.304 -13.291  -0.615  1.00  0.00     0.131 C 
HETATM   14  O   UNL     1      37.946 -12.042  -3.056  1.00  0.00    -0.267 OA
ENDROOT
BRANCH   8  15
HETATM   15  C   UNL     1      40.882 -15.309   4.357  1.00  0.00     0.243 C 
HETATM   16  N   UNL     1      41.791 -15.213   5.384  1.00  0.00    -0.355 N 
HETATM   17  H   UNL     1      42.152 -14.299   5.630  1.00  0.00     0.162 HD
HETATM   18  O   UNL     1      40.283 -16.353   4.097  1.00  0.00    -0.271 OA
BRANCH  16  19
HETATM   19  C   UNL     1      41.840 -16.260   6.382  1.00  0.00     0.161 C 
BRANCH  19  20
HETATM   20  C   UNL     1      42.972 -17.222   6.157  1.00  0.00    -0.041 A 
HETATM   21  C   UNL     1      44.286 -16.866   6.489  1.00  0.00     0.009 A 
HETATM   22  C   UNL     1      45.327 -17.787   6.349  1.00  0.00     0.001 A 
HETATM   23  C   UNL     1      45.063 -19.072   5.877  1.00  0.00     0.000 A 
HETATM   24  C   UNL     1      43.760 -19.437   5.543  1.00  0.00     0.001 A 
HETATM   25  C   UNL     1      42.720 -18.518   5.683  1.00  0.00     0.009 A 
ENDBRANCH  19  20
ENDBRANCH  16  19
ENDBRANCH   8  15
BRANCH  10  26
HETATM   26  C   UNL     1      41.799 -16.129   1.492  1.00  0.00     0.032 A 
HETATM   27  C   UNL     1      41.386 -17.458   1.357  1.00  0.00     0.020 A 
HETATM   28  C   UNL     1      42.269 -18.491   1.670  1.00  0.00     0.038 A 
HETATM   29  C   UNL     1      43.567 -18.208   2.104  1.00  0.00     0.068 A 
HETATM   30  C   UNL     1      43.980 -16.878   2.214  1.00  0.00     0.038 A 
HETATM   31  C   UNL     1      43.103 -15.836   1.894  1.00  0.00     0.020 A 
BRANCH  29  32
HETATM   32  O   UNL     1      44.325 -19.313   2.374  1.00  0.00    -0.356 OA
HETATM   33  C   UNL     1      43.769 -20.575   2.030  1.00  0.00     0.210 C 
ENDBRANCH  29  32
ENDBRANCH  10  26
BRANCH   1  34
HETATM   34  C   UNL     1      40.102 -11.219  -3.200  1.00  0.00     0.032 A 
HETATM   35  C   UNL     1      41.080 -11.986  -3.839  1.00  0.00     0.020 A 
HETATM   36  C   UNL     1      42.070 -11.357  -4.597  1.00  0.00     0.038 A 
HETATM   37  C   UNL     1      42.064  -9.969  -4.764  1.00  0.00     0.068 A 
HETATM   38  C   UNL     1      41.074  -9.206  -4.141  1.00  0.00     0.038 A 
HETATM   39  C   UNL     1      40.088  -9.831  -3.367  1.00  0.00     0.020 A 
BRANCH  37  40
HETATM   40  O   UNL     1      43.074  -9.479  -5.545  1.00  0.00    -0.356 OA
HETATM   41  C   UNL     1      42.745  -8.369  -6.373  1.00  0.00     0.210 C 
ENDBRANCH  37  40
ENDBRANCH   1  34
TORSDOF 7
ENDMDL
MODEL 7
REMARK VINA RESULT:      -7.6      3.041      4.362
REMARK  7 active torsions:
REMARK  status: ('A' for Active; 'I' for Inactive)
REMARK    1  A    between atoms: O_2  and  C_3 
REMARK    2  A    between atoms: C_6  and  C_7 
REMARK       I    between atoms: C_7  and  N_8 
REMARK    3  A    between atoms: C_14  and  C_15 
REMARK       I    between atoms: C_15  and  N_16 
REMARK    4  A    between atoms: N_16  and  C_17 
REMARK    5  A    between atoms: C_17  and  C_18 
REMARK       I    between atoms: N_25  and  C_26 
REMARK    6  A    between atoms: C_26  and  C_27 
REMARK    7  A    between atoms: C_30  and  O_31 
ROOT
HETATM    1  C   UNL     1      42.860 -16.186   4.369  1.00  0.00     0.253 C 
HETATM    2  N   UNL     1      41.849 -15.588   3.602  1.00  0.00    -0.348 N 
HETATM    3  C   UNL     1      41.292 -16.198   2.398  1.00  0.00     0.131 C 
HETATM    4  C   UNL     1      39.886 -15.719   2.091  1.00  0.00     0.081 C 
HETATM    5  C   UNL     1      39.736 -14.190   2.070  1.00  0.00     0.142 C 
HETATM    6  O   UNL     1      38.312 -13.948   2.240  1.00  0.00    -0.358 OA
HETATM    7  C   UNL     1      37.710 -13.654   0.977  1.00  0.00     0.206 C 
HETATM    8  C   UNL     1      38.825 -13.573  -0.045  1.00  0.00     0.206 C 
HETATM    9  N   UNL     1      40.036 -13.574   0.772  1.00  0.00    -0.300 N 
HETATM   10  C   UNL     1      41.326 -13.512   0.268  1.00  0.00     0.257 C 
HETATM   11  O   UNL     1      42.335 -13.751   0.920  1.00  0.00    -0.267 OA
HETATM   12  C   UNL     1      40.383 -13.558   3.308  1.00  0.00     0.081 C 
HETATM   13  C   UNL     1      41.724 -14.139   3.736  1.00  0.00     0.131 C 
HETATM   14  O   UNL     1      43.323 -15.674   5.389  1.00  0.00    -0.267 OA
ENDROOT
BRANCH   8  15
HETATM   15  C   UNL     1      38.524 -12.391  -0.969  1.00  0.00     0.243 C 
HETATM   16  N   UNL     1      38.112 -12.690  -2.246  1.00  0.00    -0.355 N 
HETATM   17  H   UNL     1      37.798 -13.632  -2.447  1.00  0.00     0.162 HD
HETATM   18  O   UNL     1      38.773 -11.241  -0.605  1.00  0.00    -0.271 OA
BRANCH  16  19
HETATM   19  C   UNL     1      37.667 -11.620  -3.112  1.00  0.00     0.161 C 
BRANCH  19  20
HETATM   20  C   UNL     1      36.275 -11.838  -3.634  1.00  0.00    -0.041 A 
HETATM   21  C   UNL     1      36.029 -12.793  -4.631  1.00  0.00     0.009 A 
HETATM   22  C   UNL     1      34.726 -13.048  -5.063  1.00  0.00     0.001 A 
HETATM   23  C   UNL     1      33.656 -12.351  -4.502  1.00  0.00     0.000 A 
HETATM   24  C   UNL     1      33.888 -11.399  -3.512  1.00  0.00     0.001 A 
HETATM   25  C   UNL     1      35.190 -11.144  -3.079  1.00  0.00     0.009 A 
ENDBRANCH  19  20
ENDBRANCH  16  19
ENDBRANCH   8  15
BRANCH  10  26
HETATM   26  C   UNL     1      41.568 -13.044  -1.111  1.00  0.00     0.032 A 
HETATM   27  C   UNL     1      42.047 -11.741  -1.276  1.00  0.00     0.020 A 
HETATM   28  C   UNL     1      42.334 -11.268  -2.555  1.00  0.00     0.038 A 
HETATM   29  C   UNL     1      42.159 -12.089  -3.672  1.00  0.00     0.068 A 
HETATM   30  C   UNL     1      41.702 -13.398  -3.497  1.00  0.00     0.038 A 
HETATM   31  C   UNL     1      41.421 -13.884  -2.215  1.00  0.00     0.020 A 
BRANCH  29  32
HETATM   32  O   UNL     1      42.479 -11.500  -4.863  1.00  0.00    -0.356 OA
HETATM   33  C   UNL     1      42.464 -10.078  -4.902  1.00  0.00     0.210 C 
ENDBRANCH  29  32
ENDBRANCH  10  26
BRANCH   1  34
HETATM   34  C   UNL     1      43.431 -17.492   3.965  1.00  0.00     0.032 A 
HETATM   35  C   UNL     1      43.733 -18.471   4.915  1.00  0.00     0.020 A 
HETATM   36  C   UNL     1      44.209 -19.718   4.499  1.00  0.00     0.038 A 
HETATM   37  C   UNL     1      44.339 -20.012   3.139  1.00  0.00     0.068 A 
HETATM   38  C   UNL     1      44.018 -19.039   2.191  1.00  0.00     0.038 A 
HETATM   39  C   UNL     1      43.556 -17.782   2.603  1.00  0.00     0.020 A 
BRANCH  37  40
HETATM   40  O   UNL     1      44.795 -21.272   2.865  1.00  0.00    -0.356 OA
HETATM   41  C   UNL     1      44.244 -21.901   1.713  1.00  0.00     0.210 C 
ENDBRANCH  37  40
ENDBRANCH   1  34
TORSDOF 7
ENDMDL
MODEL 8
REMARK VINA RESULT:      -7.5      3.771      9.544
REMARK  7 active torsions:
REMARK  status: ('A' for Active; 'I' for Inactive)
REMARK    1  A    between atoms: O_2  and  C_3 
REMARK    2  A    between atoms: C_6  and  C_7 
REMARK       I    between atoms: C_7  and  N_8 
REMARK    3  A    between atoms: C_14  and  C_15 
REMARK       I    between atoms: C_15  and  N_16 
REMARK    4  A    between atoms: N_16  and  C_17 
REMARK    5  A    between atoms: C_17  and  C_18 
REMARK       I    between atoms: N_25  and  C_26 
REMARK    6  A    between atoms: C_26  and  C_27 
REMARK    7  A    between atoms: C_30  and  O_31 
ROOT
HETATM    1  C   UNL     1      36.242  -8.457   1.384  1.00  0.00     0.253 C 
HETATM    2  N   UNL     1      36.856  -9.611   0.873  1.00  0.00    -0.348 N 
HETATM    3  C   UNL     1      36.579 -10.953   1.375  1.00  0.00     0.131 C 
HETATM    4  C   UNL     1      36.860 -12.035   0.349  1.00  0.00     0.081 C 
HETATM    5  C   UNL     1      38.255 -11.948  -0.289  1.00  0.00     0.142 C 
HETATM    6  O   UNL     1      38.155 -12.716  -1.520  1.00  0.00    -0.358 OA
HETATM    7  C   UNL     1      38.727 -14.013  -1.336  1.00  0.00     0.206 C 
HETATM    8  C   UNL     1      39.345 -14.040   0.047  1.00  0.00     0.206 C 
HETATM    9  N   UNL     1      39.306 -12.642   0.465  1.00  0.00    -0.300 N 
HETATM   10  C   UNL     1      39.770 -12.171   1.683  1.00  0.00     0.257 C 
HETATM   11  O   UNL     1      39.525 -11.058   2.132  1.00  0.00    -0.267 OA
HETATM   12  C   UNL     1      38.557 -10.518  -0.752  1.00  0.00     0.081 C 
HETATM   13  C   UNL     1      38.131  -9.401   0.191  1.00  0.00     0.131 C 
HETATM   14  O   UNL     1      36.470  -7.326   0.954  1.00  0.00    -0.267 OA
ENDROOT
BRANCH   8  15
HETATM   15  C   UNL     1      40.686 -14.772  -0.059  1.00  0.00     0.243 C 
HETATM   16  N   UNL     1      40.796 -15.967   0.613  1.00  0.00    -0.355 N 
HETATM   17  H   UNL     1      39.950 -16.424   0.934  1.00  0.00     0.162 HD
HETATM   18  O   UNL     1      41.644 -14.232  -0.613  1.00  0.00    -0.271 OA
BRANCH  16  19
HETATM   19  C   UNL     1      41.981 -16.775   0.425  1.00  0.00     0.161 C 
BRANCH  19  20
HETATM   20  C   UNL     1      42.478 -17.382   1.707  1.00  0.00    -0.041 A 
HETATM   21  C   UNL     1      41.610 -17.563   2.793  1.00  0.00     0.009 A 
HETATM   22  C   UNL     1      42.054 -18.194   3.956  1.00  0.00     0.001 A 
HETATM   23  C   UNL     1      43.368 -18.651   4.046  1.00  0.00     0.000 A 
HETATM   24  C   UNL     1      44.240 -18.475   2.973  1.00  0.00     0.001 A 
HETATM   25  C   UNL     1      43.798 -17.845   1.810  1.00  0.00     0.009 A 
ENDBRANCH  19  20
ENDBRANCH  16  19
ENDBRANCH   8  15
BRANCH  10  26
HETATM   26  C   UNL     1      40.699 -12.982   2.493  1.00  0.00     0.032 A 
HETATM   27  C   UNL     1      42.069 -12.802   2.278  1.00  0.00     0.020 A 
HETATM   28  C   UNL     1      42.988 -13.512   3.049  1.00  0.00     0.038 A 
HETATM   29  C   UNL     1      42.551 -14.392   4.044  1.00  0.00     0.068 A 
HETATM   30  C   UNL     1      41.181 -14.549   4.268  1.00  0.00     0.038 A 
HETATM   31  C   UNL     1      40.252 -13.832   3.505  1.00  0.00     0.020 A 
BRANCH  29  32
HETATM   32  O   UNL     1      43.556 -15.020   4.723  1.00  0.00    -0.356 OA
HETATM   33  C   UNL     1      44.025 -14.391   5.909  1.00  0.00     0.210 C 
ENDBRANCH  29  32
ENDBRANCH  10  26
BRANCH   1  34
HETATM   34  C   UNL     1      35.271  -8.560   2.499  1.00  0.00     0.032 A 
HETATM   35  C   UNL     1      35.672  -8.368   3.823  1.00  0.00     0.020 A 
HETATM   36  C   UNL     1      34.723  -8.407   4.848  1.00  0.00     0.038 A 
HETATM   37  C   UNL     1      33.368  -8.588   4.556  1.00  0.00     0.068 A 
HETATM   38  C   UNL     1      32.967  -8.761   3.230  1.00  0.00     0.038 A 
HETATM   39  C   UNL     1      33.917  -8.738   2.201  1.00  0.00     0.020 A 
BRANCH  37  40
HETATM   40  O   UNL     1      32.541  -8.586   5.645  1.00  0.00    -0.356 OA
HETATM   41  C   UNL     1      32.135  -7.308   6.122  1.00  0.00     0.210 C 
ENDBRANCH  37  40
ENDBRANCH   1  34
TORSDOF 7
ENDMDL
MODEL 9
REMARK VINA RESULT:      -7.5      2.127      2.897
REMARK  7 active torsions:
REMARK  status: ('A' for Active; 'I' for Inactive)
REMARK    1  A    between atoms: O_2  and  C_3 
REMARK    2  A    between atoms: C_6  and  C_7 
REMARK       I    between atoms: C_7  and  N_8 
REMARK    3  A    between atoms: C_14  and  C_15 
REMARK       I    between atoms: C_15  and  N_16 
REMARK    4  A    between atoms: N_16  and  C_17 
REMARK    5  A    between atoms: C_17  and  C_18 
REMARK       I    between atoms: N_25  and  C_26 
REMARK    6  A    between atoms: C_26  and  C_27 
REMARK    7  A    between atoms: C_30  and  O_31 
ROOT
HETATM    1  C   UNL     1      42.620 -16.720   4.271  1.00  0.00     0.253 C 
HETATM    2  N   UNL     1      41.673 -16.045   3.484  1.00  0.00    -0.348 N 
HETATM    3  C   UNL     1      41.239 -16.520   2.174  1.00  0.00     0.131 C 
HETATM    4  C   UNL     1      39.859 -16.016   1.793  1.00  0.00     0.081 C 
HETATM    5  C   UNL     1      39.689 -14.495   1.928  1.00  0.00     0.142 C 
HETATM    6  O   UNL     1      38.251 -14.281   1.990  1.00  0.00    -0.358 OA
HETATM    7  C   UNL     1      37.764 -13.851   0.718  1.00  0.00     0.206 C 
HETATM    8  C   UNL     1      38.966 -13.651  -0.181  1.00  0.00     0.206 C 
HETATM    9  N   UNL     1      40.097 -13.736   0.739  1.00  0.00    -0.300 N 
HETATM   10  C   UNL     1      41.427 -13.613   0.366  1.00  0.00     0.257 C 
HETATM   11  O   UNL     1      42.375 -13.918   1.079  1.00  0.00    -0.267 OA
HETATM   12  C   UNL     1      40.210 -14.002   3.282  1.00  0.00     0.081 C 
HETATM   13  C   UNL     1      41.515 -14.621   3.766  1.00  0.00     0.131 C 
HETATM   14  O   UNL     1      42.980 -16.323   5.380  1.00  0.00    -0.267 OA
ENDROOT
BRANCH   8  15
HETATM   15  C   UNL     1      38.732 -12.374  -0.993  1.00  0.00     0.243 C 
HETATM   16  N   UNL     1      38.623 -11.200  -0.286  1.00  0.00    -0.355 N 
HETATM   17  H   UNL     1      38.934 -11.182   0.678  1.00  0.00     0.162 HD
HETATM   18  O   UNL     1      38.523 -12.440  -2.204  1.00  0.00    -0.271 OA
BRANCH  16  19
HETATM   19  C   UNL     1      38.555  -9.947  -1.006  1.00  0.00     0.161 C 
BRANCH  19  20
HETATM   20  C   UNL     1      39.710  -9.037  -0.695  1.00  0.00    -0.041 A 
HETATM   21  C   UNL     1      40.304  -9.048   0.574  1.00  0.00     0.009 A 
HETATM   22  C   UNL     1      41.423  -8.256   0.839  1.00  0.00     0.001 A 
HETATM   23  C   UNL     1      41.959  -7.447  -0.161  1.00  0.00     0.000 A 
HETATM   24  C   UNL     1      41.376  -7.426  -1.427  1.00  0.00     0.001 A 
HETATM   25  C   UNL     1      40.258  -8.217  -1.694  1.00  0.00     0.009 A 
ENDBRANCH  19  20
ENDBRANCH  16  19
ENDBRANCH   8  15
BRANCH  10  26
HETATM   26  C   UNL     1      41.787 -12.992  -0.923  1.00  0.00     0.032 A 
HETATM   27  C   UNL     1      41.642 -13.769  -2.077  1.00  0.00     0.020 A 
HETATM   28  C   UNL     1      41.928 -13.213  -3.323  1.00  0.00     0.038 A 
HETATM   29  C   UNL     1      42.343 -11.883  -3.430  1.00  0.00     0.068 A 
HETATM   30  C   UNL     1      42.463 -11.107  -2.274  1.00  0.00     0.038 A 
HETATM   31  C   UNL     1      42.170 -11.654  -1.020  1.00  0.00     0.020 A 
BRANCH  29  32
HETATM   32  O   UNL     1      42.587 -11.469  -4.708  1.00  0.00    -0.356 OA
HETATM   33  C   UNL     1      42.493 -10.073  -4.962  1.00  0.00     0.210 C 
ENDBRANCH  29  32
ENDBRANCH  10  26
BRANCH   1  34
HETATM   34  C   UNL     1      43.244 -17.970   3.779  1.00  0.00     0.032 A 
HETATM   35  C   UNL     1      43.890 -18.846   4.656  1.00  0.00     0.020 A 
HETATM   36  C   UNL     1      44.413 -20.049   4.174  1.00  0.00     0.038 A 
HETATM   37  C   UNL     1      44.254 -20.407   2.832  1.00  0.00     0.068 A 
HETATM   38  C   UNL     1      43.592 -19.539   1.962  1.00  0.00     0.038 A 
HETATM   39  C   UNL     1      43.079 -18.325   2.437  1.00  0.00     0.020 A 
BRANCH  37  40
HETATM   40  O   UNL     1      44.794 -21.617   2.493  1.00  0.00    -0.356 OA
HETATM   41  C   UNL     1      44.639 -22.662   3.446  1.00  0.00     0.210 C 
ENDBRANCH  37  40
ENDBRANCH   1  34
TORSDOF 7
ENDMDL
MODEL 10
REMARK VINA RESULT:      -7.4      2.954      5.498
REMARK  7 active torsions:
REMARK  status: ('A' for Active; 'I' for Inactive)
REMARK    1  A    between atoms: O_2  and  C_3 
REMARK    2  A    between atoms: C_6  and  C_7 
REMARK       I    between atoms: C_7  and  N_8 
REMARK    3  A    between atoms: C_14  and  C_15 
REMARK       I    between atoms: C_15  and  N_16 
REMARK    4  A    between atoms: N_16  and  C_17 
REMARK    5  A    between atoms: C_17  and  C_18 
REMARK       I    between atoms: N_25  and  C_26 
REMARK    6  A    between atoms: C_26  and  C_27 
REMARK    7  A    between atoms: C_30  and  O_31 
ROOT
HETATM    1  C   UNL     1      42.078 -17.530   2.571  1.00  0.00     0.253 C 
HETATM    2  N   UNL     1      41.920 -16.407   1.745  1.00  0.00    -0.348 N 
HETATM    3  C   UNL     1      42.047 -15.035   2.228  1.00  0.00     0.131 C 
HETATM    4  C   UNL     1      42.424 -14.058   1.130  1.00  0.00     0.081 C 
HETATM    5  C   UNL     1      41.527 -14.137  -0.115  1.00  0.00     0.142 C 
HETATM    6  O   UNL     1      42.301 -13.514  -1.177  1.00  0.00    -0.358 OA
HETATM    7  C   UNL     1      41.850 -12.175  -1.392  1.00  0.00     0.206 C 
HETATM    8  C   UNL     1      40.635 -11.963  -0.513  1.00  0.00     0.206 C 
HETATM    9  N   UNL     1      40.319 -13.307  -0.039  1.00  0.00    -0.300 N 
HETATM   10  C   UNL     1      39.267 -13.616   0.809  1.00  0.00     0.257 C 
HETATM   11  O   UNL     1      39.141 -14.686   1.393  1.00  0.00    -0.267 OA
HETATM   12  C   UNL     1      41.349 -15.589  -0.571  1.00  0.00     0.081 C 
HETATM   13  C   UNL     1      41.135 -16.619   0.531  1.00  0.00     0.131 C 
HETATM   14  O   UNL     1      41.979 -18.687   2.161  1.00  0.00    -0.267 OA
ENDROOT
BRANCH   8  15
HETATM   15  C   UNL     1      39.605 -11.174  -1.326  1.00  0.00     0.243 C 
HETATM   16  N   UNL     1      39.128 -11.769  -2.470  1.00  0.00    -0.355 N 
HETATM   17  H   UNL     1      39.277 -12.763  -2.599  1.00  0.00     0.162 HD
HETATM   18  O   UNL     1      39.335 -10.011  -1.021  1.00  0.00    -0.271 OA
BRANCH  16  19
HETATM   19  C   UNL     1      38.044 -11.139  -3.193  1.00  0.00     0.161 C 
BRANCH  19  20
HETATM   20  C   UNL     1      37.090 -12.136  -3.789  1.00  0.00    -0.041 A 
HETATM   21  C   UNL     1      35.987 -11.705  -4.539  1.00  0.00     0.009 A 
HETATM   22  C   UNL     1      35.143 -12.632  -5.154  1.00  0.00     0.001 A 
HETATM   23  C   UNL     1      35.394 -13.998  -5.026  1.00  0.00     0.000 A 
HETATM   24  C   UNL     1      36.487 -14.437  -4.281  1.00  0.00     0.001 A 
HETATM   25  C   UNL     1      37.331 -13.512  -3.666  1.00  0.00     0.009 A 
ENDBRANCH  19  20
ENDBRANCH  16  19
ENDBRANCH   8  15
BRANCH  10  26
HETATM   26  C   UNL     1      38.147 -12.672   0.986  1.00  0.00     0.032 A 
HETATM   27  C   UNL     1      38.294 -11.668   1.949  1.00  0.00     0.020 A 
HETATM   28  C   UNL     1      37.283 -10.725   2.123  1.00  0.00     0.038 A 
HETATM   29  C   UNL     1      36.129 -10.766   1.334  1.00  0.00     0.068 A 
HETATM   30  C   UNL     1      36.000 -11.758   0.359  1.00  0.00     0.038 A 
HETATM   31  C   UNL     1      37.015 -12.704   0.172  1.00  0.00     0.020 A 
BRANCH  29  32
HETATM   32  O   UNL     1      35.222  -9.783   1.609  1.00  0.00    -0.356 OA
HETATM   33  C   UNL     1      33.856 -10.170   1.688  1.00  0.00     0.210 C 
ENDBRANCH  29  32
ENDBRANCH  10  26
BRANCH   1  34
HETATM   34  C   UNL     1      42.375 -17.360   4.013  1.00  0.00     0.032 A 
HETATM   35  C   UNL     1      41.346 -17.267   4.954  1.00  0.00     0.020 A 
HETATM   36  C   UNL     1      41.656 -17.173   6.313  1.00  0.00     0.038 A 
HETATM   37  C   UNL     1      42.984 -17.219   6.745  1.00  0.00     0.068 A 
HETATM   38  C   UNL     1      44.010 -17.332   5.804  1.00  0.00     0.038 A 
HETATM   39  C   UNL     1      43.705 -17.411   4.440  1.00  0.00     0.020 A 
BRANCH  37  40
HETATM   40  O   UNL     1      43.151 -17.138   8.100  1.00  0.00    -0.356 OA
HETATM   41  C   UNL     1      43.924 -18.172   8.700  1.00  0.00     0.210 C 
ENDBRANCH  37  40
ENDBRANCH   1  34
TORSDOF 7
ENDMDL
