MODEL 1
REMARK VINA RESULT:      -8.7      0.000      0.000
REMARK  10 active torsions:
REMARK  status: ('A' for Active; 'I' for Inactive)
REMARK    1  A    between atoms: C_2  and  C_3 
REMARK    2  A    between atoms: C_3  and  C_4 
REMARK    3  A    between atoms: C_4  and  O_5 
REMARK    4  A    between atoms: O_5  and  C_6 
REMARK    5  A    between atoms: C_9  and  C_10 
REMARK       I    between atoms: C_10  and  N_11 
REMARK    6  A    between atoms: N_11  and  C_12 
REMARK    7  A    between atoms: C_12  and  N_13 
REMARK    8  A    between atoms: N_13  and  C_14 
REMARK    9  A    between atoms: C_16  and  O_17 
REMARK   10  A    between atoms: C_18  and  C_19 
ROOT
HETATM    1  N   UNL     1      42.881 -13.928   6.381  1.00  0.00    -0.333 N 
HETATM    2  H   UNL     1      42.353 -13.175   6.812  1.00  0.00     0.168 HD
ENDROOT
BRANCH   1   3
HETATM    3  C   UNL     1      43.955 -14.403   7.126  1.00  0.00     0.179 C 
HETATM    4  S   UNL     1      45.452 -13.708   6.922  1.00  0.00    -0.040 SA
BRANCH   3   5
HETATM    5  N   UNL     1      43.643 -15.511   7.921  1.00  0.00    -0.299 N 
HETATM    6  C   UNL     1      43.489 -16.885   7.815  1.00  0.00     0.257 C 
HETATM    7  O   UNL     1      43.516 -17.557   8.849  1.00  0.00    -0.267 OA
HETATM    8  H   UNL     1      43.608 -15.298   8.909  1.00  0.00     0.171 HD
BRANCH   6   9
HETATM    9  C   UNL     1      43.326 -17.590   6.544  1.00  0.00     0.032 A 
HETATM   10  C   UNL     1      42.020 -17.760   6.065  1.00  0.00     0.020 A 
HETATM   11  C   UNL     1      41.813 -18.093   4.730  1.00  0.00     0.038 A 
HETATM   12  C   UNL     1      42.910 -18.208   3.876  1.00  0.00     0.068 A 
HETATM   13  C   UNL     1      44.214 -18.122   4.366  1.00  0.00     0.038 A 
HETATM   14  C   UNL     1      44.428 -17.791   5.705  1.00  0.00     0.020 A 
BRANCH  12  15
HETATM   15  O   UNL     1      42.743 -18.361   2.525  1.00  0.00    -0.351 OA
BRANCH  15  16
HETATM   16  C   UNL     1      43.697 -19.293   1.986  1.00  0.00     0.175 C 
BRANCH  16  17
HETATM   17  C   UNL     1      43.033 -20.661   1.840  1.00  0.00     0.026 C 
BRANCH  17  18
HETATM   18  C   UNL     1      44.073 -21.775   1.736  1.00  0.00    -0.002 C 
HETATM   19  C   UNL     1      44.479 -22.295   3.105  1.00  0.00     0.005 C 
ENDBRANCH  17  18
ENDBRANCH  16  17
ENDBRANCH  15  16
ENDBRANCH  12  15
ENDBRANCH   6   9
ENDBRANCH   3   5
ENDBRANCH   1   3
BRANCH   1  20
HETATM   20  C   UNL     1      42.530 -14.326   5.072  1.00  0.00     0.036 C 
HETATM   21  C   UNL     1      41.201 -14.632   4.779  1.00  0.00     0.067 C 
HETATM   22  C   UNL     1      40.805 -14.755   3.438  1.00  0.00     0.082 C 
HETATM   23  C   UNL     1      41.733 -14.620   2.391  1.00  0.00     0.050 C 
HETATM   24  C   UNL     1      43.088 -14.489   2.725  1.00  0.00     0.021 C 
HETATM   25  C   UNL     1      43.484 -14.347   4.052  1.00  0.00     0.030 C 
BRANCH  22  26
HETATM   26  O   UNL     1      39.485 -14.977   3.152  1.00  0.00    -0.360 OA
HETATM   27  H   UNL     1      39.059 -15.443   3.889  1.00  0.00     0.217 HD
ENDBRANCH  22  26
BRANCH  23  28
HETATM   28  C   UNL     1      41.382 -14.495   0.978  1.00  0.00     0.183 A 
HETATM   29  O   UNL     1      41.944 -13.446   0.296  1.00  0.00    -0.289 OA
HETATM   30  C   UNL     1      41.717 -13.743  -1.015  1.00  0.00     0.106 A 
HETATM   31  C   UNL     1      41.021 -14.938  -1.065  1.00  0.00     0.093 A 
HETATM   32  C   UNL     1      42.131 -13.022  -2.128  1.00  0.00     0.040 A 
HETATM   33  N   UNL     1      40.799 -15.401   0.206  1.00  0.00    -0.221 NA
HETATM   34  C   UNL     1      40.701 -15.487  -2.313  1.00  0.00     0.034 A 
HETATM   35  C   UNL     1      41.111 -14.796  -3.464  1.00  0.00     0.002 A 
HETATM   36  C   UNL     1      41.812 -13.586  -3.370  1.00  0.00     0.003 A 
ENDBRANCH  23  28
ENDBRANCH   1  20
TORSDOF 10
ENDMDL
MODEL 2
REMARK VINA RESULT:      -8.5      3.240      7.314
REMARK  10 active torsions:
REMARK  status: ('A' for Active; 'I' for Inactive)
REMARK    1  A    between atoms: C_2  and  C_3 
REMARK    2  A    between atoms: C_3  and  C_4 
REMARK    3  A    between atoms: C_4  and  O_5 
REMARK    4  A    between atoms: O_5  and  C_6 
REMARK    5  A    between atoms: C_9  and  C_10 
REMARK       I    between atoms: C_10  and  N_11 
REMARK    6  A    between atoms: N_11  and  C_12 
REMARK    7  A    between atoms: C_12  and  N_13 
REMARK    8  A    between atoms: N_13  and  C_14 
REMARK    9  A    between atoms: C_16  and  O_17 
REMARK   10  A    between atoms: C_18  and  C_19 
ROOT
HETATM    1  N   UNL     1      39.908 -15.125   0.303  1.00  0.00    -0.333 N 
HETATM    2  H   UNL     1      39.498 -15.524  -0.536  1.00  0.00     0.168 HD
ENDROOT
BRANCH   1   3
HETATM    3  C   UNL     1      39.489 -13.836   0.614  1.00  0.00     0.179 C 
HETATM    4  S   UNL     1      37.882 -13.566   0.947  1.00  0.00    -0.040 SA
BRANCH   3   5
HETATM    5  N   UNL     1      40.501 -12.875   0.518  1.00  0.00    -0.299 N 
HETATM    6  C   UNL     1      41.654 -12.477   1.177  1.00  0.00     0.257 C 
HETATM    7  O   UNL     1      42.454 -11.759   0.572  1.00  0.00    -0.267 OA
HETATM    8  H   UNL     1      40.473 -12.348  -0.344  1.00  0.00     0.171 HD
BRANCH   6   9
HETATM    9  C   UNL     1      41.995 -12.886   2.540  1.00  0.00     0.032 A 
HETATM   10  C   UNL     1      40.984 -12.806   3.507  1.00  0.00     0.020 A 
HETATM   11  C   UNL     1      41.122 -13.493   4.708  1.00  0.00     0.038 A 
HETATM   12  C   UNL     1      42.248 -14.291   4.914  1.00  0.00     0.068 A 
HETATM   13  C   UNL     1      43.294 -14.308   3.990  1.00  0.00     0.038 A 
HETATM   14  C   UNL     1      43.162 -13.618   2.784  1.00  0.00     0.020 A 
BRANCH  12  15
HETATM   15  O   UNL     1      42.341 -15.117   6.002  1.00  0.00    -0.351 OA
BRANCH  15  16
HETATM   16  C   UNL     1      43.712 -15.451   6.284  1.00  0.00     0.175 C 
BRANCH  16  17
HETATM   17  C   UNL     1      44.204 -14.594   7.450  1.00  0.00     0.026 C 
BRANCH  17  18
HETATM   18  C   UNL     1      45.325 -13.653   7.012  1.00  0.00    -0.002 C 
HETATM   19  C   UNL     1      45.793 -12.767   8.153  1.00  0.00     0.005 C 
ENDBRANCH  17  18
ENDBRANCH  16  17
ENDBRANCH  15  16
ENDBRANCH  12  15
ENDBRANCH   6   9
ENDBRANCH   3   5
ENDBRANCH   1   3
BRANCH   1  20
HETATM   20  C   UNL     1      40.897 -15.870   0.981  1.00  0.00     0.036 C 
HETATM   21  C   UNL     1      40.656 -16.313   2.281  1.00  0.00     0.067 C 
HETATM   22  C   UNL     1      41.507 -17.274   2.848  1.00  0.00     0.082 C 
HETATM   23  C   UNL     1      42.621 -17.762   2.146  1.00  0.00     0.050 C 
HETATM   24  C   UNL     1      42.936 -17.170   0.915  1.00  0.00     0.021 C 
HETATM   25  C   UNL     1      42.085 -16.230   0.340  1.00  0.00     0.030 C 
BRANCH  22  26
HETATM   26  O   UNL     1      41.221 -17.764   4.094  1.00  0.00    -0.360 OA
HETATM   27  H   UNL     1      41.855 -17.417   4.742  1.00  0.00     0.217 HD
ENDBRANCH  22  26
BRANCH  23  28
HETATM   28  C   UNL     1      43.417 -18.920   2.548  1.00  0.00     0.183 A 
HETATM   29  O   UNL     1      43.840 -18.953   3.853  1.00  0.00    -0.289 OA
HETATM   30  C   UNL     1      44.263 -20.236   4.033  1.00  0.00     0.106 A 
HETATM   31  C   UNL     1      44.093 -20.910   2.837  1.00  0.00     0.093 A 
HETATM   32  C   UNL     1      44.743 -20.810   5.204  1.00  0.00     0.040 A 
HETATM   33  N   UNL     1      43.570 -20.064   1.895  1.00  0.00    -0.221 NA
HETATM   34  C   UNL     1      44.417 -22.271   2.772  1.00  0.00     0.034 A 
HETATM   35  C   UNL     1      44.896 -22.893   3.936  1.00  0.00     0.002 A 
HETATM   36  C   UNL     1      45.055 -22.173   5.128  1.00  0.00     0.003 A 
ENDBRANCH  23  28
ENDBRANCH   1  20
TORSDOF 10
ENDMDL
MODEL 3
REMARK VINA RESULT:      -8.4      3.057      5.868
REMARK  10 active torsions:
REMARK  status: ('A' for Active; 'I' for Inactive)
REMARK    1  A    between atoms: C_2  and  C_3 
REMARK    2  A    between atoms: C_3  and  C_4 
REMARK    3  A    between atoms: C_4  and  O_5 
REMARK    4  A    between atoms: O_5  and  C_6 
REMARK    5  A    between atoms: C_9  and  C_10 
REMARK       I    between atoms: C_10  and  N_11 
REMARK    6  A    between atoms: N_11  and  C_12 
REMARK    7  A    between atoms: C_12  and  N_13 
REMARK    8  A    between atoms: N_13  and  C_14 
REMARK    9  A    between atoms: C_16  and  O_17 
REMARK   10  A    between atoms: C_18  and  C_19 
ROOT
HETATM    1  N   UNL     1      39.420 -13.082   2.318  1.00  0.00    -0.333 N 
HETATM    2  H   UNL     1      38.633 -12.944   1.691  1.00  0.00     0.168 HD
ENDROOT
BRANCH   1   3
HETATM    3  C   UNL     1      39.675 -12.031   3.192  1.00  0.00     0.179 C 
HETATM    4  S   UNL     1      40.468 -10.683   2.627  1.00  0.00    -0.040 SA
BRANCH   3   5
HETATM    5  N   UNL     1      39.293 -12.290   4.513  1.00  0.00    -0.299 N 
HETATM    6  C   UNL     1      39.751 -12.954   5.640  1.00  0.00     0.257 C 
HETATM    7  O   UNL     1      39.247 -12.671   6.730  1.00  0.00    -0.267 OA
HETATM    8  H   UNL     1      38.480 -11.764   4.805  1.00  0.00     0.171 HD
BRANCH   6   9
HETATM    9  C   UNL     1      40.823 -13.950   5.619  1.00  0.00     0.032 A 
HETATM   10  C   UNL     1      42.140 -13.479   5.702  1.00  0.00     0.020 A 
HETATM   11  C   UNL     1      43.166 -14.356   6.037  1.00  0.00     0.038 A 
HETATM   12  C   UNL     1      42.861 -15.685   6.332  1.00  0.00     0.068 A 
HETATM   13  C   UNL     1      41.564 -16.177   6.170  1.00  0.00     0.038 A 
HETATM   14  C   UNL     1      40.531 -15.302   5.830  1.00  0.00     0.020 A 
BRANCH  12  15
HETATM   15  O   UNL     1      43.810 -16.536   6.834  1.00  0.00    -0.351 OA
BRANCH  15  16
HETATM   16  C   UNL     1      43.464 -16.976   8.159  1.00  0.00     0.175 C 
BRANCH  16  17
HETATM   17  C   UNL     1      43.936 -18.417   8.346  1.00  0.00     0.026 C 
BRANCH  17  18
HETATM   18  C   UNL     1      43.583 -19.277   7.134  1.00  0.00    -0.002 C 
HETATM   19  C   UNL     1      43.641 -20.760   7.461  1.00  0.00     0.005 C 
ENDBRANCH  17  18
ENDBRANCH  16  17
ENDBRANCH  15  16
ENDBRANCH  12  15
ENDBRANCH   6   9
ENDBRANCH   3   5
ENDBRANCH   1   3
BRANCH   1  20
HETATM   20  C   UNL     1      40.197 -14.252   2.167  1.00  0.00     0.036 C 
HETATM   21  C   UNL     1      41.583 -14.179   2.298  1.00  0.00     0.067 C 
HETATM   22  C   UNL     1      42.323 -15.366   2.424  1.00  0.00     0.082 C 
HETATM   23  C   UNL     1      41.696 -16.622   2.375  1.00  0.00     0.050 C 
HETATM   24  C   UNL     1      40.329 -16.664   2.067  1.00  0.00     0.021 C 
HETATM   25  C   UNL     1      39.587 -15.492   1.959  1.00  0.00     0.030 C 
BRANCH  22  26
HETATM   26  O   UNL     1      43.674 -15.288   2.632  1.00  0.00    -0.360 OA
HETATM   27  H   UNL     1      44.147 -15.755   1.925  1.00  0.00     0.217 HD
ENDBRANCH  22  26
BRANCH  23  28
HETATM   28  C   UNL     1      42.336 -17.887   2.731  1.00  0.00     0.183 A 
HETATM   29  O   UNL     1      42.214 -18.913   1.827  1.00  0.00    -0.289 OA
HETATM   30  C   UNL     1      43.135 -19.829   2.240  1.00  0.00     0.106 A 
HETATM   31  C   UNL     1      43.756 -19.327   3.370  1.00  0.00     0.093 A 
HETATM   32  C   UNL     1      43.452 -21.039   1.634  1.00  0.00     0.040 A 
HETATM   33  N   UNL     1      43.232 -18.100   3.684  1.00  0.00    -0.221 NA
HETATM   34  C   UNL     1      44.783 -20.069   3.968  1.00  0.00     0.034 A 
HETATM   35  C   UNL     1      45.142 -21.292   3.381  1.00  0.00     0.002 A 
HETATM   36  C   UNL     1      44.487 -21.766   2.236  1.00  0.00     0.003 A 
ENDBRANCH  23  28
ENDBRANCH   1  20
TORSDOF 10
ENDMDL
MODEL 4
REMARK VINA RESULT:      -8.3      2.740      6.422
REMARK  10 active torsions:
REMARK  status: ('A' for Active; 'I' for Inactive)
REMARK    1  A    between atoms: C_2  and  C_3 
REMARK    2  A    between atoms: C_3  and  C_4 
REMARK    3  A    between atoms: C_4  and  O_5 
REMARK    4  A    between atoms: O_5  and  C_6 
REMARK    5  A    between atoms: C_9  and  C_10 
REMARK       I    between atoms: C_10  and  N_11 
REMARK    6  A    between atoms: N_11  and  C_12 
REMARK    7  A    between atoms: C_12  and  N_13 
REMARK    8  A    between atoms: N_13  and  C_14 
REMARK    9  A    between atoms: C_16  and  O_17 
REMARK   10  A    between atoms: C_18  and  C_19 
ROOT
HETATM    1  N   UNL     1      39.573 -11.153   2.957  1.00  0.00    -0.333 N 
HETATM    2  H   UNL     1      38.969 -10.459   3.385  1.00  0.00     0.168 HD
ENDROOT
BRANCH   1   3
HETATM    3  C   UNL     1      39.485 -11.246   1.572  1.00  0.00     0.179 C 
HETATM    4  S   UNL     1      40.316 -10.153   0.634  1.00  0.00    -0.040 SA
BRANCH   3   5
HETATM    5  N   UNL     1      38.601 -12.235   1.128  1.00  0.00    -0.299 N 
HETATM    6  C   UNL     1      38.501 -13.616   1.058  1.00  0.00     0.257 C 
HETATM    7  O   UNL     1      37.387 -14.112   0.871  1.00  0.00    -0.267 OA
HETATM    8  H   UNL     1      37.698 -11.872   0.854  1.00  0.00     0.171 HD
BRANCH   6   9
HETATM    9  C   UNL     1      39.635 -14.524   1.227  1.00  0.00     0.032 A 
HETATM   10  C   UNL     1      39.585 -15.424   2.300  1.00  0.00     0.020 A 
HETATM   11  C   UNL     1      40.432 -16.527   2.317  1.00  0.00     0.038 A 
HETATM   12  C   UNL     1      41.290 -16.746   1.238  1.00  0.00     0.068 A 
HETATM   13  C   UNL     1      41.403 -15.809   0.209  1.00  0.00     0.038 A 
HETATM   14  C   UNL     1      40.557 -14.699   0.190  1.00  0.00     0.020 A 
BRANCH  12  15
HETATM   15  O   UNL     1      42.012 -17.905   1.131  1.00  0.00    -0.351 OA
BRANCH  15  16
HETATM   16  C   UNL     1      43.426 -17.640   1.156  1.00  0.00     0.175 C 
BRANCH  16  17
HETATM   17  C   UNL     1      44.099 -18.611   2.124  1.00  0.00     0.026 C 
BRANCH  17  18
HETATM   18  C   UNL     1      43.442 -19.989   2.073  1.00  0.00    -0.002 C 
HETATM   19  C   UNL     1      44.412 -21.090   2.468  1.00  0.00     0.005 C 
ENDBRANCH  17  18
ENDBRANCH  16  17
ENDBRANCH  15  16
ENDBRANCH  12  15
ENDBRANCH   6   9
ENDBRANCH   3   5
ENDBRANCH   1   3
BRANCH   1  20
HETATM   20  C   UNL     1      40.341 -11.983   3.804  1.00  0.00     0.036 C 
HETATM   21  C   UNL     1      39.737 -12.592   4.904  1.00  0.00     0.067 C 
HETATM   22  C   UNL     1      40.415 -13.621   5.575  1.00  0.00     0.082 C 
HETATM   23  C   UNL     1      41.706 -14.016   5.187  1.00  0.00     0.050 C 
HETATM   24  C   UNL     1      42.352 -13.268   4.194  1.00  0.00     0.021 C 
HETATM   25  C   UNL     1      41.679 -12.259   3.511  1.00  0.00     0.030 C 
BRANCH  22  26
HETATM   26  O   UNL     1      39.786 -14.269   6.605  1.00  0.00    -0.360 OA
HETATM   27  H   UNL     1      38.876 -14.493   6.351  1.00  0.00     0.217 HD
ENDBRANCH  22  26
BRANCH  23  28
HETATM   28  C   UNL     1      42.387 -15.219   5.662  1.00  0.00     0.183 A 
HETATM   29  O   UNL     1      41.755 -16.415   5.431  1.00  0.00    -0.289 OA
HETATM   30  C   UNL     1      42.717 -17.350   5.673  1.00  0.00     0.106 A 
HETATM   31  C   UNL     1      43.870 -16.685   6.051  1.00  0.00     0.093 A 
HETATM   32  C   UNL     1      42.608 -18.728   5.535  1.00  0.00     0.040 A 
HETATM   33  N   UNL     1      43.647 -15.332   6.056  1.00  0.00    -0.221 NA
HETATM   34  C   UNL     1      45.028 -17.427   6.317  1.00  0.00     0.034 A 
HETATM   35  C   UNL     1      44.964 -18.823   6.178  1.00  0.00     0.002 A 
HETATM   36  C   UNL     1      43.774 -19.458   5.795  1.00  0.00     0.003 A 
ENDBRANCH  23  28
ENDBRANCH   1  20
TORSDOF 10
ENDMDL
MODEL 5
REMARK VINA RESULT:      -8.0      3.001      7.206
REMARK  10 active torsions:
REMARK  status: ('A' for Active; 'I' for Inactive)
REMARK    1  A    between atoms: C_2  and  C_3 
REMARK    2  A    between atoms: C_3  and  C_4 
REMARK    3  A    between atoms: C_4  and  O_5 
REMARK    4  A    between atoms: O_5  and  C_6 
REMARK    5  A    between atoms: C_9  and  C_10 
REMARK       I    between atoms: C_10  and  N_11 
REMARK    6  A    between atoms: N_11  and  C_12 
REMARK    7  A    between atoms: C_12  and  N_13 
REMARK    8  A    between atoms: N_13  and  C_14 
REMARK    9  A    between atoms: C_16  and  O_17 
REMARK   10  A    between atoms: C_18  and  C_19 
ROOT
HETATM    1  N   UNL     1      38.942 -12.794  -0.376  1.00  0.00    -0.333 N 
HETATM    2  H   UNL     1      38.429 -12.802  -1.253  1.00  0.00     0.168 HD
ENDROOT
BRANCH   1   3
HETATM    3  C   UNL     1      39.215 -11.533   0.142  1.00  0.00     0.179 C 
HETATM    4  S   UNL     1      37.950 -10.541   0.565  1.00  0.00    -0.040 SA
BRANCH   3   5
HETATM    5  N   UNL     1      40.577 -11.214   0.159  1.00  0.00    -0.299 N 
HETATM    6  C   UNL     1      41.735 -11.534   0.852  1.00  0.00     0.257 C 
HETATM    7  O   UNL     1      42.820 -11.255   0.337  1.00  0.00    -0.267 OA
HETATM    8  H   UNL     1      40.867 -10.649  -0.628  1.00  0.00     0.171 HD
BRANCH   6   9
HETATM    9  C   UNL     1      41.745 -12.213   2.148  1.00  0.00     0.032 A 
HETATM   10  C   UNL     1      42.665 -13.256   2.320  1.00  0.00     0.020 A 
HETATM   11  C   UNL     1      42.973 -13.700   3.602  1.00  0.00     0.038 A 
HETATM   12  C   UNL     1      42.394 -13.068   4.702  1.00  0.00     0.068 A 
HETATM   13  C   UNL     1      41.416 -12.086   4.533  1.00  0.00     0.038 A 
HETATM   14  C   UNL     1      41.100 -11.639   3.249  1.00  0.00     0.020 A 
BRANCH  12  15
HETATM   15  O   UNL     1      42.799 -13.355   5.978  1.00  0.00    -0.351 OA
BRANCH  15  16
HETATM   16  C   UNL     1      43.221 -14.725   6.094  1.00  0.00     0.175 C 
BRANCH  16  17
HETATM   17  C   UNL     1      44.333 -14.818   7.137  1.00  0.00     0.026 C 
BRANCH  17  18
HETATM   18  C   UNL     1      45.333 -13.673   6.986  1.00  0.00    -0.002 C 
HETATM   19  C   UNL     1      45.447 -12.854   8.261  1.00  0.00     0.005 C 
ENDBRANCH  17  18
ENDBRANCH  16  17
ENDBRANCH  15  16
ENDBRANCH  12  15
ENDBRANCH   6   9
ENDBRANCH   3   5
ENDBRANCH   1   3
BRANCH   1  20
HETATM   20  C   UNL     1      39.385 -14.029   0.148  1.00  0.00     0.036 C 
HETATM   21  C   UNL     1      40.428 -14.709  -0.479  1.00  0.00     0.067 C 
HETATM   22  C   UNL     1      41.048 -15.778   0.186  1.00  0.00     0.082 C 
HETATM   23  C   UNL     1      40.607 -16.201   1.451  1.00  0.00     0.050 C 
HETATM   24  C   UNL     1      39.448 -15.611   1.975  1.00  0.00     0.021 C 
HETATM   25  C   UNL     1      38.840 -14.539   1.329  1.00  0.00     0.030 C 
BRANCH  22  26
HETATM   26  O   UNL     1      42.123 -16.392  -0.399  1.00  0.00    -0.360 OA
HETATM   27  H   UNL     1      42.863 -15.769  -0.473  1.00  0.00     0.217 HD
ENDBRANCH  22  26
BRANCH  23  28
HETATM   28  C   UNL     1      41.328 -17.132   2.317  1.00  0.00     0.183 A 
HETATM   29  O   UNL     1      41.999 -18.155   1.694  1.00  0.00    -0.289 OA
HETATM   30  C   UNL     1      42.813 -18.657   2.666  1.00  0.00     0.106 A 
HETATM   31  C   UNL     1      42.587 -17.933   3.824  1.00  0.00     0.093 A 
HETATM   32  C   UNL     1      43.743 -19.681   2.542  1.00  0.00     0.040 A 
HETATM   33  N   UNL     1      41.632 -16.977   3.597  1.00  0.00    -0.221 NA
HETATM   34  C   UNL     1      43.338 -18.229   4.969  1.00  0.00     0.034 A 
HETATM   35  C   UNL     1      44.298 -19.250   4.883  1.00  0.00     0.002 A 
HETATM   36  C   UNL     1      44.494 -19.961   3.691  1.00  0.00     0.003 A 
ENDBRANCH  23  28
ENDBRANCH   1  20
TORSDOF 10
ENDMDL
MODEL 6
REMARK VINA RESULT:      -7.9      2.233      6.248
REMARK  10 active torsions:
REMARK  status: ('A' for Active; 'I' for Inactive)
REMARK    1  A    between atoms: C_2  and  C_3 
REMARK    2  A    between atoms: C_3  and  C_4 
REMARK    3  A    between atoms: C_4  and  O_5 
REMARK    4  A    between atoms: O_5  and  C_6 
REMARK    5  A    between atoms: C_9  and  C_10 
REMARK       I    between atoms: C_10  and  N_11 
REMARK    6  A    between atoms: N_11  and  C_12 
REMARK    7  A    between atoms: C_12  and  N_13 
REMARK    8  A    between atoms: N_13  and  C_14 
REMARK    9  A    between atoms: C_16  and  O_17 
REMARK   10  A    between atoms: C_18  and  C_19 
ROOT
HETATM    1  N   UNL     1      40.401 -13.185   6.497  1.00  0.00    -0.333 N 
HETATM    2  H   UNL     1      39.667 -13.253   7.195  1.00  0.00     0.168 HD
ENDROOT
BRANCH   1   3
HETATM    3  C   UNL     1      40.557 -11.931   5.917  1.00  0.00     0.179 C 
HETATM    4  S   UNL     1      41.554 -10.820   6.649  1.00  0.00    -0.040 SA
BRANCH   3   5
HETATM    5  N   UNL     1      39.752 -11.725   4.791  1.00  0.00    -0.299 N 
HETATM    6  C   UNL     1      39.446 -12.328   3.580  1.00  0.00     0.257 C 
HETATM    7  O   UNL     1      38.422 -11.972   2.994  1.00  0.00    -0.267 OA
HETATM    8  H   UNL     1      39.102 -10.959   4.898  1.00  0.00     0.171 HD
BRANCH   6   9
HETATM    9  C   UNL     1      40.253 -13.386   2.971  1.00  0.00     0.032 A 
HETATM   10  C   UNL     1      39.598 -14.577   2.631  1.00  0.00     0.020 A 
HETATM   11  C   UNL     1      40.201 -15.468   1.748  1.00  0.00     0.038 A 
HETATM   12  C   UNL     1      41.431 -15.139   1.179  1.00  0.00     0.068 A 
HETATM   13  C   UNL     1      42.124 -13.994   1.578  1.00  0.00     0.038 A 
HETATM   14  C   UNL     1      41.525 -13.099   2.466  1.00  0.00     0.020 A 
BRANCH  12  15
HETATM   15  O   UNL     1      41.976 -15.900   0.179  1.00  0.00    -0.351 OA
BRANCH  15  16
HETATM   16  C   UNL     1      41.089 -15.984  -0.951  1.00  0.00     0.175 C 
BRANCH  16  17
HETATM   17  C   UNL     1      41.068 -14.637  -1.671  1.00  0.00     0.026 C 
BRANCH  17  18
HETATM   18  C   UNL     1      39.642 -14.223  -2.031  1.00  0.00    -0.002 C 
HETATM   19  C   UNL     1      39.056 -13.272  -1.001  1.00  0.00     0.005 C 
ENDBRANCH  17  18
ENDBRANCH  16  17
ENDBRANCH  15  16
ENDBRANCH  12  15
ENDBRANCH   6   9
ENDBRANCH   3   5
ENDBRANCH   1   3
BRANCH   1  20
HETATM   20  C   UNL     1      41.094 -14.364   6.140  1.00  0.00     0.036 C 
HETATM   21  C   UNL     1      40.415 -15.582   6.119  1.00  0.00     0.067 C 
HETATM   22  C   UNL     1      41.018 -16.692   5.506  1.00  0.00     0.082 C 
HETATM   23  C   UNL     1      42.308 -16.607   4.956  1.00  0.00     0.050 C 
HETATM   24  C   UNL     1      43.030 -15.421   5.150  1.00  0.00     0.021 C 
HETATM   25  C   UNL     1      42.431 -14.312   5.740  1.00  0.00     0.030 C 
BRANCH  22  26
HETATM   26  O   UNL     1      40.316 -17.864   5.417  1.00  0.00    -0.360 OA
HETATM   27  H   UNL     1      40.590 -18.470   6.124  1.00  0.00     0.217 HD
ENDBRANCH  22  26
BRANCH  23  28
HETATM   28  C   UNL     1      42.916 -17.623   4.099  1.00  0.00     0.183 A 
HETATM   29  O   UNL     1      43.903 -18.392   4.663  1.00  0.00    -0.289 OA
HETATM   30  C   UNL     1      44.061 -19.424   3.786  1.00  0.00     0.106 A 
HETATM   31  C   UNL     1      43.181 -19.226   2.736  1.00  0.00     0.093 A 
HETATM   32  C   UNL     1      44.909 -20.517   3.912  1.00  0.00     0.040 A 
HETATM   33  N   UNL     1      42.469 -18.072   2.935  1.00  0.00    -0.221 NA
HETATM   34  C   UNL     1      43.117 -20.181   1.713  1.00  0.00     0.034 A 
HETATM   35  C   UNL     1      43.950 -21.307   1.808  1.00  0.00     0.002 A 
HETATM   36  C   UNL     1      44.829 -21.468   2.888  1.00  0.00     0.003 A 
ENDBRANCH  23  28
ENDBRANCH   1  20
TORSDOF 10
ENDMDL
MODEL 7
REMARK VINA RESULT:      -7.8      3.078      6.503
REMARK  10 active torsions:
REMARK  status: ('A' for Active; 'I' for Inactive)
REMARK    1  A    between atoms: C_2  and  C_3 
REMARK    2  A    between atoms: C_3  and  C_4 
REMARK    3  A    between atoms: C_4  and  O_5 
REMARK    4  A    between atoms: O_5  and  C_6 
REMARK    5  A    between atoms: C_9  and  C_10 
REMARK       I    between atoms: C_10  and  N_11 
REMARK    6  A    between atoms: N_11  and  C_12 
REMARK    7  A    between atoms: C_12  and  N_13 
REMARK    8  A    between atoms: N_13  and  C_14 
REMARK    9  A    between atoms: C_16  and  O_17 
REMARK   10  A    between atoms: C_18  and  C_19 
ROOT
HETATM    1  N   UNL     1      38.754 -13.094   1.070  1.00  0.00    -0.333 N 
HETATM    2  H   UNL     1      37.887 -13.088   0.543  1.00  0.00     0.168 HD
ENDROOT
BRANCH   1   3
HETATM    3  C   UNL     1      39.178 -11.852   1.533  1.00  0.00     0.179 C 
HETATM    4  S   UNL     1      40.395 -11.060   0.723  1.00  0.00    -0.040 SA
BRANCH   3   5
HETATM    5  N   UNL     1      38.559 -11.453   2.722  1.00  0.00    -0.299 N 
HETATM    6  C   UNL     1      38.795 -11.434   4.088  1.00  0.00     0.257 C 
HETATM    7  O   UNL     1      38.107 -10.689   4.790  1.00  0.00    -0.267 OA
HETATM    8  H   UNL     1      37.715 -10.916   2.574  1.00  0.00     0.171 HD
BRANCH   6   9
HETATM    9  C   UNL     1      39.838 -12.224   4.745  1.00  0.00     0.032 A 
HETATM   10  C   UNL     1      39.422 -13.285   5.560  1.00  0.00     0.020 A 
HETATM   11  C   UNL     1      40.332 -14.274   5.922  1.00  0.00     0.038 A 
HETATM   12  C   UNL     1      41.635 -14.217   5.427  1.00  0.00     0.068 A 
HETATM   13  C   UNL     1      42.075 -13.120   4.685  1.00  0.00     0.038 A 
HETATM   14  C   UNL     1      41.168 -12.123   4.322  1.00  0.00     0.020 A 
BRANCH  12  15
HETATM   15  O   UNL     1      42.510 -15.255   5.614  1.00  0.00    -0.351 OA
BRANCH  15  16
HETATM   16  C   UNL     1      43.657 -14.837   6.374  1.00  0.00     0.175 C 
BRANCH  16  17
HETATM   17  C   UNL     1      44.342 -16.069   6.964  1.00  0.00     0.026 C 
BRANCH  17  18
HETATM   18  C   UNL     1      43.374 -16.883   7.821  1.00  0.00    -0.002 C 
HETATM   19  C   UNL     1      43.987 -18.203   8.261  1.00  0.00     0.005 C 
ENDBRANCH  17  18
ENDBRANCH  16  17
ENDBRANCH  15  16
ENDBRANCH  12  15
ENDBRANCH   6   9
ENDBRANCH   3   5
ENDBRANCH   1   3
BRANCH   1  20
HETATM   20  C   UNL     1      39.457 -14.314   1.185  1.00  0.00     0.036 C 
HETATM   21  C   UNL     1      40.269 -14.743   0.137  1.00  0.00     0.067 C 
HETATM   22  C   UNL     1      41.171 -15.796   0.354  1.00  0.00     0.082 C 
HETATM   23  C   UNL     1      41.237 -16.452   1.595  1.00  0.00     0.050 C 
HETATM   24  C   UNL     1      40.288 -16.114   2.569  1.00  0.00     0.021 C 
HETATM   25  C   UNL     1      39.403 -15.059   2.366  1.00  0.00     0.030 C 
BRANCH  22  26
HETATM   26  O   UNL     1      42.022 -16.162  -0.654  1.00  0.00    -0.360 OA
HETATM   27  H   UNL     1      42.201 -17.115  -0.609  1.00  0.00     0.217 HD
ENDBRANCH  22  26
BRANCH  23  28
HETATM   28  C   UNL     1      42.291 -17.384   1.989  1.00  0.00     0.183 A 
HETATM   29  O   UNL     1      42.744 -17.289   3.282  1.00  0.00    -0.289 OA
HETATM   30  C   UNL     1      43.460 -18.434   3.468  1.00  0.00     0.106 A 
HETATM   31  C   UNL     1      43.419 -19.156   2.287  1.00  0.00     0.093 A 
HETATM   32  C   UNL     1      44.091 -18.856   4.631  1.00  0.00     0.040 A 
HETATM   33  N   UNL     1      42.688 -18.475   1.349  1.00  0.00    -0.221 NA
HETATM   34  C   UNL     1      44.050 -20.406   2.232  1.00  0.00     0.034 A 
HETATM   35  C   UNL     1      44.690 -20.873   3.390  1.00  0.00     0.002 A 
HETATM   36  C   UNL     1      44.710 -20.110   4.566  1.00  0.00     0.003 A 
ENDBRANCH  23  28
ENDBRANCH   1  20
TORSDOF 10
ENDMDL
MODEL 8
REMARK VINA RESULT:      -7.8      2.698      4.491
REMARK  10 active torsions:
REMARK  status: ('A' for Active; 'I' for Inactive)
REMARK    1  A    between atoms: C_2  and  C_3 
REMARK    2  A    between atoms: C_3  and  C_4 
REMARK    3  A    between atoms: C_4  and  O_5 
REMARK    4  A    between atoms: O_5  and  C_6 
REMARK    5  A    between atoms: C_9  and  C_10 
REMARK       I    between atoms: C_10  and  N_11 
REMARK    6  A    between atoms: N_11  and  C_12 
REMARK    7  A    between atoms: C_12  and  N_13 
REMARK    8  A    between atoms: N_13  and  C_14 
REMARK    9  A    between atoms: C_16  and  O_17 
REMARK   10  A    between atoms: C_18  and  C_19 
ROOT
HETATM    1  N   UNL     1      44.239 -18.605   3.939  1.00  0.00    -0.333 N 
HETATM    2  H   UNL     1      44.851 -17.959   4.428  1.00  0.00     0.168 HD
ENDROOT
BRANCH   1   3
HETATM    3  C   UNL     1      44.368 -19.940   4.308  1.00  0.00     0.179 C 
HETATM    4  S   UNL     1      44.520 -21.096   3.122  1.00  0.00    -0.040 SA
BRANCH   3   5
HETATM    5  N   UNL     1      44.261 -20.158   5.686  1.00  0.00    -0.299 N 
HETATM    6  C   UNL     1      43.833 -19.508   6.833  1.00  0.00     0.257 C 
HETATM    7  O   UNL     1      43.614 -20.186   7.840  1.00  0.00    -0.267 OA
HETATM    8  H   UNL     1      44.457 -21.111   5.957  1.00  0.00     0.171 HD
BRANCH   6   9
HETATM    9  C   UNL     1      43.594 -18.067   6.911  1.00  0.00     0.032 A 
HETATM   10  C   UNL     1      44.713 -17.225   6.856  1.00  0.00     0.020 A 
HETATM   11  C   UNL     1      44.546 -15.874   6.572  1.00  0.00     0.038 A 
HETATM   12  C   UNL     1      43.268 -15.385   6.301  1.00  0.00     0.068 A 
HETATM   13  C   UNL     1      42.143 -16.200   6.437  1.00  0.00     0.038 A 
HETATM   14  C   UNL     1      42.304 -17.556   6.725  1.00  0.00     0.020 A 
BRANCH  12  15
HETATM   15  O   UNL     1      43.080 -14.105   5.849  1.00  0.00    -0.351 OA
BRANCH  15  16
HETATM   16  C   UNL     1      43.578 -13.950   4.508  1.00  0.00     0.175 C 
BRANCH  16  17
HETATM   17  C   UNL     1      42.397 -13.818   3.549  1.00  0.00     0.026 C 
BRANCH  17  18
HETATM   18  C   UNL     1      41.213 -13.122   4.219  1.00  0.00    -0.002 C 
HETATM   19  C   UNL     1      39.904 -13.836   3.930  1.00  0.00     0.005 C 
ENDBRANCH  17  18
ENDBRANCH  16  17
ENDBRANCH  15  16
ENDBRANCH  12  15
ENDBRANCH   6   9
ENDBRANCH   3   5
ENDBRANCH   1   3
BRANCH   1  20
HETATM   20  C   UNL     1      43.421 -18.098   2.905  1.00  0.00     0.036 C 
HETATM   21  C   UNL     1      42.055 -17.932   3.128  1.00  0.00     0.067 C 
HETATM   22  C   UNL     1      41.298 -17.180   2.215  1.00  0.00     0.082 C 
HETATM   23  C   UNL     1      41.884 -16.633   1.062  1.00  0.00     0.050 C 
HETATM   24  C   UNL     1      43.216 -16.966   0.779  1.00  0.00     0.021 C 
HETATM   25  C   UNL     1      43.976 -17.694   1.688  1.00  0.00     0.030 C 
BRANCH  22  26
HETATM   26  O   UNL     1      39.973 -16.953   2.478  1.00  0.00    -0.360 OA
HETATM   27  H   UNL     1      39.421 -17.396   1.814  1.00  0.00     0.217 HD
ENDBRANCH  22  26
BRANCH  23  28
HETATM   28  C   UNL     1      41.245 -15.650   0.189  1.00  0.00     0.183 A 
HETATM   29  O   UNL     1      41.388 -15.843  -1.162  1.00  0.00    -0.289 OA
HETATM   30  C   UNL     1      40.464 -15.007  -1.716  1.00  0.00     0.106 A 
HETATM   31  C   UNL     1      39.822 -14.342  -0.686  1.00  0.00     0.093 A 
HETATM   32  C   UNL     1      40.164 -14.855  -3.064  1.00  0.00     0.040 A 
HETATM   33  N   UNL     1      40.334 -14.745   0.520  1.00  0.00    -0.221 NA
HETATM   34  C   UNL     1      38.789 -13.448  -0.994  1.00  0.00     0.034 A 
HETATM   35  C   UNL     1      38.447 -13.273  -2.343  1.00  0.00     0.002 A 
HETATM   36  C   UNL     1      39.124 -13.965  -3.358  1.00  0.00     0.003 A 
ENDBRANCH  23  28
ENDBRANCH   1  20
TORSDOF 10
ENDMDL
MODEL 9
REMARK VINA RESULT:      -7.8      3.188      6.151
REMARK  10 active torsions:
REMARK  status: ('A' for Active; 'I' for Inactive)
REMARK    1  A    between atoms: C_2  and  C_3 
REMARK    2  A    between atoms: C_3  and  C_4 
REMARK    3  A    between atoms: C_4  and  O_5 
REMARK    4  A    between atoms: O_5  and  C_6 
REMARK    5  A    between atoms: C_9  and  C_10 
REMARK       I    between atoms: C_10  and  N_11 
REMARK    6  A    between atoms: N_11  and  C_12 
REMARK    7  A    between atoms: C_12  and  N_13 
REMARK    8  A    between atoms: N_13  and  C_14 
REMARK    9  A    between atoms: C_16  and  O_17 
REMARK   10  A    between atoms: C_18  and  C_19 
ROOT
HETATM    1  N   UNL     1      42.098 -12.135   1.674  1.00  0.00    -0.333 N 
HETATM    2  H   UNL     1      42.884 -11.651   1.251  1.00  0.00     0.168 HD
ENDROOT
BRANCH   1   3
HETATM    3  C   UNL     1      40.982 -11.346   1.932  1.00  0.00     0.179 C 
HETATM    4  S   UNL     1      39.775 -11.256   0.791  1.00  0.00    -0.040 SA
BRANCH   3   5
HETATM    5  N   UNL     1      41.062 -10.631   3.131  1.00  0.00    -0.299 N 
HETATM    6  C   UNL     1      41.191 -10.852   4.494  1.00  0.00     0.257 C 
HETATM    7  O   UNL     1      41.545  -9.911   5.207  1.00  0.00    -0.267 OA
HETATM    8  H   UNL     1      41.156  -9.633   2.997  1.00  0.00     0.171 HD
BRANCH   6   9
HETATM    9  C   UNL     1      40.964 -12.149   5.132  1.00  0.00     0.032 A 
HETATM   10  C   UNL     1      39.797 -12.841   4.784  1.00  0.00     0.020 A 
HETATM   11  C   UNL     1      39.689 -14.199   5.067  1.00  0.00     0.038 A 
HETATM   12  C   UNL     1      40.767 -14.862   5.654  1.00  0.00     0.068 A 
HETATM   13  C   UNL     1      41.898 -14.161   6.078  1.00  0.00     0.038 A 
HETATM   14  C   UNL     1      42.009 -12.798   5.799  1.00  0.00     0.020 A 
BRANCH  12  15
HETATM   15  O   UNL     1      40.772 -16.225   5.791  1.00  0.00    -0.351 OA
BRANCH  15  16
HETATM   16  C   UNL     1      42.113 -16.729   5.922  1.00  0.00     0.175 C 
BRANCH  16  17
HETATM   17  C   UNL     1      42.255 -17.422   7.276  1.00  0.00     0.026 C 
BRANCH  17  18
HETATM   18  C   UNL     1      43.649 -17.207   7.865  1.00  0.00    -0.002 C 
HETATM   19  C   UNL     1      44.736 -17.739   6.947  1.00  0.00     0.005 C 
ENDBRANCH  17  18
ENDBRANCH  16  17
ENDBRANCH  15  16
ENDBRANCH  12  15
ENDBRANCH   6   9
ENDBRANCH   3   5
ENDBRANCH   1   3
BRANCH   1  20
HETATM   20  C   UNL     1      42.263 -13.493   2.026  1.00  0.00     0.036 C 
HETATM   21  C   UNL     1      41.416 -14.455   1.475  1.00  0.00     0.067 C 
HETATM   22  C   UNL     1      41.747 -15.813   1.601  1.00  0.00     0.082 C 
HETATM   23  C   UNL     1      42.889 -16.220   2.311  1.00  0.00     0.050 C 
HETATM   24  C   UNL     1      43.620 -15.241   3.000  1.00  0.00     0.021 C 
HETATM   25  C   UNL     1      43.308 -13.892   2.863  1.00  0.00     0.030 C 
BRANCH  22  26
HETATM   26  O   UNL     1      40.956 -16.750   0.992  1.00  0.00    -0.360 OA
HETATM   27  H   UNL     1      40.038 -16.658   1.294  1.00  0.00     0.217 HD
ENDBRANCH  22  26
BRANCH  23  28
HETATM   28  C   UNL     1      43.441 -17.573   2.297  1.00  0.00     0.183 A 
HETATM   29  O   UNL     1      44.102 -17.980   3.429  1.00  0.00    -0.289 OA
HETATM   30  C   UNL     1      44.224 -19.329   3.275  1.00  0.00     0.106 A 
HETATM   31  C   UNL     1      43.651 -19.671   2.063  1.00  0.00     0.093 A 
HETATM   32  C   UNL     1      44.779 -20.233   4.172  1.00  0.00     0.040 A 
HETATM   33  N   UNL     1      43.169 -18.548   1.441  1.00  0.00    -0.221 NA
HETATM   34  C   UNL     1      43.609 -21.020   1.687  1.00  0.00     0.034 A 
HETATM   35  C   UNL     1      44.149 -21.968   2.570  1.00  0.00     0.002 A 
HETATM   36  C   UNL     1      44.723 -21.579   3.788  1.00  0.00     0.003 A 
ENDBRANCH  23  28
ENDBRANCH   1  20
TORSDOF 10
ENDMDL
MODEL 10
REMARK VINA RESULT:      -7.8      2.811      7.528
REMARK  10 active torsions:
REMARK  status: ('A' for Active; 'I' for Inactive)
REMARK    1  A    between atoms: C_2  and  C_3 
REMARK    2  A    between atoms: C_3  and  C_4 
REMARK    3  A    between atoms: C_4  and  O_5 
REMARK    4  A    between atoms: O_5  and  C_6 
REMARK    5  A    between atoms: C_9  and  C_10 
REMARK       I    between atoms: C_10  and  N_11 
REMARK    6  A    between atoms: N_11  and  C_12 
REMARK    7  A    between atoms: C_12  and  N_13 
REMARK    8  A    between atoms: N_13  and  C_14 
REMARK    9  A    between atoms: C_16  and  O_17 
REMARK   10  A    between atoms: C_18  and  C_19 
ROOT
HETATM    1  N   UNL     1      40.387 -11.706   3.290  1.00  0.00    -0.333 N 
HETATM    2  H   UNL     1      40.180 -11.063   4.047  1.00  0.00     0.168 HD
ENDROOT
BRANCH   1   3
HETATM    3  C   UNL     1      40.351 -11.153   2.013  1.00  0.00     0.179 C 
HETATM    4  S   UNL     1      38.890 -10.670   1.383  1.00  0.00    -0.040 SA
BRANCH   3   5
HETATM    5  N   UNL     1      41.589 -11.156   1.362  1.00  0.00    -0.299 N 
HETATM    6  C   UNL     1      42.157 -11.553   0.161  1.00  0.00     0.257 C 
HETATM    7  O   UNL     1      43.252 -11.078  -0.152  1.00  0.00    -0.267 OA
HETATM    8  H   UNL     1      42.298 -10.622   1.847  1.00  0.00     0.171 HD
BRANCH   6   9
HETATM    9  C   UNL     1      41.518 -12.478  -0.774  1.00  0.00     0.032 A 
HETATM   10  C   UNL     1      41.357 -12.045  -2.098  1.00  0.00     0.020 A 
HETATM   11  C   UNL     1      41.091 -12.974  -3.099  1.00  0.00     0.038 A 
HETATM   12  C   UNL     1      41.034 -14.330  -2.777  1.00  0.00     0.068 A 
HETATM   13  C   UNL     1      41.112 -14.756  -1.450  1.00  0.00     0.038 A 
HETATM   14  C   UNL     1      41.374 -13.829  -0.440  1.00  0.00     0.020 A 
BRANCH  12  15
HETATM   15  O   UNL     1      40.950 -15.287  -3.753  1.00  0.00    -0.351 OA
BRANCH  15  16
HETATM   16  C   UNL     1      39.927 -16.252  -3.446  1.00  0.00     0.175 C 
BRANCH  16  17
HETATM   17  C   UNL     1      38.695 -15.962  -4.300  1.00  0.00     0.026 C 
BRANCH  17  18
HETATM   18  C   UNL     1      37.601 -15.278  -3.481  1.00  0.00    -0.002 C 
HETATM   19  C   UNL     1      36.657 -14.477  -4.362  1.00  0.00     0.005 C 
ENDBRANCH  17  18
ENDBRANCH  16  17
ENDBRANCH  15  16
ENDBRANCH  12  15
ENDBRANCH   6   9
ENDBRANCH   3   5
ENDBRANCH   1   3
BRANCH   1  20
HETATM   20  C   UNL     1      40.590 -13.067   3.606  1.00  0.00     0.036 C 
HETATM   21  C   UNL     1      39.866 -14.047   2.928  1.00  0.00     0.067 C 
HETATM   22  C   UNL     1      40.258 -15.390   3.039  1.00  0.00     0.082 C 
HETATM   23  C   UNL     1      41.337 -15.767   3.857  1.00  0.00     0.050 C 
HETATM   24  C   UNL     1      41.931 -14.783   4.659  1.00  0.00     0.021 C 
HETATM   25  C   UNL     1      41.559 -13.447   4.539  1.00  0.00     0.030 C 
BRANCH  22  26
HETATM   26  O   UNL     1      39.594 -16.340   2.310  1.00  0.00    -0.360 OA
HETATM   27  H   UNL     1      38.985 -16.833   2.883  1.00  0.00     0.217 HD
ENDBRANCH  22  26
BRANCH  23  28
HETATM   28  C   UNL     1      41.964 -17.087   3.852  1.00  0.00     0.183 A 
HETATM   29  O   UNL     1      42.028 -17.733   2.643  1.00  0.00    -0.289 OA
HETATM   30  C   UNL     1      42.909 -18.751   2.857  1.00  0.00     0.106 A 
HETATM   31  C   UNL     1      43.322 -18.684   4.177  1.00  0.00     0.093 A 
HETATM   32  C   UNL     1      43.367 -19.680   1.931  1.00  0.00     0.040 A 
HETATM   33  N   UNL     1      42.706 -17.634   4.805  1.00  0.00    -0.221 NA
HETATM   34  C   UNL     1      44.271 -19.604   4.640  1.00  0.00     0.034 A 
HETATM   35  C   UNL     1      44.768 -20.553   3.733  1.00  0.00     0.002 A 
HETATM   36  C   UNL     1      44.322 -20.589   2.404  1.00  0.00     0.003 A 
ENDBRANCH  23  28
ENDBRANCH   1  20
TORSDOF 10
ENDMDL
