MODEL 1
REMARK VINA RESULT:      -8.7      0.000      0.000
REMARK  6 active torsions:
REMARK  status: ('A' for Active; 'I' for Inactive)
REMARK    1  A    between atoms: C_3  and  N_4 
REMARK       I    between atoms: N_4  and  C_5 
REMARK       I    between atoms: C_5  and  N_6 
REMARK    2  A    between atoms: N_6  and  C_7 
REMARK    3  A    between atoms: C_7  and  C_8 
REMARK    4  A    between atoms: C_10  and  C_11 
REMARK       I    between atoms: C_11  and  N_12 
REMARK    5  A    between atoms: N_12  and  C_13 
REMARK    6  A    between atoms: C_13  and  C_14 
ROOT
HETATM    1  C   UNL     1      44.273 -14.070   6.914  1.00  0.00    -0.040 A 
HETATM    2  C   UNL     1      44.461 -15.457   7.024  1.00  0.00     0.026 A 
HETATM    3  C   UNL     1      43.826 -16.338   6.140  1.00  0.00     0.032 A 
HETATM    4  C   UNL     1      42.962 -15.833   5.165  1.00  0.00     0.017 A 
HETATM    5  C   UNL     1      42.768 -14.455   5.049  1.00  0.00     0.002 A 
HETATM    6  C   UNL     1      43.429 -13.578   5.910  1.00  0.00     0.009 A 
ENDROOT
BRANCH   1   7
HETATM    7  C   UNL     1      45.006 -13.139   7.846  1.00  0.00     0.162 C 
BRANCH   7   8
HETATM    8  N   UNL     1      44.370 -13.043   9.145  1.00  0.00    -0.339 N 
HETATM    9  C   UNL     1      43.774 -11.861   9.550  1.00  0.00     0.321 C 
HETATM   10  N   UNL     1      43.299 -11.991  10.835  1.00  0.00    -0.307 N 
HETATM   11  O   UNL     1      43.676 -10.884   8.824  1.00  0.00    -0.247 OA
HETATM   12  H   UNL     1      43.075 -12.950  11.062  1.00  0.00     0.170 HD
HETATM   13  H   UNL     1      44.817 -13.557   9.888  1.00  0.00     0.164 HD
BRANCH  10  14
HETATM   14  C   UNL     1      42.706 -11.011  11.667  1.00  0.00     0.059 A 
HETATM   15  C   UNL     1      41.361 -10.617  11.696  1.00  0.00    -0.032 A 
HETATM   16  C   UNL     1      40.280 -11.139  10.796  1.00  0.00     0.050 C 
HETATM   17  C   UNL     1      40.976  -9.635  12.633  1.00  0.00     0.028 A 
HETATM   18  C   UNL     1      41.928  -9.047  13.448  1.00  0.00     0.117 A 
HETATM   19  N   UNL     1      43.234  -9.360  13.406  1.00  0.00    -0.271 NA
HETATM   20  C   UNL     1      43.581 -10.326  12.524  1.00  0.00     0.146 A 
ENDBRANCH  10  14
ENDBRANCH   7   8
ENDBRANCH   1   7
BRANCH   3  21
HETATM   21  C   UNL     1      44.037 -17.809   6.222  1.00  0.00     0.252 C 
HETATM   22  N   UNL     1      44.545 -18.414   5.098  1.00  0.00    -0.351 N 
HETATM   23  H   UNL     1      44.736 -17.886   4.255  1.00  0.00     0.163 HD
HETATM   24  O   UNL     1      43.747 -18.421   7.245  1.00  0.00    -0.268 OA
BRANCH  22  25
HETATM   25  C   UNL     1      44.889 -19.815   5.091  1.00  0.00     0.187 C 
BRANCH  25  26
HETATM   26  C   UNL     1      44.468 -20.420   3.801  1.00  0.00     0.070 A 
HETATM   27  O   UNL     1      44.735 -21.748   3.619  1.00  0.00    -0.325 OA
HETATM   28  C   UNL     1      44.282 -22.081   2.385  1.00  0.00     0.142 A 
HETATM   29  C   UNL     1      43.713 -20.991   1.770  1.00  0.00     0.027 A 
HETATM   30  C   UNL     1      43.831 -19.916   2.684  1.00  0.00     0.036 A 
ENDBRANCH  25  26
ENDBRANCH  22  25
ENDBRANCH   3  21
TORSDOF 6
ENDMDL
MODEL 2
REMARK VINA RESULT:      -8.3      4.481      8.835
REMARK  6 active torsions:
REMARK  status: ('A' for Active; 'I' for Inactive)
REMARK    1  A    between atoms: C_3  and  N_4 
REMARK       I    between atoms: N_4  and  C_5 
REMARK       I    between atoms: C_5  and  N_6 
REMARK    2  A    between atoms: N_6  and  C_7 
REMARK    3  A    between atoms: C_7  and  C_8 
REMARK    4  A    between atoms: C_10  and  C_11 
REMARK       I    between atoms: C_11  and  N_12 
REMARK    5  A    between atoms: N_12  and  C_13 
REMARK    6  A    between atoms: C_13  and  C_14 
ROOT
HETATM    1  C   UNL     1      44.165 -20.606   3.139  1.00  0.00    -0.040 A 
HETATM    2  C   UNL     1      43.958 -19.795   4.266  1.00  0.00     0.026 A 
HETATM    3  C   UNL     1      44.181 -20.290   5.556  1.00  0.00     0.032 A 
HETATM    4  C   UNL     1      44.573 -21.621   5.726  1.00  0.00     0.017 A 
HETATM    5  C   UNL     1      44.781 -22.436   4.611  1.00  0.00     0.002 A 
HETATM    6  C   UNL     1      44.589 -21.928   3.325  1.00  0.00     0.009 A 
ENDROOT
BRANCH   1   7
HETATM    7  C   UNL     1      43.965 -20.036   1.758  1.00  0.00     0.162 C 
BRANCH   7   8
HETATM    8  N   UNL     1      42.962 -18.989   1.731  1.00  0.00    -0.339 N 
HETATM    9  C   UNL     1      43.310 -17.691   1.401  1.00  0.00     0.321 C 
HETATM   10  N   UNL     1      42.211 -16.869   1.508  1.00  0.00    -0.307 N 
HETATM   11  O   UNL     1      44.432 -17.376   1.038  1.00  0.00    -0.247 OA
HETATM   12  H   UNL     1      41.346 -17.372   1.369  1.00  0.00     0.170 HD
HETATM   13  H   UNL     1      42.242 -19.059   2.434  1.00  0.00     0.164 HD
BRANCH  10  14
HETATM   14  C   UNL     1      42.134 -15.465   1.354  1.00  0.00     0.059 A 
HETATM   15  C   UNL     1      41.610 -14.752   0.265  1.00  0.00    -0.032 A 
HETATM   16  C   UNL     1      41.063 -15.363  -0.992  1.00  0.00     0.050 C 
HETATM   17  C   UNL     1      41.604 -13.344   0.332  1.00  0.00     0.028 A 
HETATM   18  C   UNL     1      42.160 -12.702   1.425  1.00  0.00     0.117 A 
HETATM   19  N   UNL     1      42.722 -13.352   2.458  1.00  0.00    -0.271 NA
HETATM   20  C   UNL     1      42.691 -14.703   2.392  1.00  0.00     0.146 A 
ENDBRANCH  10  14
ENDBRANCH   7   8
ENDBRANCH   1   7
BRANCH   3  21
HETATM   21  C   UNL     1      43.996 -19.435   6.760  1.00  0.00     0.252 C 
HETATM   22  N   UNL     1      44.225 -18.090   6.593  1.00  0.00    -0.351 N 
HETATM   23  H   UNL     1      44.529 -17.713   5.702  1.00  0.00     0.163 HD
HETATM   24  O   UNL     1      43.675 -19.936   7.832  1.00  0.00    -0.268 OA
BRANCH  22  25
HETATM   25  C   UNL     1      43.979 -17.149   7.658  1.00  0.00     0.187 C 
BRANCH  25  26
HETATM   26  C   UNL     1      43.951 -15.772   7.103  1.00  0.00     0.070 A 
HETATM   27  O   UNL     1      44.455 -14.773   7.888  1.00  0.00    -0.325 OA
HETATM   28  C   UNL     1      44.318 -13.614   7.197  1.00  0.00     0.142 A 
HETATM   29  C   UNL     1      43.746 -13.850   5.969  1.00  0.00     0.027 A 
HETATM   30  C   UNL     1      43.509 -15.244   5.906  1.00  0.00     0.036 A 
ENDBRANCH  25  26
ENDBRANCH  22  25
ENDBRANCH   3  21
TORSDOF 6
ENDMDL
MODEL 3
REMARK VINA RESULT:      -8.2      2.624     10.158
REMARK  6 active torsions:
REMARK  status: ('A' for Active; 'I' for Inactive)
REMARK    1  A    between atoms: C_3  and  N_4 
REMARK       I    between atoms: N_4  and  C_5 
REMARK       I    between atoms: C_5  and  N_6 
REMARK    2  A    between atoms: N_6  and  C_7 
REMARK    3  A    between atoms: C_7  and  C_8 
REMARK    4  A    between atoms: C_10  and  C_11 
REMARK       I    between atoms: C_11  and  N_12 
REMARK    5  A    between atoms: N_12  and  C_13 
REMARK    6  A    between atoms: C_13  and  C_14 
ROOT
HETATM    1  C   UNL     1      42.157 -15.047   3.491  1.00  0.00    -0.040 A 
HETATM    2  C   UNL     1      43.278 -14.634   4.228  1.00  0.00     0.026 A 
HETATM    3  C   UNL     1      43.135 -14.124   5.524  1.00  0.00     0.032 A 
HETATM    4  C   UNL     1      41.857 -13.984   6.072  1.00  0.00     0.017 A 
HETATM    5  C   UNL     1      40.736 -14.391   5.346  1.00  0.00     0.002 A 
HETATM    6  C   UNL     1      40.886 -14.931   4.068  1.00  0.00     0.009 A 
ENDROOT
BRANCH   1   7
HETATM    7  C   UNL     1      42.341 -15.640   2.116  1.00  0.00     0.162 C 
BRANCH   7   8
HETATM    8  N   UNL     1      43.332 -16.698   2.099  1.00  0.00    -0.339 N 
HETATM    9  C   UNL     1      43.063 -17.922   2.685  1.00  0.00     0.321 C 
HETATM   10  N   UNL     1      44.169 -18.736   2.601  1.00  0.00    -0.307 N 
HETATM   11  O   UNL     1      41.976 -18.205   3.163  1.00  0.00    -0.247 OA
HETATM   12  H   UNL     1      44.754 -18.501   1.811  1.00  0.00     0.170 HD
HETATM   13  H   UNL     1      44.291 -16.398   2.187  1.00  0.00     0.164 HD
BRANCH  10  14
HETATM   14  C   UNL     1      44.366 -20.027   3.145  1.00  0.00     0.059 A 
HETATM   15  C   UNL     1      44.663 -20.357   4.476  1.00  0.00    -0.032 A 
HETATM   16  C   UNL     1      44.878 -19.373   5.589  1.00  0.00     0.050 C 
HETATM   17  C   UNL     1      44.789 -21.720   4.811  1.00  0.00     0.028 A 
HETATM   18  C   UNL     1      44.680 -22.687   3.827  1.00  0.00     0.117 A 
HETATM   19  N   UNL     1      44.453 -22.404   2.533  1.00  0.00    -0.271 NA
HETATM   20  C   UNL     1      44.303 -21.092   2.234  1.00  0.00     0.146 A 
ENDBRANCH  10  14
ENDBRANCH   7   8
ENDBRANCH   1   7
BRANCH   3  21
HETATM   21  C   UNL     1      44.314 -13.710   6.332  1.00  0.00     0.252 C 
HETATM   22  N   UNL     1      44.056 -13.296   7.617  1.00  0.00    -0.351 N 
HETATM   23  H   UNL     1      43.110 -13.253   7.977  1.00  0.00     0.163 HD
HETATM   24  O   UNL     1      45.438 -13.730   5.843  1.00  0.00    -0.268 OA
BRANCH  22  25
HETATM   25  C   UNL     1      45.125 -12.970   8.528  1.00  0.00     0.187 C 
BRANCH  25  26
HETATM   26  C   UNL     1      44.579 -12.194   9.671  1.00  0.00     0.070 A 
HETATM   27  O   UNL     1      44.257 -12.892  10.801  1.00  0.00    -0.325 OA
HETATM   28  C   UNL     1      43.772 -11.997  11.699  1.00  0.00     0.142 A 
HETATM   29  C   UNL     1      43.788 -10.728  11.170  1.00  0.00     0.027 A 
HETATM   30  C   UNL     1      44.310 -10.853   9.860  1.00  0.00     0.036 A 
ENDBRANCH  25  26
ENDBRANCH  22  25
ENDBRANCH   3  21
TORSDOF 6
ENDMDL
MODEL 4
REMARK VINA RESULT:      -8.0      4.781     10.481
REMARK  6 active torsions:
REMARK  status: ('A' for Active; 'I' for Inactive)
REMARK    1  A    between atoms: C_3  and  N_4 
REMARK       I    between atoms: N_4  and  C_5 
REMARK       I    between atoms: C_5  and  N_6 
REMARK    2  A    between atoms: N_6  and  C_7 
REMARK    3  A    between atoms: C_7  and  C_8 
REMARK    4  A    between atoms: C_10  and  C_11 
REMARK       I    between atoms: C_11  and  N_12 
REMARK    5  A    between atoms: N_12  and  C_13 
REMARK    6  A    between atoms: C_13  and  C_14 
ROOT
HETATM    1  C   UNL     1      42.332 -17.243   3.922  1.00  0.00    -0.040 A 
HETATM    2  C   UNL     1      43.171 -16.174   4.274  1.00  0.00     0.026 A 
HETATM    3  C   UNL     1      43.029 -15.529   5.508  1.00  0.00     0.032 A 
HETATM    4  C   UNL     1      42.014 -15.926   6.381  1.00  0.00     0.017 A 
HETATM    5  C   UNL     1      41.174 -16.988   6.040  1.00  0.00     0.002 A 
HETATM    6  C   UNL     1      41.340 -17.652   4.823  1.00  0.00     0.009 A 
ENDROOT
BRANCH   1   7
HETATM    7  C   UNL     1      42.536 -17.955   2.608  1.00  0.00     0.162 C 
BRANCH   7   8
HETATM    8  N   UNL     1      42.629 -17.036   1.491  1.00  0.00    -0.339 N 
HETATM    9  C   UNL     1      41.491 -16.637   0.812  1.00  0.00     0.321 C 
HETATM   10  N   UNL     1      41.835 -15.822  -0.242  1.00  0.00    -0.307 N 
HETATM   11  O   UNL     1      40.365 -16.957   1.158  1.00  0.00    -0.247 OA
HETATM   12  H   UNL     1      42.705 -15.336  -0.078  1.00  0.00     0.170 HD
HETATM   13  H   UNL     1      43.444 -17.143   0.906  1.00  0.00     0.164 HD
BRANCH  10  14
HETATM   14  C   UNL     1      41.003 -15.267  -1.244  1.00  0.00     0.059 A 
HETATM   15  C   UNL     1      40.102 -14.200  -1.113  1.00  0.00    -0.032 A 
HETATM   16  C   UNL     1      39.810 -13.460   0.159  1.00  0.00     0.050 C 
HETATM   17  C   UNL     1      39.390 -13.786  -2.257  1.00  0.00     0.028 A 
HETATM   18  C   UNL     1      39.546 -14.467  -3.452  1.00  0.00     0.117 A 
HETATM   19  N   UNL     1      40.358 -15.528  -3.599  1.00  0.00    -0.271 NA
HETATM   20  C   UNL     1      41.057 -15.893  -2.499  1.00  0.00     0.146 A 
ENDBRANCH  10  14
ENDBRANCH   7   8
ENDBRANCH   1   7
BRANCH   3  21
HETATM   21  C   UNL     1      43.928 -14.413   5.910  1.00  0.00     0.252 C 
HETATM   22  N   UNL     1      44.195 -14.301   7.253  1.00  0.00    -0.351 N 
HETATM   23  H   UNL     1      43.777 -14.930   7.929  1.00  0.00     0.163 HD
HETATM   24  O   UNL     1      44.375 -13.642   5.067  1.00  0.00    -0.268 OA
BRANCH  22  25
HETATM   25  C   UNL     1      45.133 -13.325   7.753  1.00  0.00     0.187 C 
BRANCH  25  26
HETATM   26  C   UNL     1      44.516 -12.579   8.879  1.00  0.00     0.070 A 
HETATM   27  O   UNL     1      44.795 -13.017  10.144  1.00  0.00    -0.325 OA
HETATM   28  C   UNL     1      44.126 -12.209  11.003  1.00  0.00     0.142 A 
HETATM   29  C   UNL     1      43.428 -11.245  10.314  1.00  0.00     0.027 A 
HETATM   30  C   UNL     1      43.679 -11.483   8.941  1.00  0.00     0.036 A 
ENDBRANCH  25  26
ENDBRANCH  22  25
ENDBRANCH   3  21
TORSDOF 6
ENDMDL
MODEL 5
REMARK VINA RESULT:      -8.0      4.773      6.615
REMARK  6 active torsions:
REMARK  status: ('A' for Active; 'I' for Inactive)
REMARK    1  A    between atoms: C_3  and  N_4 
REMARK       I    between atoms: N_4  and  C_5 
REMARK       I    between atoms: C_5  and  N_6 
REMARK    2  A    between atoms: N_6  and  C_7 
REMARK    3  A    between atoms: C_7  and  C_8 
REMARK    4  A    between atoms: C_10  and  C_11 
REMARK       I    between atoms: C_11  and  N_12 
REMARK    5  A    between atoms: N_12  and  C_13 
REMARK    6  A    between atoms: C_13  and  C_14 
ROOT
HETATM    1  C   UNL     1      43.264 -18.326   6.091  1.00  0.00    -0.040 A 
HETATM    2  C   UNL     1      42.968 -17.969   4.766  1.00  0.00     0.026 A 
HETATM    3  C   UNL     1      43.473 -18.713   3.693  1.00  0.00     0.032 A 
HETATM    4  C   UNL     1      44.317 -19.799   3.944  1.00  0.00     0.017 A 
HETATM    5  C   UNL     1      44.618 -20.161   5.259  1.00  0.00     0.002 A 
HETATM    6  C   UNL     1      44.085 -19.437   6.326  1.00  0.00     0.009 A 
ENDROOT
BRANCH   1   7
HETATM    7  C   UNL     1      42.669 -17.538   7.230  1.00  0.00     0.162 C 
BRANCH   7   8
HETATM    8  N   UNL     1      42.576 -16.122   6.935  1.00  0.00    -0.339 N 
HETATM    9  C   UNL     1      41.434 -15.598   6.356  1.00  0.00     0.321 C 
HETATM   10  N   UNL     1      41.605 -14.255   6.111  1.00  0.00    -0.307 N 
HETATM   11  O   UNL     1      40.431 -16.263   6.145  1.00  0.00    -0.247 OA
HETATM   12  H   UNL     1      42.270 -13.835   6.745  1.00  0.00     0.170 HD
HETATM   13  H   UNL     1      43.432 -15.684   6.631  1.00  0.00     0.164 HD
BRANCH  10  14
HETATM   14  C   UNL     1      40.734 -13.353   5.453  1.00  0.00     0.059 A 
HETATM   15  C   UNL     1      40.854 -12.848   4.150  1.00  0.00    -0.032 A 
HETATM   16  C   UNL     1      41.982 -13.139   3.204  1.00  0.00     0.050 C 
HETATM   17  C   UNL     1      39.849 -11.978   3.680  1.00  0.00     0.028 A 
HETATM   18  C   UNL     1      38.814 -11.599   4.517  1.00  0.00     0.117 A 
HETATM   19  N   UNL     1      38.700 -12.019   5.789  1.00  0.00    -0.271 NA
HETATM   20  C   UNL     1      39.655 -12.878   6.215  1.00  0.00     0.146 A 
ENDBRANCH  10  14
ENDBRANCH   7   8
ENDBRANCH   1   7
BRANCH   3  21
HETATM   21  C   UNL     1      43.145 -18.367   2.284  1.00  0.00     0.252 C 
HETATM   22  N   UNL     1      42.301 -17.298   2.100  1.00  0.00    -0.351 N 
HETATM   23  H   UNL     1      41.907 -16.795   2.887  1.00  0.00     0.163 HD
HETATM   24  O   UNL     1      43.603 -19.032   1.360  1.00  0.00    -0.268 OA
BRANCH  22  25
HETATM   25  C   UNL     1      41.993 -16.804   0.780  1.00  0.00     0.187 C 
BRANCH  25  26
HETATM   26  C   UNL     1      40.861 -15.846   0.864  1.00  0.00     0.070 A 
HETATM   27  O   UNL     1      39.954 -16.039   1.868  1.00  0.00    -0.325 OA
HETATM   28  C   UNL     1      39.013 -15.070   1.747  1.00  0.00     0.142 A 
HETATM   29  C   UNL     1      39.305 -14.244   0.688  1.00  0.00     0.027 A 
HETATM   30  C   UNL     1      40.500 -14.744   0.116  1.00  0.00     0.036 A 
ENDBRANCH  25  26
ENDBRANCH  22  25
ENDBRANCH   3  21
TORSDOF 6
ENDMDL
MODEL 6
REMARK VINA RESULT:      -8.0      1.837      2.421
REMARK  6 active torsions:
REMARK  status: ('A' for Active; 'I' for Inactive)
REMARK    1  A    between atoms: C_3  and  N_4 
REMARK       I    between atoms: N_4  and  C_5 
REMARK       I    between atoms: C_5  and  N_6 
REMARK    2  A    between atoms: N_6  and  C_7 
REMARK    3  A    between atoms: C_7  and  C_8 
REMARK    4  A    between atoms: C_10  and  C_11 
REMARK       I    between atoms: C_11  and  N_12 
REMARK    5  A    between atoms: N_12  and  C_13 
REMARK    6  A    between atoms: C_13  and  C_14 
ROOT
HETATM    1  C   UNL     1      41.279 -13.082   5.375  1.00  0.00    -0.040 A 
HETATM    2  C   UNL     1      42.236 -14.059   5.691  1.00  0.00     0.026 A 
HETATM    3  C   UNL     1      42.206 -15.317   5.079  1.00  0.00     0.032 A 
HETATM    4  C   UNL     1      41.185 -15.619   4.173  1.00  0.00     0.017 A 
HETATM    5  C   UNL     1      40.228 -14.655   3.852  1.00  0.00     0.002 A 
HETATM    6  C   UNL     1      40.281 -13.390   4.440  1.00  0.00     0.009 A 
ENDROOT
BRANCH   1   7
HETATM    7  C   UNL     1      41.361 -11.718   6.011  1.00  0.00     0.162 C 
BRANCH   7   8
HETATM    8  N   UNL     1      41.234 -11.772   7.453  1.00  0.00    -0.339 N 
HETATM    9  C   UNL     1      41.796 -10.787   8.247  1.00  0.00     0.321 C 
HETATM   10  N   UNL     1      41.602 -11.086   9.575  1.00  0.00    -0.307 N 
HETATM   11  O   UNL     1      42.343  -9.796   7.787  1.00  0.00    -0.247 OA
HETATM   12  H   UNL     1      40.780 -11.655   9.721  1.00  0.00     0.170 HD
HETATM   13  H   UNL     1      41.261 -12.695   7.858  1.00  0.00     0.164 HD
BRANCH  10  14
HETATM   14  C   UNL     1      42.086 -10.407  10.719  1.00  0.00     0.059 A 
HETATM   15  C   UNL     1      43.238 -10.702  11.464  1.00  0.00    -0.032 A 
HETATM   16  C   UNL     1      44.169 -11.851  11.208  1.00  0.00     0.050 C 
HETATM   17  C   UNL     1      43.553  -9.871  12.558  1.00  0.00     0.028 A 
HETATM   18  C   UNL     1      42.704  -8.835  12.906  1.00  0.00     0.117 A 
HETATM   19  N   UNL     1      41.564  -8.560  12.250  1.00  0.00    -0.271 NA
HETATM   20  C   UNL     1      41.292  -9.348  11.184  1.00  0.00     0.146 A 
ENDBRANCH  10  14
ENDBRANCH   7   8
ENDBRANCH   1   7
BRANCH   3  21
HETATM   21  C   UNL     1      43.231 -16.354   5.380  1.00  0.00     0.252 C 
HETATM   22  N   UNL     1      43.275 -17.431   4.528  1.00  0.00    -0.351 N 
HETATM   23  H   UNL     1      42.625 -17.520   3.755  1.00  0.00     0.163 HD
HETATM   24  O   UNL     1      43.967 -16.233   6.353  1.00  0.00    -0.268 OA
BRANCH  22  25
HETATM   25  C   UNL     1      44.291 -18.447   4.655  1.00  0.00     0.187 C 
BRANCH  25  26
HETATM   26  C   UNL     1      44.095 -19.475   3.601  1.00  0.00     0.070 A 
HETATM   27  O   UNL     1      44.739 -20.669   3.768  1.00  0.00    -0.325 OA
HETATM   28  C   UNL     1      44.434 -21.441   2.695  1.00  0.00     0.142 A 
HETATM   29  C   UNL     1      43.589 -20.769   1.843  1.00  0.00     0.027 A 
HETATM   30  C   UNL     1      43.369 -19.498   2.427  1.00  0.00     0.036 A 
ENDBRANCH  25  26
ENDBRANCH  22  25
ENDBRANCH   3  21
TORSDOF 6
ENDMDL
MODEL 7
REMARK VINA RESULT:      -7.9      4.618      9.570
REMARK  6 active torsions:
REMARK  status: ('A' for Active; 'I' for Inactive)
REMARK    1  A    between atoms: C_3  and  N_4 
REMARK       I    between atoms: N_4  and  C_5 
REMARK       I    between atoms: C_5  and  N_6 
REMARK    2  A    between atoms: N_6  and  C_7 
REMARK    3  A    between atoms: C_7  and  C_8 
REMARK    4  A    between atoms: C_10  and  C_11 
REMARK       I    between atoms: C_11  and  N_12 
REMARK    5  A    between atoms: N_12  and  C_13 
REMARK    6  A    between atoms: C_13  and  C_14 
ROOT
HETATM    1  C   UNL     1      43.895 -18.857   2.851  1.00  0.00    -0.040 A 
HETATM    2  C   UNL     1      43.659 -17.748   3.680  1.00  0.00     0.026 A 
HETATM    3  C   UNL     1      43.971 -17.793   5.043  1.00  0.00     0.032 A 
HETATM    4  C   UNL     1      44.484 -18.971   5.595  1.00  0.00     0.017 A 
HETATM    5  C   UNL     1      44.722 -20.079   4.779  1.00  0.00     0.002 A 
HETATM    6  C   UNL     1      44.440 -20.019   3.413  1.00  0.00     0.009 A 
ENDROOT
BRANCH   1   7
HETATM    7  C   UNL     1      43.596 -18.767   1.376  1.00  0.00     0.162 C 
BRANCH   7   8
HETATM    8  N   UNL     1      43.313 -17.411   0.951  1.00  0.00    -0.339 N 
HETATM    9  C   UNL     1      42.018 -17.020   0.660  1.00  0.00     0.321 C 
HETATM   10  N   UNL     1      42.008 -15.718   0.218  1.00  0.00    -0.307 N 
HETATM   11  O   UNL     1      41.052 -17.750   0.822  1.00  0.00    -0.247 OA
HETATM   12  H   UNL     1      42.786 -15.187   0.582  1.00  0.00     0.170 HD
HETATM   13  H   UNL     1      44.016 -16.982   0.368  1.00  0.00     0.164 HD
BRANCH  10  14
HETATM   14  C   UNL     1      40.921 -14.954  -0.271  1.00  0.00     0.059 A 
HETATM   15  C   UNL     1      39.848 -14.428   0.464  1.00  0.00    -0.032 A 
HETATM   16  C   UNL     1      39.621 -14.624   1.934  1.00  0.00     0.050 C 
HETATM   17  C   UNL     1      38.883 -13.664  -0.223  1.00  0.00     0.028 A 
HETATM   18  C   UNL     1      38.978 -13.500  -1.595  1.00  0.00     0.117 A 
HETATM   19  N   UNL     1      39.961 -14.038  -2.337  1.00  0.00    -0.271 NA
HETATM   20  C   UNL     1      40.896 -14.741  -1.658  1.00  0.00     0.146 A 
ENDBRANCH  10  14
ENDBRANCH   7   8
ENDBRANCH   1   7
BRANCH   3  21
HETATM   21  C   UNL     1      43.756 -16.618   5.930  1.00  0.00     0.252 C 
HETATM   22  N   UNL     1      43.596 -15.405   5.305  1.00  0.00    -0.351 N 
HETATM   23  H   UNL     1      43.651 -15.320   4.296  1.00  0.00     0.163 HD
HETATM   24  O   UNL     1      43.745 -16.755   7.149  1.00  0.00    -0.268 OA
BRANCH  22  25
HETATM   25  C   UNL     1      43.279 -14.212   6.051  1.00  0.00     0.187 C 
BRANCH  25  26
HETATM   26  C   UNL     1      41.849 -13.866   5.844  1.00  0.00     0.070 A 
HETATM   27  O   UNL     1      41.509 -12.545   5.932  1.00  0.00    -0.325 OA
HETATM   28  C   UNL     1      40.171 -12.463   5.724  1.00  0.00     0.142 A 
HETATM   29  C   UNL     1      39.642 -13.710   5.489  1.00  0.00     0.027 A 
HETATM   30  C   UNL     1      40.726 -14.619   5.565  1.00  0.00     0.036 A 
ENDBRANCH  25  26
ENDBRANCH  22  25
ENDBRANCH   3  21
TORSDOF 6
ENDMDL
MODEL 8
REMARK VINA RESULT:      -7.9      4.623      7.880
REMARK  6 active torsions:
REMARK  status: ('A' for Active; 'I' for Inactive)
REMARK    1  A    between atoms: C_3  and  N_4 
REMARK       I    between atoms: N_4  and  C_5 
REMARK       I    between atoms: C_5  and  N_6 
REMARK    2  A    between atoms: N_6  and  C_7 
REMARK    3  A    between atoms: C_7  and  C_8 
REMARK    4  A    between atoms: C_10  and  C_11 
REMARK       I    between atoms: C_11  and  N_12 
REMARK    5  A    between atoms: N_12  and  C_13 
REMARK    6  A    between atoms: C_13  and  C_14 
ROOT
HETATM    1  C   UNL     1      41.994 -14.607   5.981  1.00  0.00    -0.040 A 
HETATM    2  C   UNL     1      42.431 -15.941   5.995  1.00  0.00     0.026 A 
HETATM    3  C   UNL     1      43.743 -16.261   6.362  1.00  0.00     0.032 A 
HETATM    4  C   UNL     1      44.641 -15.237   6.677  1.00  0.00     0.017 A 
HETATM    5  C   UNL     1      44.216 -13.907   6.665  1.00  0.00     0.002 A 
HETATM    6  C   UNL     1      42.898 -13.594   6.331  1.00  0.00     0.009 A 
ENDROOT
BRANCH   1   7
HETATM    7  C   UNL     1      40.563 -14.290   5.629  1.00  0.00     0.162 C 
BRANCH   7   8
HETATM    8  N   UNL     1      40.139 -14.938   4.404  1.00  0.00    -0.339 N 
HETATM    9  C   UNL     1      40.632 -14.520   3.180  1.00  0.00     0.321 C 
HETATM   10  N   UNL     1      40.039 -15.234   2.165  1.00  0.00    -0.307 N 
HETATM   11  O   UNL     1      41.495 -13.662   3.070  1.00  0.00    -0.247 OA
HETATM   12  H   UNL     1      39.734 -16.147   2.472  1.00  0.00     0.170 HD
HETATM   13  H   UNL     1      39.176 -15.239   4.381  1.00  0.00     0.164 HD
BRANCH  10  14
HETATM   14  C   UNL     1      40.178 -15.073   0.766  1.00  0.00     0.059 A 
HETATM   15  C   UNL     1      41.103 -15.706  -0.078  1.00  0.00    -0.032 A 
HETATM   16  C   UNL     1      42.174 -16.660   0.363  1.00  0.00     0.050 C 
HETATM   17  C   UNL     1      41.046 -15.421  -1.458  1.00  0.00     0.028 A 
HETATM   18  C   UNL     1      40.136 -14.494  -1.936  1.00  0.00     0.117 A 
HETATM   19  N   UNL     1      39.276 -13.828  -1.148  1.00  0.00    -0.271 NA
HETATM   20  C   UNL     1      39.322 -14.136   0.169  1.00  0.00     0.146 A 
ENDBRANCH  10  14
ENDBRANCH   7   8
ENDBRANCH   1   7
BRANCH   3  21
HETATM   21  C   UNL     1      44.215 -17.672   6.412  1.00  0.00     0.252 C 
HETATM   22  N   UNL     1      44.346 -18.313   5.204  1.00  0.00    -0.351 N 
HETATM   23  H   UNL     1      44.107 -17.852   4.333  1.00  0.00     0.163 HD
HETATM   24  O   UNL     1      44.447 -18.210   7.489  1.00  0.00    -0.268 OA
BRANCH  22  25
HETATM   25  C   UNL     1      44.893 -19.645   5.116  1.00  0.00     0.187 C 
BRANCH  25  26
HETATM   26  C   UNL     1      44.474 -20.266   3.833  1.00  0.00     0.070 A 
HETATM   27  O   UNL     1      44.753 -21.594   3.664  1.00  0.00    -0.325 OA
HETATM   28  C   UNL     1      44.301 -21.943   2.434  1.00  0.00     0.142 A 
HETATM   29  C   UNL     1      43.720 -20.864   1.810  1.00  0.00     0.027 A 
HETATM   30  C   UNL     1      43.831 -19.780   2.714  1.00  0.00     0.036 A 
ENDBRANCH  25  26
ENDBRANCH  22  25
ENDBRANCH   3  21
TORSDOF 6
ENDMDL
MODEL 9
REMARK VINA RESULT:      -7.9      2.800      9.991
REMARK  6 active torsions:
REMARK  status: ('A' for Active; 'I' for Inactive)
REMARK    1  A    between atoms: C_3  and  N_4 
REMARK       I    between atoms: N_4  and  C_5 
REMARK       I    between atoms: C_5  and  N_6 
REMARK    2  A    between atoms: N_6  and  C_7 
REMARK    3  A    between atoms: C_7  and  C_8 
REMARK    4  A    between atoms: C_10  and  C_11 
REMARK       I    between atoms: C_11  and  N_12 
REMARK    5  A    between atoms: N_12  and  C_13 
REMARK    6  A    between atoms: C_13  and  C_14 
ROOT
HETATM    1  C   UNL     1      40.586 -13.442   5.193  1.00  0.00    -0.040 A 
HETATM    2  C   UNL     1      41.100 -12.629   6.215  1.00  0.00     0.026 A 
HETATM    3  C   UNL     1      41.070 -11.234   6.106  1.00  0.00     0.032 A 
HETATM    4  C   UNL     1      40.561 -10.645   4.945  1.00  0.00     0.017 A 
HETATM    5  C   UNL     1      40.048 -11.444   3.922  1.00  0.00     0.002 A 
HETATM    6  C   UNL     1      40.049 -12.834   4.050  1.00  0.00     0.009 A 
ENDROOT
BRANCH   1   7
HETATM    7  C   UNL     1      40.585 -14.941   5.355  1.00  0.00     0.162 C 
BRANCH   7   8
HETATM    8  N   UNL     1      41.866 -15.533   5.026  1.00  0.00    -0.339 N 
HETATM    9  C   UNL     1      41.950 -16.864   4.655  1.00  0.00     0.321 C 
HETATM   10  N   UNL     1      43.265 -17.214   4.456  1.00  0.00    -0.307 N 
HETATM   11  O   UNL     1      40.968 -17.575   4.503  1.00  0.00    -0.247 OA
HETATM   12  H   UNL     1      43.833 -16.422   4.189  1.00  0.00     0.170 HD
HETATM   13  H   UNL     1      42.650 -15.204   5.567  1.00  0.00     0.164 HD
BRANCH  10  14
HETATM   14  C   UNL     1      43.812 -18.485   4.159  1.00  0.00     0.059 A 
HETATM   15  C   UNL     1      43.995 -19.062   2.893  1.00  0.00    -0.032 A 
HETATM   16  C   UNL     1      43.592 -18.442   1.588  1.00  0.00     0.050 C 
HETATM   17  C   UNL     1      44.591 -20.338   2.824  1.00  0.00     0.028 A 
HETATM   18  C   UNL     1      44.922 -21.011   3.988  1.00  0.00     0.117 A 
HETATM   19  N   UNL     1      44.708 -20.512   5.217  1.00  0.00    -0.271 NA
HETATM   20  C   UNL     1      44.164 -19.274   5.265  1.00  0.00     0.146 A 
ENDBRANCH  10  14
ENDBRANCH   7   8
ENDBRANCH   1   7
BRANCH   3  21
HETATM   21  C   UNL     1      41.583 -10.357   7.193  1.00  0.00     0.252 C 
HETATM   22  N   UNL     1      41.655 -10.918   8.445  1.00  0.00    -0.351 N 
HETATM   23  H   UNL     1      41.348 -11.869   8.615  1.00  0.00     0.163 HD
HETATM   24  O   UNL     1      41.899  -9.196   6.955  1.00  0.00    -0.268 OA
BRANCH  22  25
HETATM   25  C   UNL     1      42.232 -10.202   9.556  1.00  0.00     0.187 C 
BRANCH  25  26
HETATM   26  C   UNL     1      43.550 -10.796   9.896  1.00  0.00     0.070 A 
HETATM   27  O   UNL     1      44.442 -10.959   8.874  1.00  0.00    -0.325 OA
HETATM   28  C   UNL     1      45.557 -11.523   9.403  1.00  0.00     0.142 A 
HETATM   29  C   UNL     1      45.405 -11.714  10.756  1.00  0.00     0.027 A 
HETATM   30  C   UNL     1      44.108 -11.244  11.077  1.00  0.00     0.036 A 
ENDBRANCH  25  26
ENDBRANCH  22  25
ENDBRANCH   3  21
TORSDOF 6
ENDMDL
MODEL 10
REMARK VINA RESULT:      -7.9      3.327     10.227
REMARK  6 active torsions:
REMARK  status: ('A' for Active; 'I' for Inactive)
REMARK    1  A    between atoms: C_3  and  N_4 
REMARK       I    between atoms: N_4  and  C_5 
REMARK       I    between atoms: C_5  and  N_6 
REMARK    2  A    between atoms: N_6  and  C_7 
REMARK    3  A    between atoms: C_7  and  C_8 
REMARK    4  A    between atoms: C_10  and  C_11 
REMARK       I    between atoms: C_11  and  N_12 
REMARK    5  A    between atoms: N_12  and  C_13 
REMARK    6  A    between atoms: C_13  and  C_14 
ROOT
HETATM    1  C   UNL     1      45.018 -12.600   8.371  1.00  0.00    -0.040 A 
HETATM    2  C   UNL     1      43.804 -12.331   9.022  1.00  0.00     0.026 A 
HETATM    3  C   UNL     1      43.725 -11.344  10.011  1.00  0.00     0.032 A 
HETATM    4  C   UNL     1      44.878 -10.648  10.384  1.00  0.00     0.017 A 
HETATM    5  C   UNL     1      46.091 -10.908   9.743  1.00  0.00     0.002 A 
HETATM    6  C   UNL     1      46.158 -11.870   8.733  1.00  0.00     0.009 A 
ENDROOT
BRANCH   1   7
HETATM    7  C   UNL     1      45.067 -13.634   7.274  1.00  0.00     0.162 C 
BRANCH   7   8
HETATM    8  N   UNL     1      43.751 -14.124   6.918  1.00  0.00    -0.339 N 
HETATM    9  C   UNL     1      43.315 -14.077   5.605  1.00  0.00     0.321 C 
HETATM   10  N   UNL     1      42.020 -14.534   5.523  1.00  0.00    -0.307 N 
HETATM   11  O   UNL     1      44.026 -13.710   4.682  1.00  0.00    -0.247 OA
HETATM   12  H   UNL     1      41.799 -15.184   6.265  1.00  0.00     0.170 HD
HETATM   13  H   UNL     1      43.027 -13.963   7.600  1.00  0.00     0.164 HD
BRANCH  10  14
HETATM   14  C   UNL     1      41.160 -14.573   4.400  1.00  0.00     0.059 A 
HETATM   15  C   UNL     1      40.960 -15.642   3.514  1.00  0.00    -0.032 A 
HETATM   16  C   UNL     1      41.672 -16.961   3.567  1.00  0.00     0.050 C 
HETATM   17  C   UNL     1      40.026 -15.475   2.471  1.00  0.00     0.028 A 
HETATM   18  C   UNL     1      39.382 -14.261   2.307  1.00  0.00     0.117 A 
HETATM   19  N   UNL     1      39.593 -13.198   3.102  1.00  0.00    -0.271 NA
HETATM   20  C   UNL     1      40.468 -13.385   4.117  1.00  0.00     0.146 A 
ENDBRANCH  10  14
ENDBRANCH   7   8
ENDBRANCH   1   7
BRANCH   3  21
HETATM   21  C   UNL     1      42.440 -11.024  10.691  1.00  0.00     0.252 C 
HETATM   22  N   UNL     1      42.189 -11.696  11.863  1.00  0.00    -0.351 N 
HETATM   23  H   UNL     1      42.835 -12.389  12.223  1.00  0.00     0.163 HD
HETATM   24  O   UNL     1      41.662 -10.215  10.197  1.00  0.00    -0.268 OA
BRANCH  22  25
HETATM   25  C   UNL     1      41.028 -11.397  12.665  1.00  0.00     0.187 C 
BRANCH  25  26
HETATM   26  C   UNL     1      41.374 -10.356  13.666  1.00  0.00     0.070 A 
HETATM   27  O   UNL     1      40.554  -9.266  13.741  1.00  0.00    -0.325 OA
HETATM   28  C   UNL     1      41.060  -8.450  14.699  1.00  0.00     0.142 A 
HETATM   29  C   UNL     1      42.188  -9.004  15.257  1.00  0.00     0.027 A 
HETATM   30  C   UNL     1      42.393 -10.237  14.590  1.00  0.00     0.036 A 
ENDBRANCH  25  26
ENDBRANCH  22  25
ENDBRANCH   3  21
TORSDOF 6
ENDMDL
