MODEL 1
REMARK VINA RESULT:      -8.1      0.000      0.000
REMARK  7 active torsions:
REMARK  status: ('A' for Active; 'I' for Inactive)
REMARK    1  A    between atoms: C_5  and  O_6 
REMARK    2  A    between atoms: O_6  and  C_7 
REMARK    3  A    between atoms: C_7  and  C_8 
REMARK       I    between atoms: C_8  and  N_9 
REMARK    4  A    between atoms: N_9  and  C_10 
REMARK    5  A    between atoms: C_13  and  N_14 
REMARK    6  A    between atoms: N_14  and  C_15 
REMARK    7  A    between atoms: C_15  and  C_16 
ROOT
HETATM    1  C   UNL     1      41.449 -15.524   6.041  1.00  0.00     0.034 A 
HETATM    2  C   UNL     1      42.760 -15.062   6.141  1.00  0.00     0.031 A 
HETATM    3  C   UNL     1      43.837 -15.948   6.000  1.00  0.00     0.026 A 
HETATM    4  C   UNL     1      43.628 -17.306   5.745  1.00  0.00     0.008 A 
HETATM    5  C   UNL     1      42.313 -17.760   5.628  1.00  0.00     0.026 A 
HETATM    6  C   UNL     1      41.236 -16.885   5.800  1.00  0.00     0.031 A 
ENDROOT
BRANCH   1   7
HETATM    7  N   UNL     1      40.311 -14.730   6.247  1.00  0.00    -0.325 N 
HETATM    8  C   UNL     1      39.743 -13.724   5.518  1.00  0.00     0.246 C 
HETATM    9  O   UNL     1      38.887 -13.025   6.073  1.00  0.00    -0.271 OA
HETATM   10  H   UNL     1      39.780 -14.917   7.089  1.00  0.00     0.169 HD
BRANCH   8  11
HETATM   11  C   UNL     1      40.090 -13.493   4.050  1.00  0.00     0.278 C 
BRANCH  11  12
HETATM   12  O   UNL     1      39.598 -14.570   3.264  1.00  0.00    -0.342 OA
BRANCH  12  13
HETATM   13  C   UNL     1      40.523 -15.392   2.688  1.00  0.00     0.069 A 
HETATM   14  C   UNL     1      41.812 -14.862   2.614  1.00  0.00     0.037 A 
HETATM   15  C   UNL     1      42.856 -15.605   2.060  1.00  0.00     0.009 A 
HETATM   16  C   UNL     1      42.620 -16.889   1.561  1.00  0.00    -0.062 A 
HETATM   17  C   UNL     1      43.729 -17.698   0.958  1.00  0.00     0.048 C 
HETATM   18  C   UNL     1      41.320 -17.407   1.612  1.00  0.00     0.009 A 
HETATM   19  C   UNL     1      40.274 -16.662   2.171  1.00  0.00     0.037 A 
ENDBRANCH  12  13
ENDBRANCH  11  12
ENDBRANCH   8  11
ENDBRANCH   1   7
BRANCH   4  20
HETATM   20  N   UNL     1      44.697 -18.207   5.615  1.00  0.00    -0.289 NA
HETATM   21  H   UNL     1      45.052 -18.228   4.662  1.00  0.00     0.128 HD
BRANCH  20  22
HETATM   22  C   UNL     1      44.411 -19.559   6.096  1.00  0.00     0.132 C 
BRANCH  22  23
HETATM   23  C   UNL     1      44.480 -20.522   4.944  1.00  0.00    -0.027 A 
HETATM   24  C   UNL     1      44.667 -21.885   5.152  1.00  0.00     0.124 A 
HETATM   25  N   UNL     1      44.728 -22.804   4.162  1.00  0.00    -0.273 NA
HETATM   26  C   UNL     1      44.592 -22.345   2.899  1.00  0.00     0.116 A 
HETATM   27  C   UNL     1      44.396 -21.011   2.582  1.00  0.00     0.020 A 
HETATM   28  C   UNL     1      44.337 -20.089   3.622  1.00  0.00     0.011 A 
ENDBRANCH  22  23
ENDBRANCH  20  22
ENDBRANCH   4  20
TORSDOF 7
ENDMDL
MODEL 2
REMARK VINA RESULT:      -7.8      3.254      6.969
REMARK  7 active torsions:
REMARK  status: ('A' for Active; 'I' for Inactive)
REMARK    1  A    between atoms: C_5  and  O_6 
REMARK    2  A    between atoms: O_6  and  C_7 
REMARK    3  A    between atoms: C_7  and  C_8 
REMARK       I    between atoms: C_8  and  N_9 
REMARK    4  A    between atoms: N_9  and  C_10 
REMARK    5  A    between atoms: C_13  and  N_14 
REMARK    6  A    between atoms: N_14  and  C_15 
REMARK    7  A    between atoms: C_15  and  C_16 
ROOT
HETATM    1  C   UNL     1      41.890 -16.523   4.677  1.00  0.00     0.034 A 
HETATM    2  C   UNL     1      42.162 -17.269   5.822  1.00  0.00     0.031 A 
HETATM    3  C   UNL     1      42.903 -16.711   6.873  1.00  0.00     0.026 A 
HETATM    4  C   UNL     1      43.376 -15.398   6.807  1.00  0.00     0.008 A 
HETATM    5  C   UNL     1      43.087 -14.649   5.664  1.00  0.00     0.026 A 
HETATM    6  C   UNL     1      42.374 -15.214   4.601  1.00  0.00     0.031 A 
ENDROOT
BRANCH   1   7
HETATM    7  N   UNL     1      41.228 -17.021   3.545  1.00  0.00    -0.325 N 
HETATM    8  C   UNL     1      41.644 -17.277   2.270  1.00  0.00     0.246 C 
HETATM    9  O   UNL     1      40.776 -17.468   1.409  1.00  0.00    -0.271 OA
HETATM   10  H   UNL     1      40.248 -17.251   3.663  1.00  0.00     0.169 HD
BRANCH   8  11
HETATM   11  C   UNL     1      43.122 -17.394   1.909  1.00  0.00     0.278 C 
BRANCH  11  12
HETATM   12  O   UNL     1      43.380 -18.671   1.340  1.00  0.00    -0.342 OA
BRANCH  12  13
HETATM   13  C   UNL     1      43.807 -19.654   2.185  1.00  0.00     0.069 A 
HETATM   14  C   UNL     1      44.267 -19.203   3.423  1.00  0.00     0.037 A 
HETATM   15  C   UNL     1      44.720 -20.106   4.386  1.00  0.00     0.009 A 
HETATM   16  C   UNL     1      44.728 -21.478   4.117  1.00  0.00    -0.062 A 
HETATM   17  C   UNL     1      45.216 -22.461   5.138  1.00  0.00     0.048 C 
HETATM   18  C   UNL     1      44.292 -21.925   2.863  1.00  0.00     0.009 A 
HETATM   19  C   UNL     1      43.835 -21.018   1.899  1.00  0.00     0.037 A 
ENDBRANCH  12  13
ENDBRANCH  11  12
ENDBRANCH   8  11
ENDBRANCH   1   7
BRANCH   4  20
HETATM   20  N   UNL     1      44.132 -14.831   7.846  1.00  0.00    -0.289 NA
HETATM   21  H   UNL     1      43.547 -14.597   8.645  1.00  0.00     0.128 HD
BRANCH  20  22
HETATM   22  C   UNL     1      44.952 -13.688   7.444  1.00  0.00     0.132 C 
BRANCH  22  23
HETATM   23  C   UNL     1      44.763 -12.569   8.430  1.00  0.00    -0.027 A 
HETATM   24  C   UNL     1      43.635 -11.755   8.390  1.00  0.00     0.124 A 
HETATM   25  N   UNL     1      43.400 -10.739   9.252  1.00  0.00    -0.273 NA
HETATM   26  C   UNL     1      44.332 -10.524  10.204  1.00  0.00     0.116 A 
HETATM   27  C   UNL     1      45.486 -11.279  10.337  1.00  0.00     0.020 A 
HETATM   28  C   UNL     1      45.700 -12.317   9.436  1.00  0.00     0.011 A 
ENDBRANCH  22  23
ENDBRANCH  20  22
ENDBRANCH   4  20
TORSDOF 7
ENDMDL
MODEL 3
REMARK VINA RESULT:      -7.7      4.022      7.115
REMARK  7 active torsions:
REMARK  status: ('A' for Active; 'I' for Inactive)
REMARK    1  A    between atoms: C_5  and  O_6 
REMARK    2  A    between atoms: O_6  and  C_7 
REMARK    3  A    between atoms: C_7  and  C_8 
REMARK       I    between atoms: C_8  and  N_9 
REMARK    4  A    between atoms: N_9  and  C_10 
REMARK    5  A    between atoms: C_13  and  N_14 
REMARK    6  A    between atoms: N_14  and  C_15 
REMARK    7  A    between atoms: C_15  and  C_16 
ROOT
HETATM    1  C   UNL     1      41.028 -16.068   3.115  1.00  0.00     0.034 A 
HETATM    2  C   UNL     1      41.324 -14.832   2.543  1.00  0.00     0.031 A 
HETATM    3  C   UNL     1      41.536 -14.722   1.162  1.00  0.00     0.026 A 
HETATM    4  C   UNL     1      41.447 -15.837   0.325  1.00  0.00     0.008 A 
HETATM    5  C   UNL     1      41.133 -17.071   0.901  1.00  0.00     0.026 A 
HETATM    6  C   UNL     1      40.951 -17.189   2.283  1.00  0.00     0.031 A 
ENDROOT
BRANCH   1   7
HETATM    7  N   UNL     1      40.879 -16.289   4.492  1.00  0.00    -0.325 N 
HETATM    8  C   UNL     1      41.768 -16.612   5.477  1.00  0.00     0.246 C 
HETATM    9  O   UNL     1      41.311 -17.001   6.559  1.00  0.00    -0.271 OA
HETATM   10  H   UNL     1      39.941 -16.191   4.864  1.00  0.00     0.169 HD
BRANCH   8  11
HETATM   11  C   UNL     1      43.274 -16.446   5.294  1.00  0.00     0.278 C 
BRANCH  11  12
HETATM   12  O   UNL     1      43.938 -17.653   5.646  1.00  0.00    -0.342 OA
BRANCH  12  13
HETATM   13  C   UNL     1      44.075 -18.595   4.668  1.00  0.00     0.069 A 
HETATM   14  C   UNL     1      44.444 -19.862   5.122  1.00  0.00     0.037 A 
HETATM   15  C   UNL     1      44.606 -20.920   4.227  1.00  0.00     0.009 A 
HETATM   16  C   UNL     1      44.408 -20.721   2.858  1.00  0.00    -0.062 A 
HETATM   17  C   UNL     1      44.582 -21.846   1.882  1.00  0.00     0.048 C 
HETATM   18  C   UNL     1      44.065 -19.442   2.402  1.00  0.00     0.009 A 
HETATM   19  C   UNL     1      43.901 -18.382   3.301  1.00  0.00     0.037 A 
ENDBRANCH  12  13
ENDBRANCH  11  12
ENDBRANCH   8  11
ENDBRANCH   1   7
BRANCH   4  20
HETATM   20  N   UNL     1      41.671 -15.745  -1.058  1.00  0.00    -0.289 NA
HETATM   21  H   UNL     1      42.649 -15.909  -1.286  1.00  0.00     0.128 HD
BRANCH  20  22
HETATM   22  C   UNL     1      41.192 -14.504  -1.668  1.00  0.00     0.132 C 
BRANCH  22  23
HETATM   23  C   UNL     1      39.964 -14.793  -2.486  1.00  0.00    -0.027 A 
HETATM   24  C   UNL     1      38.794 -14.060  -2.314  1.00  0.00     0.124 A 
HETATM   25  N   UNL     1      37.659 -14.263  -3.022  1.00  0.00    -0.273 NA
HETATM   26  C   UNL     1      37.691 -15.242  -3.951  1.00  0.00     0.116 A 
HETATM   27  C   UNL     1      38.805 -16.026  -4.206  1.00  0.00     0.020 A 
HETATM   28  C   UNL     1      39.957 -15.794  -3.462  1.00  0.00     0.011 A 
ENDBRANCH  22  23
ENDBRANCH  20  22
ENDBRANCH   4  20
TORSDOF 7
ENDMDL
MODEL 4
REMARK VINA RESULT:      -7.6      1.491      3.456
REMARK  7 active torsions:
REMARK  status: ('A' for Active; 'I' for Inactive)
REMARK    1  A    between atoms: C_5  and  O_6 
REMARK    2  A    between atoms: O_6  and  C_7 
REMARK    3  A    between atoms: C_7  and  C_8 
REMARK       I    between atoms: C_8  and  N_9 
REMARK    4  A    between atoms: N_9  and  C_10 
REMARK    5  A    between atoms: C_13  and  N_14 
REMARK    6  A    between atoms: N_14  and  C_15 
REMARK    7  A    between atoms: C_15  and  C_16 
ROOT
HETATM    1  C   UNL     1      41.004 -14.978   2.616  1.00  0.00     0.034 A 
HETATM    2  C   UNL     1      42.394 -15.062   2.583  1.00  0.00     0.031 A 
HETATM    3  C   UNL     1      43.025 -16.281   2.299  1.00  0.00     0.026 A 
HETATM    4  C   UNL     1      42.282 -17.434   2.031  1.00  0.00     0.008 A 
HETATM    5  C   UNL     1      40.889 -17.341   2.049  1.00  0.00     0.026 A 
HETATM    6  C   UNL     1      40.257 -16.133   2.364  1.00  0.00     0.031 A 
ENDROOT
BRANCH   1   7
HETATM    7  N   UNL     1      40.288 -13.824   2.969  1.00  0.00    -0.325 N 
HETATM    8  C   UNL     1      39.984 -13.258   4.175  1.00  0.00     0.246 C 
HETATM    9  O   UNL     1      39.114 -12.379   4.195  1.00  0.00    -0.271 OA
HETATM   10  H   UNL     1      39.912 -13.277   2.203  1.00  0.00     0.169 HD
BRANCH   8  11
HETATM   11  C   UNL     1      40.726 -13.634   5.454  1.00  0.00     0.278 C 
BRANCH  11  12
HETATM   12  O   UNL     1      40.482 -14.998   5.770  1.00  0.00    -0.342 OA
BRANCH  12  13
HETATM   13  C   UNL     1      41.573 -15.801   5.941  1.00  0.00     0.069 A 
HETATM   14  C   UNL     1      42.756 -15.126   6.244  1.00  0.00     0.037 A 
HETATM   15  C   UNL     1      43.942 -15.829   6.458  1.00  0.00     0.009 A 
HETATM   16  C   UNL     1      43.961 -17.224   6.361  1.00  0.00    -0.062 A 
HETATM   17  C   UNL     1      45.228 -17.995   6.582  1.00  0.00     0.048 C 
HETATM   18  C   UNL     1      42.778 -17.896   6.029  1.00  0.00     0.009 A 
HETATM   19  C   UNL     1      41.589 -17.189   5.818  1.00  0.00     0.037 A 
ENDBRANCH  12  13
ENDBRANCH  11  12
ENDBRANCH   8  11
ENDBRANCH   1   7
BRANCH   4  20
HETATM   20  N   UNL     1      42.901 -18.666   1.759  1.00  0.00    -0.289 NA
HETATM   21  H   UNL     1      42.309 -19.446   2.035  1.00  0.00     0.128 HD
BRANCH  20  22
HETATM   22  C   UNL     1      44.245 -18.805   2.318  1.00  0.00     0.132 C 
BRANCH  22  23
HETATM   23  C   UNL     1      44.406 -20.186   2.889  1.00  0.00    -0.027 A 
HETATM   24  C   UNL     1      44.287 -21.317   2.087  1.00  0.00     0.124 A 
HETATM   25  N   UNL     1      44.430 -22.585   2.536  1.00  0.00    -0.273 NA
HETATM   26  C   UNL     1      44.708 -22.737   3.848  1.00  0.00     0.116 A 
HETATM   27  C   UNL     1      44.853 -21.680   4.731  1.00  0.00     0.020 A 
HETATM   28  C   UNL     1      44.701 -20.387   4.241  1.00  0.00     0.011 A 
ENDBRANCH  22  23
ENDBRANCH  20  22
ENDBRANCH   4  20
TORSDOF 7
ENDMDL
MODEL 5
REMARK VINA RESULT:      -7.6      2.909      7.161
REMARK  7 active torsions:
REMARK  status: ('A' for Active; 'I' for Inactive)
REMARK    1  A    between atoms: C_5  and  O_6 
REMARK    2  A    between atoms: O_6  and  C_7 
REMARK    3  A    between atoms: C_7  and  C_8 
REMARK       I    between atoms: C_8  and  N_9 
REMARK    4  A    between atoms: N_9  and  C_10 
REMARK    5  A    between atoms: C_13  and  N_14 
REMARK    6  A    between atoms: N_14  and  C_15 
REMARK    7  A    between atoms: C_15  and  C_16 
ROOT
HETATM    1  C   UNL     1      43.154 -19.161   1.831  1.00  0.00     0.034 A 
HETATM    2  C   UNL     1      41.858 -18.651   1.873  1.00  0.00     0.031 A 
HETATM    3  C   UNL     1      41.642 -17.268   1.948  1.00  0.00     0.026 A 
HETATM    4  C   UNL     1      42.711 -16.370   1.972  1.00  0.00     0.008 A 
HETATM    5  C   UNL     1      44.007 -16.885   1.914  1.00  0.00     0.026 A 
HETATM    6  C   UNL     1      44.227 -18.266   1.870  1.00  0.00     0.031 A 
ENDROOT
BRANCH   1   7
HETATM    7  N   UNL     1      43.468 -20.529   1.836  1.00  0.00    -0.325 N 
HETATM    8  C   UNL     1      44.367 -21.267   2.551  1.00  0.00     0.246 C 
HETATM    9  O   UNL     1      44.609 -22.415   2.160  1.00  0.00    -0.271 OA
HETATM   10  H   UNL     1      42.939 -21.113   1.199  1.00  0.00     0.169 HD
BRANCH   8  11
HETATM   11  C   UNL     1      45.012 -20.739   3.829  1.00  0.00     0.278 C 
BRANCH  11  12
HETATM   12  O   UNL     1      44.016 -20.523   4.819  1.00  0.00    -0.342 OA
BRANCH  12  13
HETATM   13  C   UNL     1      43.927 -19.267   5.348  1.00  0.00     0.069 A 
HETATM   14  C   UNL     1      45.119 -18.766   5.870  1.00  0.00     0.037 A 
HETATM   15  C   UNL     1      45.170 -17.488   6.429  1.00  0.00     0.009 A 
HETATM   16  C   UNL     1      44.020 -16.695   6.480  1.00  0.00    -0.062 A 
HETATM   17  C   UNL     1      44.056 -15.322   7.081  1.00  0.00     0.048 C 
HETATM   18  C   UNL     1      42.818 -17.212   5.979  1.00  0.00     0.009 A 
HETATM   19  C   UNL     1      42.770 -18.493   5.417  1.00  0.00     0.037 A 
ENDBRANCH  12  13
ENDBRANCH  11  12
ENDBRANCH   8  11
ENDBRANCH   1   7
BRANCH   4  20
HETATM   20  N   UNL     1      42.510 -14.982   2.063  1.00  0.00    -0.289 NA
HETATM   21  H   UNL     1      42.782 -14.512   1.202  1.00  0.00     0.128 HD
BRANCH  20  22
HETATM   22  C   UNL     1      43.138 -14.354   3.224  1.00  0.00     0.132 C 
BRANCH  22  23
HETATM   23  C   UNL     1      42.074 -13.940   4.203  1.00  0.00    -0.027 A 
HETATM   24  C   UNL     1      42.253 -12.847   5.045  1.00  0.00     0.124 A 
HETATM   25  N   UNL     1      41.334 -12.417   5.939  1.00  0.00    -0.273 NA
HETATM   26  C   UNL     1      40.175 -13.108   5.996  1.00  0.00     0.116 A 
HETATM   27  C   UNL     1      39.893 -14.205   5.200  1.00  0.00     0.020 A 
HETATM   28  C   UNL     1      40.857 -14.624   4.289  1.00  0.00     0.011 A 
ENDBRANCH  22  23
ENDBRANCH  20  22
ENDBRANCH   4  20
TORSDOF 7
ENDMDL
MODEL 6
REMARK VINA RESULT:      -7.5      2.269      3.919
REMARK  7 active torsions:
REMARK  status: ('A' for Active; 'I' for Inactive)
REMARK    1  A    between atoms: C_5  and  O_6 
REMARK    2  A    between atoms: O_6  and  C_7 
REMARK    3  A    between atoms: C_7  and  C_8 
REMARK       I    between atoms: C_8  and  N_9 
REMARK    4  A    between atoms: N_9  and  C_10 
REMARK    5  A    between atoms: C_13  and  N_14 
REMARK    6  A    between atoms: N_14  and  C_15 
REMARK    7  A    between atoms: C_15  and  C_16 
ROOT
HETATM    1  C   UNL     1      41.435 -16.503   0.704  1.00  0.00     0.034 A 
HETATM    2  C   UNL     1      42.804 -16.713   0.858  1.00  0.00     0.031 A 
HETATM    3  C   UNL     1      43.307 -17.275   2.039  1.00  0.00     0.026 A 
HETATM    4  C   UNL     1      42.456 -17.648   3.082  1.00  0.00     0.008 A 
HETATM    5  C   UNL     1      41.084 -17.451   2.917  1.00  0.00     0.026 A 
HETATM    6  C   UNL     1      40.581 -16.862   1.751  1.00  0.00     0.031 A 
ENDROOT
BRANCH   1   7
HETATM    7  N   UNL     1      40.849 -15.875  -0.405  1.00  0.00    -0.325 N 
HETATM    8  C   UNL     1      40.674 -14.562  -0.737  1.00  0.00     0.246 C 
HETATM    9  O   UNL     1      39.889 -14.301  -1.657  1.00  0.00    -0.271 OA
HETATM   10  H   UNL     1      40.477 -16.487  -1.123  1.00  0.00     0.169 HD
BRANCH   8  11
HETATM   11  C   UNL     1      41.457 -13.444  -0.056  1.00  0.00     0.278 C 
BRANCH  11  12
HETATM   12  O   UNL     1      40.756 -12.999   1.098  1.00  0.00    -0.342 OA
BRANCH  12  13
HETATM   13  C   UNL     1      41.242 -13.393   2.311  1.00  0.00     0.069 A 
HETATM   14  C   UNL     1      42.634 -13.455   2.393  1.00  0.00     0.037 A 
HETATM   15  C   UNL     1      43.262 -13.830   3.581  1.00  0.00     0.009 A 
HETATM   16  C   UNL     1      42.500 -14.160   4.706  1.00  0.00    -0.062 A 
HETATM   17  C   UNL     1      43.158 -14.570   5.990  1.00  0.00     0.048 C 
HETATM   18  C   UNL     1      41.103 -14.123   4.613  1.00  0.00     0.009 A 
HETATM   19  C   UNL     1      40.475 -13.743   3.421  1.00  0.00     0.037 A 
ENDBRANCH  12  13
ENDBRANCH  11  12
ENDBRANCH   8  11
ENDBRANCH   1   7
BRANCH   4  20
HETATM   20  N   UNL     1      42.948 -18.199   4.277  1.00  0.00    -0.289 NA
HETATM   21  H   UNL     1      42.757 -17.592   5.071  1.00  0.00     0.128 HD
BRANCH  20  22
HETATM   22  C   UNL     1      44.361 -18.576   4.234  1.00  0.00     0.132 C 
BRANCH  22  23
HETATM   23  C   UNL     1      44.473 -20.063   4.042  1.00  0.00    -0.027 A 
HETATM   24  C   UNL     1      44.714 -20.913   5.117  1.00  0.00     0.124 A 
HETATM   25  N   UNL     1      44.816 -22.258   5.014  1.00  0.00    -0.273 NA
HETATM   26  C   UNL     1      44.669 -22.785   3.779  1.00  0.00     0.116 A 
HETATM   27  C   UNL     1      44.422 -22.030   2.645  1.00  0.00     0.020 A 
HETATM   28  C   UNL     1      44.321 -20.649   2.782  1.00  0.00     0.011 A 
ENDBRANCH  22  23
ENDBRANCH  20  22
ENDBRANCH   4  20
TORSDOF 7
ENDMDL
MODEL 7
REMARK VINA RESULT:      -7.5      2.808      5.556
REMARK  7 active torsions:
REMARK  status: ('A' for Active; 'I' for Inactive)
REMARK    1  A    between atoms: C_5  and  O_6 
REMARK    2  A    between atoms: O_6  and  C_7 
REMARK    3  A    between atoms: C_7  and  C_8 
REMARK       I    between atoms: C_8  and  N_9 
REMARK    4  A    between atoms: N_9  and  C_10 
REMARK    5  A    between atoms: C_13  and  N_14 
REMARK    6  A    between atoms: N_14  and  C_15 
REMARK    7  A    between atoms: C_15  and  C_16 
ROOT
HETATM    1  C   UNL     1      43.163 -14.658   6.034  1.00  0.00     0.034 A 
HETATM    2  C   UNL     1      44.049 -14.439   4.981  1.00  0.00     0.031 A 
HETATM    3  C   UNL     1      43.612 -13.815   3.805  1.00  0.00     0.026 A 
HETATM    4  C   UNL     1      42.290 -13.387   3.661  1.00  0.00     0.008 A 
HETATM    5  C   UNL     1      41.411 -13.593   4.726  1.00  0.00     0.026 A 
HETATM    6  C   UNL     1      41.836 -14.244   5.889  1.00  0.00     0.031 A 
ENDROOT
BRANCH   1   7
HETATM    7  N   UNL     1      43.489 -15.345   7.214  1.00  0.00    -0.325 N 
HETATM    8  C   UNL     1      43.380 -16.656   7.579  1.00  0.00     0.246 C 
HETATM    9  O   UNL     1      43.504 -16.932   8.778  1.00  0.00    -0.271 OA
HETATM   10  H   UNL     1      43.891 -14.790   7.960  1.00  0.00     0.169 HD
BRANCH   8  11
HETATM   11  C   UNL     1      43.178 -17.767   6.553  1.00  0.00     0.278 C 
BRANCH  11  12
HETATM   12  O   UNL     1      44.313 -17.849   5.701  1.00  0.00    -0.342 OA
BRANCH  12  13
HETATM   13  C   UNL     1      44.249 -18.732   4.662  1.00  0.00     0.069 A 
HETATM   14  C   UNL     1      44.734 -20.009   4.947  1.00  0.00     0.037 A 
HETATM   15  C   UNL     1      44.713 -21.012   3.977  1.00  0.00     0.009 A 
HETATM   16  C   UNL     1      44.213 -20.745   2.699  1.00  0.00    -0.062 A 
HETATM   17  C   UNL     1      44.188 -21.809   1.643  1.00  0.00     0.048 C 
HETATM   18  C   UNL     1      43.752 -19.455   2.407  1.00  0.00     0.009 A 
HETATM   19  C   UNL     1      43.771 -18.451   3.383  1.00  0.00     0.037 A 
ENDBRANCH  12  13
ENDBRANCH  11  12
ENDBRANCH   8  11
ENDBRANCH   1   7
BRANCH   4  20
HETATM   20  N   UNL     1      41.835 -12.772   2.483  1.00  0.00    -0.289 NA
HETATM   21  H   UNL     1      41.773 -11.763   2.592  1.00  0.00     0.128 HD
BRANCH  20  22
HETATM   22  C   UNL     1      40.583 -13.320   1.959  1.00  0.00     0.132 C 
BRANCH  22  23
HETATM   23  C   UNL     1      40.780 -14.771   1.615  1.00  0.00    -0.027 A 
HETATM   24  C   UNL     1      39.986 -15.762   2.184  1.00  0.00     0.124 A 
HETATM   25  N   UNL     1      40.105 -17.081   1.910  1.00  0.00    -0.273 NA
HETATM   26  C   UNL     1      41.060 -17.433   1.023  1.00  0.00     0.116 A 
HETATM   27  C   UNL     1      41.899 -16.526   0.396  1.00  0.00     0.020 A 
HETATM   28  C   UNL     1      41.753 -15.176   0.697  1.00  0.00     0.011 A 
ENDBRANCH  22  23
ENDBRANCH  20  22
ENDBRANCH   4  20
TORSDOF 7
ENDMDL
MODEL 8
REMARK VINA RESULT:      -7.4      1.681      2.356
REMARK  7 active torsions:
REMARK  status: ('A' for Active; 'I' for Inactive)
REMARK    1  A    between atoms: C_5  and  O_6 
REMARK    2  A    between atoms: O_6  and  C_7 
REMARK    3  A    between atoms: C_7  and  C_8 
REMARK       I    between atoms: C_8  and  N_9 
REMARK    4  A    between atoms: N_9  and  C_10 
REMARK    5  A    between atoms: C_13  and  N_14 
REMARK    6  A    between atoms: N_14  and  C_15 
REMARK    7  A    between atoms: C_15  and  C_16 
ROOT
HETATM    1  C   UNL     1      42.074 -15.102   5.275  1.00  0.00     0.034 A 
HETATM    2  C   UNL     1      41.269 -16.229   5.432  1.00  0.00     0.031 A 
HETATM    3  C   UNL     1      41.444 -17.347   4.606  1.00  0.00     0.026 A 
HETATM    4  C   UNL     1      42.430 -17.367   3.616  1.00  0.00     0.008 A 
HETATM    5  C   UNL     1      43.245 -16.242   3.474  1.00  0.00     0.026 A 
HETATM    6  C   UNL     1      43.052 -15.113   4.277  1.00  0.00     0.031 A 
ENDROOT
BRANCH   1   7
HETATM    7  N   UNL     1      41.920 -13.911   6.000  1.00  0.00    -0.325 N 
HETATM    8  C   UNL     1      41.023 -12.884   5.910  1.00  0.00     0.246 C 
HETATM    9  O   UNL     1      41.287 -11.836   6.512  1.00  0.00    -0.271 OA
HETATM   10  H   UNL     1      42.584 -13.752   6.749  1.00  0.00     0.169 HD
BRANCH   8  11
HETATM   11  C   UNL     1      39.706 -13.025   5.154  1.00  0.00     0.278 C 
BRANCH  11  12
HETATM   12  O   UNL     1      39.861 -12.551   3.823  1.00  0.00    -0.342 OA
BRANCH  12  13
HETATM   13  C   UNL     1      40.139 -13.479   2.861  1.00  0.00     0.069 A 
HETATM   14  C   UNL     1      41.174 -13.130   1.992  1.00  0.00     0.037 A 
HETATM   15  C   UNL     1      41.568 -13.995   0.971  1.00  0.00     0.009 A 
HETATM   16  C   UNL     1      40.922 -15.223   0.799  1.00  0.00    -0.062 A 
HETATM   17  C   UNL     1      41.330 -16.163  -0.296  1.00  0.00     0.048 C 
HETATM   18  C   UNL     1      39.865 -15.558   1.655  1.00  0.00     0.009 A 
HETATM   19  C   UNL     1      39.473 -14.690   2.681  1.00  0.00     0.037 A 
ENDBRANCH  12  13
ENDBRANCH  11  12
ENDBRANCH   8  11
ENDBRANCH   1   7
BRANCH   4  20
HETATM   20  N   UNL     1      42.608 -18.475   2.771  1.00  0.00    -0.289 NA
HETATM   21  H   UNL     1      42.071 -19.276   3.092  1.00  0.00     0.128 HD
BRANCH  20  22
HETATM   22  C   UNL     1      44.005 -18.840   2.537  1.00  0.00     0.132 C 
BRANCH  22  23
HETATM   23  C   UNL     1      44.275 -20.189   3.144  1.00  0.00    -0.027 A 
HETATM   24  C   UNL     1      44.224 -21.349   2.376  1.00  0.00     0.124 A 
HETATM   25  N   UNL     1      44.465 -22.590   2.858  1.00  0.00    -0.273 NA
HETATM   26  C   UNL     1      44.776 -22.682   4.168  1.00  0.00     0.116 A 
HETATM   27  C   UNL     1      44.859 -21.592   5.018  1.00  0.00     0.020 A 
HETATM   28  C   UNL     1      44.607 -20.328   4.495  1.00  0.00     0.011 A 
ENDBRANCH  22  23
ENDBRANCH  20  22
ENDBRANCH   4  20
TORSDOF 7
ENDMDL
MODEL 9
REMARK VINA RESULT:      -7.4      3.400      6.525
REMARK  7 active torsions:
REMARK  status: ('A' for Active; 'I' for Inactive)
REMARK    1  A    between atoms: C_5  and  O_6 
REMARK    2  A    between atoms: O_6  and  C_7 
REMARK    3  A    between atoms: C_7  and  C_8 
REMARK       I    between atoms: C_8  and  N_9 
REMARK    4  A    between atoms: N_9  and  C_10 
REMARK    5  A    between atoms: C_13  and  N_14 
REMARK    6  A    between atoms: N_14  and  C_15 
REMARK    7  A    between atoms: C_15  and  C_16 
ROOT
HETATM    1  C   UNL     1      42.247 -16.232   5.590  1.00  0.00     0.034 A 
HETATM    2  C   UNL     1      42.743 -15.338   4.644  1.00  0.00     0.031 A 
HETATM    3  C   UNL     1      42.335 -15.422   3.306  1.00  0.00     0.026 A 
HETATM    4  C   UNL     1      41.418 -16.390   2.889  1.00  0.00     0.008 A 
HETATM    5  C   UNL     1      40.911 -17.273   3.844  1.00  0.00     0.026 A 
HETATM    6  C   UNL     1      41.340 -17.211   5.175  1.00  0.00     0.031 A 
ENDROOT
BRANCH   1   7
HETATM    7  N   UNL     1      42.656 -16.275   6.931  1.00  0.00    -0.325 N 
HETATM    8  C   UNL     1      43.590 -17.026   7.588  1.00  0.00     0.246 C 
HETATM    9  O   UNL     1      43.555 -17.034   8.825  1.00  0.00    -0.271 OA
HETATM   10  H   UNL     1      42.193 -15.633   7.563  1.00  0.00     0.169 HD
BRANCH   8  11
HETATM   11  C   UNL     1      44.687 -17.782   6.846  1.00  0.00     0.278 C 
BRANCH  11  12
HETATM   12  O   UNL     1      44.348 -19.160   6.758  1.00  0.00    -0.342 OA
BRANCH  12  13
HETATM   13  C   UNL     1      44.376 -19.729   5.517  1.00  0.00     0.069 A 
HETATM   14  C   UNL     1      44.601 -21.106   5.509  1.00  0.00     0.037 A 
HETATM   15  C   UNL     1      44.639 -21.814   4.307  1.00  0.00     0.009 A 
HETATM   16  C   UNL     1      44.462 -21.147   3.091  1.00  0.00    -0.062 A 
HETATM   17  C   UNL     1      44.505 -21.892   1.790  1.00  0.00     0.048 C 
HETATM   18  C   UNL     1      44.264 -19.761   3.101  1.00  0.00     0.009 A 
HETATM   19  C   UNL     1      44.222 -19.053   4.307  1.00  0.00     0.037 A 
ENDBRANCH  12  13
ENDBRANCH  11  12
ENDBRANCH   8  11
ENDBRANCH   1   7
BRANCH   4  20
HETATM   20  N   UNL     1      41.011 -16.496   1.549  1.00  0.00    -0.289 NA
HETATM   21  H   UNL     1      40.640 -17.421   1.346  1.00  0.00     0.128 HD
BRANCH  20  22
HETATM   22  C   UNL     1      42.034 -16.117   0.574  1.00  0.00     0.132 C 
BRANCH  22  23
HETATM   23  C   UNL     1      41.437 -15.172  -0.432  1.00  0.00    -0.027 A 
HETATM   24  C   UNL     1      41.337 -13.809  -0.171  1.00  0.00     0.124 A 
HETATM   25  N   UNL     1      40.820 -12.906  -1.035  1.00  0.00    -0.273 NA
HETATM   26  C   UNL     1      40.384 -13.381  -2.221  1.00  0.00     0.116 A 
HETATM   27  C   UNL     1      40.444 -14.717  -2.584  1.00  0.00     0.020 A 
HETATM   28  C   UNL     1      40.981 -15.623  -1.674  1.00  0.00     0.011 A 
ENDBRANCH  22  23
ENDBRANCH  20  22
ENDBRANCH   4  20
TORSDOF 7
ENDMDL
MODEL 10
REMARK VINA RESULT:      -7.2      1.988      3.848
REMARK  7 active torsions:
REMARK  status: ('A' for Active; 'I' for Inactive)
REMARK    1  A    between atoms: C_5  and  O_6 
REMARK    2  A    between atoms: O_6  and  C_7 
REMARK    3  A    between atoms: C_7  and  C_8 
REMARK       I    between atoms: C_8  and  N_9 
REMARK    4  A    between atoms: N_9  and  C_10 
REMARK    5  A    between atoms: C_13  and  N_14 
REMARK    6  A    between atoms: N_14  and  C_15 
REMARK    7  A    between atoms: C_15  and  C_16 
ROOT
HETATM    1  C   UNL     1      40.048 -14.801   1.217  1.00  0.00     0.034 A 
HETATM    2  C   UNL     1      41.199 -14.798   0.431  1.00  0.00     0.031 A 
HETATM    3  C   UNL     1      42.086 -15.882   0.468  1.00  0.00     0.026 A 
HETATM    4  C   UNL     1      41.838 -16.992   1.280  1.00  0.00     0.008 A 
HETATM    5  C   UNL     1      40.675 -16.997   2.053  1.00  0.00     0.026 A 
HETATM    6  C   UNL     1      39.804 -15.903   2.041  1.00  0.00     0.031 A 
ENDROOT
BRANCH   1   7
HETATM    7  N   UNL     1      39.146 -13.730   1.306  1.00  0.00    -0.325 N 
HETATM    8  C   UNL     1      39.069 -12.655   2.145  1.00  0.00     0.246 C 
HETATM    9  O   UNL     1      38.014 -12.009   2.156  1.00  0.00    -0.271 OA
HETATM   10  H   UNL     1      38.395 -13.718   0.625  1.00  0.00     0.169 HD
BRANCH   8  11
HETATM   11  C   UNL     1      40.252 -12.208   2.998  1.00  0.00     0.278 C 
BRANCH  11  12
HETATM   12  O   UNL     1      40.084 -12.666   4.333  1.00  0.00    -0.342 OA
BRANCH  12  13
HETATM   13  C   UNL     1      40.786 -13.777   4.702  1.00  0.00     0.069 A 
HETATM   14  C   UNL     1      40.121 -14.621   5.593  1.00  0.00     0.037 A 
HETATM   15  C   UNL     1      40.722 -15.799   6.040  1.00  0.00     0.009 A 
HETATM   16  C   UNL     1      42.005 -16.143   5.607  1.00  0.00    -0.062 A 
HETATM   17  C   UNL     1      42.667 -17.403   6.082  1.00  0.00     0.048 C 
HETATM   18  C   UNL     1      42.681 -15.280   4.735  1.00  0.00     0.009 A 
HETATM   19  C   UNL     1      42.076 -14.101   4.285  1.00  0.00     0.037 A 
ENDBRANCH  12  13
ENDBRANCH  11  12
ENDBRANCH   8  11
ENDBRANCH   1   7
BRANCH   4  20
HETATM   20  N   UNL     1      42.726 -18.079   1.338  1.00  0.00    -0.289 NA
HETATM   21  H   UNL     1      42.268 -18.946   1.066  1.00  0.00     0.128 HD
BRANCH  20  22
HETATM   22  C   UNL     1      43.415 -18.229   2.620  1.00  0.00     0.132 C 
BRANCH  22  23
HETATM   23  C   UNL     1      43.823 -19.666   2.800  1.00  0.00    -0.027 A 
HETATM   24  C   UNL     1      44.452 -20.097   3.963  1.00  0.00     0.124 A 
HETATM   25  N   UNL     1      44.836 -21.374   4.191  1.00  0.00    -0.273 NA
HETATM   26  C   UNL     1      44.577 -22.269   3.214  1.00  0.00     0.116 A 
HETATM   27  C   UNL     1      43.951 -21.946   2.022  1.00  0.00     0.020 A 
HETATM   28  C   UNL     1      43.567 -20.625   1.815  1.00  0.00     0.011 A 
ENDBRANCH  22  23
ENDBRANCH  20  22
ENDBRANCH   4  20
TORSDOF 7
ENDMDL
