MODEL 1
REMARK VINA RESULT:      -8.1      0.000      0.000
REMARK  8 active torsions:
REMARK  status: ('A' for Active; 'I' for Inactive)
REMARK    1  A    between atoms: C_2  and  C_3 
REMARK    2  A    between atoms: C_3  and  O_4 
REMARK    3  A    between atoms: O_4  and  C_5 
REMARK    4  A    between atoms: C_6  and  C_7 
REMARK    5  A    between atoms: C_11  and  C_12 
REMARK       I    between atoms: C_12  and  N_13 
REMARK    6  A    between atoms: N_13  and  N_14 
REMARK    7  A    between atoms: C_15  and  C_16 
REMARK    8  A    between atoms: C_17  and  O_18 
ROOT
HETATM    1  C   UNL     1      42.927 -18.062   2.868  1.00  0.00     0.092 A 
HETATM    2  N   UNL     1      42.041 -17.592   3.757  1.00  0.00    -0.174 NA
HETATM    3  N   UNL     1      41.817 -16.326   3.380  1.00  0.00    -0.272 N 
HETATM    4  H   UNL     1      41.156 -15.764   3.910  1.00  0.00     0.189 HD
HETATM    5  C   UNL     1      42.559 -15.922   2.305  1.00  0.00     0.121 A 
HETATM    6  C   UNL     1      43.276 -17.042   1.935  1.00  0.00     0.071 A 
ENDROOT
BRANCH   5   7
HETATM    7  C   UNL     1      42.482 -14.572   1.807  1.00  0.00     0.289 C 
HETATM    8  N   UNL     1      41.849 -14.443   0.579  1.00  0.00    -0.242 N 
HETATM    9  H   UNL     1      41.522 -15.263   0.085  1.00  0.00     0.192 HD
HETATM   10  O   UNL     1      42.977 -13.633   2.424  1.00  0.00    -0.264 OA
BRANCH   8  11
HETATM   11  N   UNL     1      41.804 -13.227  -0.037  1.00  0.00    -0.183 NA
HETATM   12  C   UNL     1      42.469 -13.131  -1.145  1.00  0.00     0.153 C 
BRANCH  12  13
HETATM   13  C   UNL     1      42.521 -11.859  -1.893  1.00  0.00     0.016 A 
HETATM   14  C   UNL     1      42.872 -10.649  -1.283  1.00  0.00     0.077 A 
HETATM   15  C   UNL     1      42.917  -9.476  -2.033  1.00  0.00     0.037 A 
HETATM   16  C   UNL     1      42.618  -9.506  -3.395  1.00  0.00     0.003 A 
HETATM   17  C   UNL     1      42.268 -10.710  -4.008  1.00  0.00     0.001 A 
HETATM   18  C   UNL     1      42.217 -11.889  -3.259  1.00  0.00     0.016 A 
BRANCH  14  19
HETATM   19  O   UNL     1      43.185 -10.535   0.044  1.00  0.00    -0.360 OA
HETATM   20  H   UNL     1      42.443 -10.079   0.501  1.00  0.00     0.217 HD
ENDBRANCH  14  19
ENDBRANCH  12  13
ENDBRANCH   8  11
ENDBRANCH   5   7
BRANCH   1  21
HETATM   21  C   UNL     1      43.465 -19.424   2.928  1.00  0.00     0.028 A 
HETATM   22  C   UNL     1      44.283 -19.901   3.968  1.00  0.00     0.081 A 
HETATM   23  C   UNL     1      44.824 -21.193   3.901  1.00  0.00     0.038 A 
HETATM   24  C   UNL     1      44.519 -22.040   2.838  1.00  0.00     0.003 A 
HETATM   25  C   UNL     1      43.684 -21.595   1.820  1.00  0.00     0.001 A 
HETATM   26  C   UNL     1      43.167 -20.297   1.862  1.00  0.00     0.017 A 
BRANCH  22  27
HETATM   27  O   UNL     1      44.673 -19.188   5.073  1.00  0.00    -0.350 OA
BRANCH  27  28
HETATM   28  C   UNL     1      43.991 -19.569   6.271  1.00  0.00     0.175 C 
BRANCH  28  29
HETATM   29  C   UNL     1      43.636 -18.311   7.063  1.00  0.00     0.022 C 
HETATM   30  C   UNL     1      44.420 -17.093   6.593  1.00  0.00     0.007 C 
ENDBRANCH  28  29
ENDBRANCH  27  28
ENDBRANCH  22  27
ENDBRANCH   1  21
TORSDOF 8
ENDMDL
MODEL 2
REMARK VINA RESULT:      -8.0      2.999      3.347
REMARK  8 active torsions:
REMARK  status: ('A' for Active; 'I' for Inactive)
REMARK    1  A    between atoms: C_2  and  C_3 
REMARK    2  A    between atoms: C_3  and  O_4 
REMARK    3  A    between atoms: O_4  and  C_5 
REMARK    4  A    between atoms: C_6  and  C_7 
REMARK    5  A    between atoms: C_11  and  C_12 
REMARK       I    between atoms: C_12  and  N_13 
REMARK    6  A    between atoms: N_13  and  N_14 
REMARK    7  A    between atoms: C_15  and  C_16 
REMARK    8  A    between atoms: C_17  and  O_18 
ROOT
HETATM    1  C   UNL     1      43.456 -18.549   1.999  1.00  0.00     0.092 A 
HETATM    2  N   UNL     1      44.332 -17.659   1.513  1.00  0.00    -0.174 NA
HETATM    3  N   UNL     1      43.577 -16.663   1.031  1.00  0.00    -0.272 N 
HETATM    4  H   UNL     1      44.035 -15.855   0.615  1.00  0.00     0.189 HD
HETATM    5  C   UNL     1      42.231 -16.881   1.132  1.00  0.00     0.121 A 
HETATM    6  C   UNL     1      42.123 -18.094   1.781  1.00  0.00     0.071 A 
ENDROOT
BRANCH   5   7
HETATM    7  C   UNL     1      41.278 -15.935   0.608  1.00  0.00     0.289 C 
HETATM    8  N   UNL     1      41.603 -15.418  -0.638  1.00  0.00    -0.242 N 
HETATM    9  H   UNL     1      42.472 -15.676  -1.088  1.00  0.00     0.192 HD
HETATM   10  O   UNL     1      40.285 -15.605   1.248  1.00  0.00    -0.264 OA
BRANCH   8  11
HETATM   11  N   UNL     1      40.827 -14.441  -1.190  1.00  0.00    -0.183 NA
HETATM   12  C   UNL     1      39.993 -14.830  -2.102  1.00  0.00     0.153 C 
BRANCH  12  13
HETATM   13  C   UNL     1      39.117 -13.864  -2.793  1.00  0.00     0.016 A 
HETATM   14  C   UNL     1      37.826 -14.199  -3.219  1.00  0.00     0.077 A 
HETATM   15  C   UNL     1      37.033 -13.249  -3.859  1.00  0.00     0.037 A 
HETATM   16  C   UNL     1      37.522 -11.960  -4.071  1.00  0.00     0.003 A 
HETATM   17  C   UNL     1      38.808 -11.620  -3.647  1.00  0.00     0.001 A 
HETATM   18  C   UNL     1      39.608 -12.570  -3.009  1.00  0.00     0.016 A 
BRANCH  14  19
HETATM   19  O   UNL     1      37.272 -15.436  -3.044  1.00  0.00    -0.360 OA
HETATM   20  H   UNL     1      36.348 -15.414  -3.380  1.00  0.00     0.217 HD
ENDBRANCH  14  19
ENDBRANCH  12  13
ENDBRANCH   8  11
ENDBRANCH   5   7
BRANCH   1  21
HETATM   21  C   UNL     1      43.868 -19.815   2.610  1.00  0.00     0.028 A 
HETATM   22  C   UNL     1      44.380 -19.929   3.915  1.00  0.00     0.081 A 
HETATM   23  C   UNL     1      44.830 -21.169   4.388  1.00  0.00     0.038 A 
HETATM   24  C   UNL     1      44.730 -22.313   3.599  1.00  0.00     0.003 A 
HETATM   25  C   UNL     1      44.195 -22.223   2.320  1.00  0.00     0.001 A 
HETATM   26  C   UNL     1      43.774 -20.984   1.828  1.00  0.00     0.017 A 
BRANCH  22  27
HETATM   27  O   UNL     1      44.543 -18.897   4.804  1.00  0.00    -0.350 OA
BRANCH  27  28
HETATM   28  C   UNL     1      43.549 -18.863   5.831  1.00  0.00     0.175 C 
BRANCH  28  29
HETATM   29  C   UNL     1      42.553 -17.745   5.522  1.00  0.00     0.022 C 
HETATM   30  C   UNL     1      43.241 -16.479   5.031  1.00  0.00     0.007 C 
ENDBRANCH  28  29
ENDBRANCH  27  28
ENDBRANCH  22  27
ENDBRANCH   1  21
TORSDOF 8
ENDMDL
MODEL 3
REMARK VINA RESULT:      -7.9      1.512      1.599
REMARK  8 active torsions:
REMARK  status: ('A' for Active; 'I' for Inactive)
REMARK    1  A    between atoms: C_2  and  C_3 
REMARK    2  A    between atoms: C_3  and  O_4 
REMARK    3  A    between atoms: O_4  and  C_5 
REMARK    4  A    between atoms: C_6  and  C_7 
REMARK    5  A    between atoms: C_11  and  C_12 
REMARK       I    between atoms: C_12  and  N_13 
REMARK    6  A    between atoms: N_13  and  N_14 
REMARK    7  A    between atoms: C_15  and  C_16 
REMARK    8  A    between atoms: C_17  and  O_18 
ROOT
HETATM    1  C   UNL     1      42.525 -18.076   1.804  1.00  0.00     0.092 A 
HETATM    2  N   UNL     1      41.277 -18.240   1.344  1.00  0.00    -0.174 NA
HETATM    3  N   UNL     1      40.940 -17.048   0.834  1.00  0.00    -0.272 N 
HETATM    4  H   UNL     1      40.023 -16.935   0.410  1.00  0.00     0.189 HD
HETATM    5  C   UNL     1      41.899 -16.084   0.984  1.00  0.00     0.121 A 
HETATM    6  C   UNL     1      42.953 -16.732   1.593  1.00  0.00     0.071 A 
ENDROOT
BRANCH   5   7
HETATM    7  C   UNL     1      41.673 -14.730   0.545  1.00  0.00     0.289 C 
HETATM    8  N   UNL     1      41.797 -14.538  -0.824  1.00  0.00    -0.242 N 
HETATM    9  H   UNL     1      42.071 -15.305  -1.424  1.00  0.00     0.192 HD
HETATM   10  O   UNL     1      41.428 -13.830   1.342  1.00  0.00    -0.264 OA
BRANCH   8  11
HETATM   11  N   UNL     1      41.704 -13.281  -1.344  1.00  0.00    -0.183 NA
HETATM   12  C   UNL     1      42.563 -12.987  -2.268  1.00  0.00     0.153 C 
BRANCH  12  13
HETATM   13  C   UNL     1      42.583 -11.649  -2.891  1.00  0.00     0.016 A 
HETATM   14  C   UNL     1      42.993 -10.507  -2.193  1.00  0.00     0.077 A 
HETATM   15  C   UNL     1      43.004  -9.267  -2.827  1.00  0.00     0.037 A 
HETATM   16  C   UNL     1      42.611  -9.161  -4.162  1.00  0.00     0.003 A 
HETATM   17  C   UNL     1      42.203 -10.297  -4.863  1.00  0.00     0.001 A 
HETATM   18  C   UNL     1      42.186 -11.542  -4.230  1.00  0.00     0.016 A 
BRANCH  14  19
HETATM   19  O   UNL     1      43.398 -10.526  -0.887  1.00  0.00    -0.360 OA
HETATM   20  H   UNL     1      44.367 -10.360  -0.858  1.00  0.00     0.217 HD
ENDBRANCH  14  19
ENDBRANCH  12  13
ENDBRANCH   8  11
ENDBRANCH   5   7
BRANCH   1  21
HETATM   21  C   UNL     1      43.273 -19.147   2.466  1.00  0.00     0.028 A 
HETATM   22  C   UNL     1      43.800 -19.051   3.767  1.00  0.00     0.081 A 
HETATM   23  C   UNL     1      44.577 -20.094   4.291  1.00  0.00     0.038 A 
HETATM   24  C   UNL     1      44.797 -21.258   3.557  1.00  0.00     0.003 A 
HETATM   25  C   UNL     1      44.255 -21.381   2.283  1.00  0.00     0.001 A 
HETATM   26  C   UNL     1      43.506 -20.333   1.741  1.00  0.00     0.017 A 
BRANCH  22  27
HETATM   27  O   UNL     1      43.671 -17.973   4.605  1.00  0.00    -0.350 OA
BRANCH  27  28
HETATM   28  C   UNL     1      42.745 -18.185   5.674  1.00  0.00     0.175 C 
BRANCH  28  29
HETATM   29  C   UNL     1      41.364 -17.695   5.239  1.00  0.00     0.022 C 
HETATM   30  C   UNL     1      40.794 -16.653   6.192  1.00  0.00     0.007 C 
ENDBRANCH  28  29
ENDBRANCH  27  28
ENDBRANCH  22  27
ENDBRANCH   1  21
TORSDOF 8
ENDMDL
MODEL 4
REMARK VINA RESULT:      -7.8      1.975      2.370
REMARK  8 active torsions:
REMARK  status: ('A' for Active; 'I' for Inactive)
REMARK    1  A    between atoms: C_2  and  C_3 
REMARK    2  A    between atoms: C_3  and  O_4 
REMARK    3  A    between atoms: O_4  and  C_5 
REMARK    4  A    between atoms: C_6  and  C_7 
REMARK    5  A    between atoms: C_11  and  C_12 
REMARK       I    between atoms: C_12  and  N_13 
REMARK    6  A    between atoms: N_13  and  N_14 
REMARK    7  A    between atoms: C_15  and  C_16 
REMARK    8  A    between atoms: C_17  and  O_18 
ROOT
HETATM    1  C   UNL     1      42.213 -17.834   1.682  1.00  0.00     0.092 A 
HETATM    2  N   UNL     1      40.889 -17.687   1.823  1.00  0.00    -0.174 NA
HETATM    3  N   UNL     1      40.540 -16.802   0.879  1.00  0.00    -0.272 N 
HETATM    4  H   UNL     1      39.562 -16.541   0.787  1.00  0.00     0.189 HD
HETATM    5  C   UNL     1      41.590 -16.319   0.149  1.00  0.00     0.121 A 
HETATM    6  C   UNL     1      42.693 -16.992   0.636  1.00  0.00     0.071 A 
ENDROOT
BRANCH   5   7
HETATM    7  C   UNL     1      41.396 -15.315  -0.867  1.00  0.00     0.289 C 
HETATM    8  N   UNL     1      42.035 -14.109  -0.618  1.00  0.00    -0.242 N 
HETATM    9  H   UNL     1      42.548 -13.971   0.243  1.00  0.00     0.192 HD
HETATM   10  O   UNL     1      40.689 -15.525  -1.848  1.00  0.00    -0.264 OA
BRANCH   8  11
HETATM   11  N   UNL     1      41.843 -13.053  -1.459  1.00  0.00    -0.183 NA
HETATM   12  C   UNL     1      42.782 -12.161  -1.469  1.00  0.00     0.153 C 
BRANCH  12  13
HETATM   13  C   UNL     1      42.679 -10.957  -2.318  1.00  0.00     0.016 A 
HETATM   14  C   UNL     1      42.418 -11.033  -3.691  1.00  0.00     0.077 A 
HETATM   15  C   UNL     1      42.319  -9.868  -4.449  1.00  0.00     0.037 A 
HETATM   16  C   UNL     1      42.475  -8.623  -3.839  1.00  0.00     0.003 A 
HETATM   17  C   UNL     1      42.734  -8.542  -2.470  1.00  0.00     0.001 A 
HETATM   18  C   UNL     1      42.838  -9.708  -1.707  1.00  0.00     0.016 A 
BRANCH  14  19
HETATM   19  O   UNL     1      42.247 -12.212  -4.363  1.00  0.00    -0.360 OA
HETATM   20  H   UNL     1      42.770 -12.909  -3.907  1.00  0.00     0.217 HD
ENDBRANCH  14  19
ENDBRANCH  12  13
ENDBRANCH   8  11
ENDBRANCH   5   7
BRANCH   1  21
HETATM   21  C   UNL     1      43.010 -18.711   2.543  1.00  0.00     0.028 A 
HETATM   22  C   UNL     1      43.296 -18.440   3.893  1.00  0.00     0.081 A 
HETATM   23  C   UNL     1      44.138 -19.293   4.619  1.00  0.00     0.038 A 
HETATM   24  C   UNL     1      44.662 -20.445   4.036  1.00  0.00     0.003 A 
HETATM   25  C   UNL     1      44.362 -20.745   2.712  1.00  0.00     0.001 A 
HETATM   26  C   UNL     1      43.549 -19.882   1.971  1.00  0.00     0.017 A 
BRANCH  22  27
HETATM   27  O   UNL     1      42.858 -17.350   4.601  1.00  0.00    -0.350 OA
BRANCH  27  28
HETATM   28  C   UNL     1      43.656 -17.054   5.751  1.00  0.00     0.175 C 
BRANCH  28  29
HETATM   29  C   UNL     1      42.733 -16.790   6.940  1.00  0.00     0.022 C 
HETATM   30  C   UNL     1      43.358 -17.217   8.262  1.00  0.00     0.007 C 
ENDBRANCH  28  29
ENDBRANCH  27  28
ENDBRANCH  22  27
ENDBRANCH   1  21
TORSDOF 8
ENDMDL
MODEL 5
REMARK VINA RESULT:      -7.6      3.331      3.732
REMARK  8 active torsions:
REMARK  status: ('A' for Active; 'I' for Inactive)
REMARK    1  A    between atoms: C_2  and  C_3 
REMARK    2  A    between atoms: C_3  and  O_4 
REMARK    3  A    between atoms: O_4  and  C_5 
REMARK    4  A    between atoms: C_6  and  C_7 
REMARK    5  A    between atoms: C_11  and  C_12 
REMARK       I    between atoms: C_12  and  N_13 
REMARK    6  A    between atoms: N_13  and  N_14 
REMARK    7  A    between atoms: C_15  and  C_16 
REMARK    8  A    between atoms: C_17  and  O_18 
ROOT
HETATM    1  C   UNL     1      43.486 -18.607   1.997  1.00  0.00     0.092 A 
HETATM    2  N   UNL     1      44.367 -17.711   1.532  1.00  0.00    -0.174 NA
HETATM    3  N   UNL     1      43.616 -16.734   1.005  1.00  0.00    -0.272 N 
HETATM    4  H   UNL     1      44.077 -15.925   0.596  1.00  0.00     0.189 HD
HETATM    5  C   UNL     1      42.271 -16.972   1.058  1.00  0.00     0.121 A 
HETATM    6  C   UNL     1      42.155 -18.177   1.720  1.00  0.00     0.071 A 
ENDROOT
BRANCH   5   7
HETATM    7  C   UNL     1      41.325 -16.049   0.483  1.00  0.00     0.289 C 
HETATM    8  N   UNL     1      40.499 -15.419   1.403  1.00  0.00    -0.242 N 
HETATM    9  H   UNL     1      40.559 -15.651   2.386  1.00  0.00     0.192 HD
HETATM   10  O   UNL     1      41.252 -15.879  -0.731  1.00  0.00    -0.264 OA
BRANCH   8  11
HETATM   11  N   UNL     1      39.499 -14.600   0.968  1.00  0.00    -0.183 NA
HETATM   12  C   UNL     1      39.607 -13.352   1.300  1.00  0.00     0.153 C 
BRANCH  12  13
HETATM   13  C   UNL     1      38.575 -12.370   0.913  1.00  0.00     0.016 A 
HETATM   14  C   UNL     1      37.234 -12.730   0.730  1.00  0.00     0.077 A 
HETATM   15  C   UNL     1      36.294 -11.765   0.374  1.00  0.00     0.037 A 
HETATM   16  C   UNL     1      36.686 -10.437   0.205  1.00  0.00     0.003 A 
HETATM   17  C   UNL     1      38.021 -10.073   0.387  1.00  0.00     0.001 A 
HETATM   18  C   UNL     1      38.968 -11.038   0.740  1.00  0.00     0.016 A 
BRANCH  14  19
HETATM   19  O   UNL     1      36.768 -14.006   0.883  1.00  0.00    -0.360 OA
HETATM   20  H   UNL     1      36.091 -14.176   0.190  1.00  0.00     0.217 HD
ENDBRANCH  14  19
ENDBRANCH  12  13
ENDBRANCH   8  11
ENDBRANCH   5   7
BRANCH   1  21
HETATM   21  C   UNL     1      43.893 -19.857   2.642  1.00  0.00     0.028 A 
HETATM   22  C   UNL     1      44.400 -19.938   3.952  1.00  0.00     0.081 A 
HETATM   23  C   UNL     1      44.845 -21.166   4.460  1.00  0.00     0.038 A 
HETATM   24  C   UNL     1      44.747 -22.331   3.700  1.00  0.00     0.003 A 
HETATM   25  C   UNL     1      44.218 -22.273   2.416  1.00  0.00     0.001 A 
HETATM   26  C   UNL     1      43.801 -21.047   1.890  1.00  0.00     0.017 A 
BRANCH  22  27
HETATM   27  O   UNL     1      44.560 -18.884   4.815  1.00  0.00    -0.350 OA
BRANCH  27  28
HETATM   28  C   UNL     1      43.615 -18.873   5.888  1.00  0.00     0.175 C 
BRANCH  28  29
HETATM   29  C   UNL     1      42.404 -18.035   5.475  1.00  0.00     0.022 C 
HETATM   30  C   UNL     1      42.796 -16.628   5.046  1.00  0.00     0.007 C 
ENDBRANCH  28  29
ENDBRANCH  27  28
ENDBRANCH  22  27
ENDBRANCH   1  21
TORSDOF 8
ENDMDL
MODEL 6
REMARK VINA RESULT:      -7.5      5.310      7.031
REMARK  8 active torsions:
REMARK  status: ('A' for Active; 'I' for Inactive)
REMARK    1  A    between atoms: C_2  and  C_3 
REMARK    2  A    between atoms: C_3  and  O_4 
REMARK    3  A    between atoms: O_4  and  C_5 
REMARK    4  A    between atoms: C_6  and  C_7 
REMARK    5  A    between atoms: C_11  and  C_12 
REMARK       I    between atoms: C_12  and  N_13 
REMARK    6  A    between atoms: N_13  and  N_14 
REMARK    7  A    between atoms: C_15  and  C_16 
REMARK    8  A    between atoms: C_17  and  O_18 
ROOT
HETATM    1  C   UNL     1      43.666 -18.206   3.514  1.00  0.00     0.092 A 
HETATM    2  N   UNL     1      43.686 -17.118   2.732  1.00  0.00    -0.174 NA
HETATM    3  N   UNL     1      43.573 -16.085   3.578  1.00  0.00    -0.272 N 
HETATM    4  H   UNL     1      43.577 -15.140   3.204  1.00  0.00     0.189 HD
HETATM    5  C   UNL     1      43.427 -16.449   4.888  1.00  0.00     0.121 A 
HETATM    6  C   UNL     1      43.508 -17.826   4.879  1.00  0.00     0.071 A 
ENDROOT
BRANCH   5   7
HETATM    7  C   UNL     1      43.234 -15.462   5.921  1.00  0.00     0.289 C 
HETATM    8  N   UNL     1      44.315 -15.301   6.777  1.00  0.00    -0.242 N 
HETATM    9  H   UNL     1      45.136 -15.883   6.677  1.00  0.00     0.192 HD
HETATM   10  O   UNL     1      42.175 -14.852   6.034  1.00  0.00    -0.264 OA
BRANCH   8  11
HETATM   11  N   UNL     1      44.211 -14.468   7.851  1.00  0.00    -0.183 NA
HETATM   12  C   UNL     1      44.550 -13.235   7.645  1.00  0.00     0.153 C 
BRANCH  12  13
HETATM   13  C   UNL     1      44.507 -12.241   8.735  1.00  0.00     0.016 A 
HETATM   14  C   UNL     1      43.415 -11.385   8.922  1.00  0.00     0.077 A 
HETATM   15  C   UNL     1      43.416 -10.470   9.973  1.00  0.00     0.037 A 
HETATM   16  C   UNL     1      44.504 -10.409  10.845  1.00  0.00     0.003 A 
HETATM   17  C   UNL     1      45.594 -11.261  10.663  1.00  0.00     0.001 A 
HETATM   18  C   UNL     1      45.600 -12.177   9.609  1.00  0.00     0.016 A 
BRANCH  14  19
HETATM   19  O   UNL     1      42.310 -11.386   8.118  1.00  0.00    -0.360 OA
HETATM   20  H   UNL     1      41.516 -11.231   8.678  1.00  0.00     0.217 HD
ENDBRANCH  14  19
ENDBRANCH  12  13
ENDBRANCH   8  11
ENDBRANCH   5   7
BRANCH   1  21
HETATM   21  C   UNL     1      43.748 -19.568   2.981  1.00  0.00     0.028 A 
HETATM   22  C   UNL     1      44.493 -20.602   3.575  1.00  0.00     0.081 A 
HETATM   23  C   UNL     1      44.583 -21.853   2.950  1.00  0.00     0.038 A 
HETATM   24  C   UNL     1      43.900 -22.109   1.762  1.00  0.00     0.003 A 
HETATM   25  C   UNL     1      43.133 -21.107   1.180  1.00  0.00     0.001 A 
HETATM   26  C   UNL     1      43.063 -19.847   1.781  1.00  0.00     0.017 A 
BRANCH  22  27
HETATM   27  O   UNL     1      45.218 -20.502   4.735  1.00  0.00    -0.350 OA
BRANCH  27  28
HETATM   28  C   UNL     1      44.710 -21.310   5.801  1.00  0.00     0.175 C 
BRANCH  28  29
HETATM   29  C   UNL     1      43.877 -20.433   6.735  1.00  0.00     0.022 C 
HETATM   30  C   UNL     1      43.498 -21.156   8.020  1.00  0.00     0.007 C 
ENDBRANCH  28  29
ENDBRANCH  27  28
ENDBRANCH  22  27
ENDBRANCH   1  21
TORSDOF 8
ENDMDL
MODEL 7
REMARK VINA RESULT:      -7.5      2.590      9.764
REMARK  8 active torsions:
REMARK  status: ('A' for Active; 'I' for Inactive)
REMARK    1  A    between atoms: C_2  and  C_3 
REMARK    2  A    between atoms: C_3  and  O_4 
REMARK    3  A    between atoms: O_4  and  C_5 
REMARK    4  A    between atoms: C_6  and  C_7 
REMARK    5  A    between atoms: C_11  and  C_12 
REMARK       I    between atoms: C_12  and  N_13 
REMARK    6  A    between atoms: N_13  and  N_14 
REMARK    7  A    between atoms: C_15  and  C_16 
REMARK    8  A    between atoms: C_17  and  O_18 
ROOT
HETATM    1  C   UNL     1      41.342 -14.201  -0.942  1.00  0.00     0.092 A 
HETATM    2  N   UNL     1      40.977 -15.226  -1.723  1.00  0.00    -0.174 NA
HETATM    3  N   UNL     1      41.002 -16.297  -0.918  1.00  0.00    -0.272 N 
HETATM    4  H   UNL     1      40.745 -17.205  -1.297  1.00  0.00     0.189 HD
HETATM    5  C   UNL     1      41.419 -16.029   0.356  1.00  0.00     0.121 A 
HETATM    6  C   UNL     1      41.626 -14.665   0.376  1.00  0.00     0.071 A 
ENDROOT
BRANCH   5   7
HETATM    7  C   UNL     1      41.560 -17.079   1.334  1.00  0.00     0.289 C 
HETATM    8  N   UNL     1      42.606 -17.958   1.091  1.00  0.00    -0.242 N 
HETATM    9  H   UNL     1      43.172 -17.862   0.258  1.00  0.00     0.192 HD
HETATM   10  O   UNL     1      40.782 -17.185   2.277  1.00  0.00    -0.264 OA
BRANCH   8  11
HETATM   11  N   UNL     1      42.776 -19.049   1.893  1.00  0.00    -0.183 NA
HETATM   12  C   UNL     1      43.978 -19.244   2.333  1.00  0.00     0.153 C 
BRANCH  12  13
HETATM   13  C   UNL     1      44.296 -20.405   3.187  1.00  0.00     0.016 A 
HETATM   14  C   UNL     1      44.335 -21.712   2.687  1.00  0.00     0.077 A 
HETATM   15  C   UNL     1      44.650 -22.774   3.530  1.00  0.00     0.037 A 
HETATM   16  C   UNL     1      44.933 -22.537   4.876  1.00  0.00     0.003 A 
HETATM   17  C   UNL     1      44.897 -21.236   5.380  1.00  0.00     0.001 A 
HETATM   18  C   UNL     1      44.577 -20.168   4.538  1.00  0.00     0.016 A 
BRANCH  14  19
HETATM   19  O   UNL     1      44.077 -22.027   1.381  1.00  0.00    -0.360 OA
HETATM   20  H   UNL     1      44.146 -23.003   1.277  1.00  0.00     0.217 HD
ENDBRANCH  14  19
ENDBRANCH  12  13
ENDBRANCH   8  11
ENDBRANCH   5   7
BRANCH   1  21
HETATM   21  C   UNL     1      41.463 -12.829  -1.439  1.00  0.00     0.028 A 
HETATM   22  C   UNL     1      40.529 -11.811  -1.177  1.00  0.00     0.081 A 
HETATM   23  C   UNL     1      40.680 -10.547  -1.765  1.00  0.00     0.038 A 
HETATM   24  C   UNL     1      41.780 -10.263  -2.572  1.00  0.00     0.003 A 
HETATM   25  C   UNL     1      42.730 -11.249  -2.814  1.00  0.00     0.001 A 
HETATM   26  C   UNL     1      42.569 -12.521  -2.258  1.00  0.00     0.017 A 
BRANCH  22  27
HETATM   27  O   UNL     1      39.400 -11.939  -0.409  1.00  0.00    -0.350 OA
BRANCH  27  28
HETATM   28  C   UNL     1      38.238 -12.313  -1.155  1.00  0.00     0.175 C 
BRANCH  28  29
HETATM   29  C   UNL     1      37.792 -13.708  -0.714  1.00  0.00     0.022 C 
HETATM   30  C   UNL     1      38.009 -13.939   0.775  1.00  0.00     0.007 C 
ENDBRANCH  28  29
ENDBRANCH  27  28
ENDBRANCH  22  27
ENDBRANCH   1  21
TORSDOF 8
ENDMDL
MODEL 8
REMARK VINA RESULT:      -7.4      3.823      5.354
REMARK  8 active torsions:
REMARK  status: ('A' for Active; 'I' for Inactive)
REMARK    1  A    between atoms: C_2  and  C_3 
REMARK    2  A    between atoms: C_3  and  O_4 
REMARK    3  A    between atoms: O_4  and  C_5 
REMARK    4  A    between atoms: C_6  and  C_7 
REMARK    5  A    between atoms: C_11  and  C_12 
REMARK       I    between atoms: C_12  and  N_13 
REMARK    6  A    between atoms: N_13  and  N_14 
REMARK    7  A    between atoms: C_15  and  C_16 
REMARK    8  A    between atoms: C_17  and  O_18 
ROOT
HETATM    1  C   UNL     1      43.657 -18.090   2.596  1.00  0.00     0.092 A 
HETATM    2  N   UNL     1      43.326 -17.597   1.395  1.00  0.00    -0.174 NA
HETATM    3  N   UNL     1      43.145 -16.285   1.601  1.00  0.00    -0.272 N 
HETATM    4  H   UNL     1      42.894 -15.693   0.813  1.00  0.00     0.189 HD
HETATM    5  C   UNL     1      43.294 -15.898   2.904  1.00  0.00     0.121 A 
HETATM    6  C   UNL     1      43.651 -17.051   3.572  1.00  0.00     0.071 A 
ENDROOT
BRANCH   5   7
HETATM    7  C   UNL     1      43.076 -14.531   3.307  1.00  0.00     0.289 C 
HETATM    8  N   UNL     1      42.742 -14.370   4.645  1.00  0.00    -0.242 N 
HETATM    9  H   UNL     1      42.626 -15.177   5.243  1.00  0.00     0.192 HD
HETATM   10  O   UNL     1      43.151 -13.606   2.504  1.00  0.00    -0.264 OA
BRANCH   8  11
HETATM   11  N   UNL     1      42.415 -13.133   5.118  1.00  0.00    -0.183 NA
HETATM   12  C   UNL     1      41.283 -13.048   5.742  1.00  0.00     0.153 C 
BRANCH  12  13
HETATM   13  C   UNL     1      40.805 -11.759   6.278  1.00  0.00     0.016 A 
HETATM   14  C   UNL     1      39.818 -11.682   7.268  1.00  0.00     0.077 A 
HETATM   15  C   UNL     1      39.407 -10.441   7.749  1.00  0.00     0.037 A 
HETATM   16  C   UNL     1      39.982  -9.272   7.250  1.00  0.00     0.003 A 
HETATM   17  C   UNL     1      40.967  -9.343   6.264  1.00  0.00     0.001 A 
HETATM   18  C   UNL     1      41.380 -10.585   5.775  1.00  0.00     0.016 A 
BRANCH  14  19
HETATM   19  O   UNL     1      39.210 -12.778   7.813  1.00  0.00    -0.360 OA
HETATM   20  H   UNL     1      38.521 -12.471   8.444  1.00  0.00     0.217 HD
ENDBRANCH  14  19
ENDBRANCH  12  13
ENDBRANCH   8  11
ENDBRANCH   5   7
BRANCH   1  21
HETATM   21  C   UNL     1      43.926 -19.512   2.822  1.00  0.00     0.028 A 
HETATM   22  C   UNL     1      44.449 -20.032   4.020  1.00  0.00     0.081 A 
HETATM   23  C   UNL     1      44.755 -21.397   4.119  1.00  0.00     0.038 A 
HETATM   24  C   UNL     1      44.500 -22.265   3.059  1.00  0.00     0.003 A 
HETATM   25  C   UNL     1      43.953 -21.771   1.881  1.00  0.00     0.001 A 
HETATM   26  C   UNL     1      43.674 -20.407   1.762  1.00  0.00     0.017 A 
BRANCH  22  27
HETATM   27  O   UNL     1      44.754 -19.307   5.143  1.00  0.00    -0.350 OA
BRANCH  27  28
HETATM   28  C   UNL     1      44.014 -19.702   6.300  1.00  0.00     0.175 C 
BRANCH  28  29
HETATM   29  C   UNL     1      43.326 -18.472   6.894  1.00  0.00     0.022 C 
HETATM   30  C   UNL     1      43.940 -18.052   8.222  1.00  0.00     0.007 C 
ENDBRANCH  28  29
ENDBRANCH  27  28
ENDBRANCH  22  27
ENDBRANCH   1  21
TORSDOF 8
ENDMDL
MODEL 9
REMARK VINA RESULT:      -7.3      5.651      7.064
REMARK  8 active torsions:
REMARK  status: ('A' for Active; 'I' for Inactive)
REMARK    1  A    between atoms: C_2  and  C_3 
REMARK    2  A    between atoms: C_3  and  O_4 
REMARK    3  A    between atoms: O_4  and  C_5 
REMARK    4  A    between atoms: C_6  and  C_7 
REMARK    5  A    between atoms: C_11  and  C_12 
REMARK       I    between atoms: C_12  and  N_13 
REMARK    6  A    between atoms: N_13  and  N_14 
REMARK    7  A    between atoms: C_15  and  C_16 
REMARK    8  A    between atoms: C_17  and  O_18 
ROOT
HETATM    1  C   UNL     1      41.521 -16.722   4.672  1.00  0.00     0.092 A 
HETATM    2  N   UNL     1      40.750 -17.031   5.723  1.00  0.00    -0.174 NA
HETATM    3  N   UNL     1      40.155 -15.879   6.062  1.00  0.00    -0.272 N 
HETATM    4  H   UNL     1      39.502 -15.873   6.841  1.00  0.00     0.189 HD
HETATM    5  C   UNL     1      40.543 -14.806   5.308  1.00  0.00     0.121 A 
HETATM    6  C   UNL     1      41.416 -15.331   4.378  1.00  0.00     0.071 A 
ENDROOT
BRANCH   5   7
HETATM    7  C   UNL     1      40.043 -13.482   5.579  1.00  0.00     0.289 C 
HETATM    8  N   UNL     1      39.830 -13.208   6.923  1.00  0.00    -0.242 N 
HETATM    9  H   UNL     1      39.982 -13.925   7.620  1.00  0.00     0.192 HD
HETATM   10  O   UNL     1      39.801 -12.690   4.672  1.00  0.00    -0.264 OA
BRANCH   8  11
HETATM   11  N   UNL     1      39.266 -12.022   7.292  1.00  0.00    -0.183 NA
HETATM   12  C   UNL     1      39.971 -11.287   8.092  1.00  0.00     0.153 C 
BRANCH  12  13
HETATM   13  C   UNL     1      39.460  -9.994   8.586  1.00  0.00     0.016 A 
HETATM   14  C   UNL     1      38.842  -9.064   7.741  1.00  0.00     0.077 A 
HETATM   15  C   UNL     1      38.366  -7.860   8.255  1.00  0.00     0.037 A 
HETATM   16  C   UNL     1      38.497  -7.581   9.616  1.00  0.00     0.003 A 
HETATM   17  C   UNL     1      39.110  -8.505  10.463  1.00  0.00     0.001 A 
HETATM   18  C   UNL     1      39.594  -9.712   9.951  1.00  0.00     0.016 A 
BRANCH  14  19
HETATM   19  O   UNL     1      38.669  -9.263   6.399  1.00  0.00    -0.360 OA
HETATM   20  H   UNL     1      37.775  -9.646   6.253  1.00  0.00     0.217 HD
ENDBRANCH  14  19
ENDBRANCH  12  13
ENDBRANCH   8  11
ENDBRANCH   5   7
BRANCH   1  21
HETATM   21  C   UNL     1      42.370 -17.706   3.996  1.00  0.00     0.028 A 
HETATM   22  C   UNL     1      43.527 -18.269   4.564  1.00  0.00     0.081 A 
HETATM   23  C   UNL     1      44.328 -19.140   3.811  1.00  0.00     0.038 A 
HETATM   24  C   UNL     1      43.967 -19.501   2.514  1.00  0.00     0.003 A 
HETATM   25  C   UNL     1      42.809 -18.978   1.952  1.00  0.00     0.001 A 
HETATM   26  C   UNL     1      42.022 -18.084   2.683  1.00  0.00     0.017 A 
BRANCH  22  27
HETATM   27  O   UNL     1      44.010 -18.010   5.821  1.00  0.00    -0.350 OA
BRANCH  27  28
HETATM   28  C   UNL     1      43.854 -19.101   6.732  1.00  0.00     0.175 C 
BRANCH  28  29
HETATM   29  C   UNL     1      43.953 -18.572   8.163  1.00  0.00     0.022 C 
HETATM   30  C   UNL     1      43.391 -17.163   8.297  1.00  0.00     0.007 C 
ENDBRANCH  28  29
ENDBRANCH  27  28
ENDBRANCH  22  27
ENDBRANCH   1  21
TORSDOF 8
ENDMDL
MODEL 10
REMARK VINA RESULT:      -7.3      1.789      3.287
REMARK  8 active torsions:
REMARK  status: ('A' for Active; 'I' for Inactive)
REMARK    1  A    between atoms: C_2  and  C_3 
REMARK    2  A    between atoms: C_3  and  O_4 
REMARK    3  A    between atoms: O_4  and  C_5 
REMARK    4  A    between atoms: C_6  and  C_7 
REMARK    5  A    between atoms: C_11  and  C_12 
REMARK       I    between atoms: C_12  and  N_13 
REMARK    6  A    between atoms: N_13  and  N_14 
REMARK    7  A    between atoms: C_15  and  C_16 
REMARK    8  A    between atoms: C_17  and  O_18 
ROOT
HETATM    1  C   UNL     1      41.671 -16.771   2.580  1.00  0.00     0.092 A 
HETATM    2  N   UNL     1      40.890 -17.572   1.842  1.00  0.00    -0.174 NA
HETATM    3  N   UNL     1      40.597 -16.854   0.750  1.00  0.00    -0.272 N 
HETATM    4  H   UNL     1      40.015 -17.271   0.028  1.00  0.00     0.189 HD
HETATM    5  C   UNL     1      41.112 -15.587   0.758  1.00  0.00     0.121 A 
HETATM    6  C   UNL     1      41.837 -15.513   1.930  1.00  0.00     0.071 A 
ENDROOT
BRANCH   5   7
HETATM    7  C   UNL     1      40.842 -14.663  -0.315  1.00  0.00     0.289 C 
HETATM    8  N   UNL     1      41.948 -14.332  -1.085  1.00  0.00    -0.242 N 
HETATM    9  H   UNL     1      42.862 -14.697  -0.850  1.00  0.00     0.192 HD
HETATM   10  O   UNL     1      39.721 -14.194  -0.490  1.00  0.00    -0.264 OA
BRANCH   8  11
HETATM   11  N   UNL     1      41.835 -13.391  -2.066  1.00  0.00    -0.183 NA
HETATM   12  C   UNL     1      42.570 -12.334  -1.922  1.00  0.00     0.153 C 
BRANCH  12  13
HETATM   13  C   UNL     1      42.517 -11.232  -2.901  1.00  0.00     0.016 A 
HETATM   14  C   UNL     1      42.530  -9.887  -2.513  1.00  0.00     0.077 A 
HETATM   15  C   UNL     1      42.489  -8.881  -3.475  1.00  0.00     0.037 A 
HETATM   16  C   UNL     1      42.442  -9.212  -4.830  1.00  0.00     0.003 A 
HETATM   17  C   UNL     1      42.431 -10.551  -5.223  1.00  0.00     0.001 A 
HETATM   18  C   UNL     1      42.467 -11.563  -4.261  1.00  0.00     0.016 A 
BRANCH  14  19
HETATM   19  O   UNL     1      42.581  -9.479  -1.209  1.00  0.00    -0.360 OA
HETATM   20  H   UNL     1      42.761  -8.512  -1.191  1.00  0.00     0.217 HD
ENDBRANCH  14  19
ENDBRANCH  12  13
ENDBRANCH   8  11
ENDBRANCH   5   7
BRANCH   1  21
HETATM   21  C   UNL     1      42.205 -17.167   3.885  1.00  0.00     0.028 A 
HETATM   22  C   UNL     1      43.396 -17.895   4.059  1.00  0.00     0.081 A 
HETATM   23  C   UNL     1      43.789 -18.306   5.340  1.00  0.00     0.038 A 
HETATM   24  C   UNL     1      43.040 -17.957   6.462  1.00  0.00     0.003 A 
HETATM   25  C   UNL     1      41.878 -17.209   6.310  1.00  0.00     0.001 A 
HETATM   26  C   UNL     1      41.462 -16.823   5.033  1.00  0.00     0.017 A 
BRANCH  22  27
HETATM   27  O   UNL     1      44.233 -18.312   3.056  1.00  0.00    -0.350 OA
BRANCH  27  28
HETATM   28  C   UNL     1      44.406 -19.731   3.006  1.00  0.00     0.175 C 
BRANCH  28  29
HETATM   29  C   UNL     1      43.470 -20.308   1.944  1.00  0.00     0.022 C 
HETATM   30  C   UNL     1      43.802 -21.754   1.605  1.00  0.00     0.007 C 
ENDBRANCH  28  29
ENDBRANCH  27  28
ENDBRANCH  22  27
ENDBRANCH   1  21
TORSDOF 8
ENDMDL
