MODEL 1
REMARK VINA RESULT:      -8.9      0.000      0.000
REMARK  7 active torsions:
REMARK  status: ('A' for Active; 'I' for Inactive)
REMARK    1  A    between atoms: C_2  and  C_3 
REMARK    2  A    between atoms: C_3  and  C_4 
REMARK    3  A    between atoms: C_8  and  C_9 
REMARK       I    between atoms: C_9  and  N_10 
REMARK    4  A    between atoms: N_10  and  C_11 
REMARK    5  A    between atoms: C_11  and  C_12 
REMARK    6  A    between atoms: C_12  and  N_13 
REMARK    7  A    between atoms: C_16  and  C_17 
ROOT
HETATM    1  C   UNL     1      44.339 -14.090   6.547  1.00  0.00     0.150 C 
ENDROOT
BRANCH   1   2
HETATM    2  N   UNL     1      44.270 -13.732   7.957  1.00  0.00    -0.354 N 
HETATM    3  C   UNL     1      45.074 -12.762   8.529  1.00  0.00     0.272 C 
HETATM    4  O   UNL     1      46.128 -12.410   8.011  1.00  0.00    -0.266 OA
HETATM    5  H   UNL     1      43.377 -13.827   8.447  1.00  0.00     0.162 HD
BRANCH   3   6
HETATM    6  C   UNL     1      44.590 -12.288   9.829  1.00  0.00     0.146 A 
HETATM    7  N   UNL     1      44.320 -13.154  10.826  1.00  0.00    -0.169 NA
HETATM    8  N   UNL     1      43.926 -12.363  11.845  1.00  0.00    -0.282 N 
HETATM    9  C   UNL     1      43.941 -11.030  11.540  1.00  0.00     0.030 A 
HETATM   10  H   UNL     1      43.665 -12.798  12.726  1.00  0.00     0.189 HD
HETATM   11  C   UNL     1      44.364 -10.952  10.233  1.00  0.00     0.065 A 
BRANCH   9  12
HETATM   12  C   UNL     1      43.549  -9.980  12.521  1.00  0.00     0.058 C 
BRANCH  12  13
HETATM   13  C   UNL     1      42.337 -10.413  13.349  1.00  0.00     0.002 C 
HETATM   14  C   UNL     1      42.451  -9.943  14.790  1.00  0.00     0.005 C 
ENDBRANCH  12  13
ENDBRANCH   9  12
ENDBRANCH   3   6
ENDBRANCH   1   2
BRANCH   1  15
HETATM   15  C   UNL     1      43.086 -13.742   5.717  1.00  0.00     0.254 C 
BRANCH  15  16
HETATM   16  N   UNL     1      42.421 -14.991   5.202  1.00  0.00    -0.069 N 
HETATM   17  H   UNL     1      41.632 -14.642   4.636  1.00  0.00     0.280 HD
HETATM   18  C   UNL     1      43.249 -15.877   4.306  1.00  0.00     0.244 C 
HETATM   19  C   UNL     1      42.479 -17.195   4.350  1.00  0.00     0.046 C 
HETATM   20  C   UNL     1      42.099 -17.301   5.826  1.00  0.00     0.039 C 
HETATM   21  C   UNL     1      41.802 -15.871   6.263  1.00  0.00     0.235 C 
BRANCH  19  22
HETATM   22  C   UNL     1      43.216 -18.408   3.824  1.00  0.00    -0.046 A 
HETATM   23  C   UNL     1      43.009 -18.882   2.507  1.00  0.00    -0.055 A 
HETATM   24  C   UNL     1      42.057 -18.219   1.545  1.00  0.00     0.049 C 
HETATM   25  C   UNL     1      43.718 -20.010   2.058  1.00  0.00     0.007 A 
HETATM   26  C   UNL     1      44.604 -20.681   2.895  1.00  0.00     0.001 A 
HETATM   27  C   UNL     1      44.794 -20.237   4.197  1.00  0.00     0.001 A 
HETATM   28  C   UNL     1      44.104 -19.116   4.658  1.00  0.00     0.008 A 
ENDBRANCH  19  22
ENDBRANCH  15  16
ENDBRANCH   1  15
TORSDOF 7
ENDMDL
MODEL 2
REMARK VINA RESULT:      -8.9      1.456      2.325
REMARK  7 active torsions:
REMARK  status: ('A' for Active; 'I' for Inactive)
REMARK    1  A    between atoms: C_2  and  C_3 
REMARK    2  A    between atoms: C_3  and  C_4 
REMARK    3  A    between atoms: C_8  and  C_9 
REMARK       I    between atoms: C_9  and  N_10 
REMARK    4  A    between atoms: N_10  and  C_11 
REMARK    5  A    between atoms: C_11  and  C_12 
REMARK    6  A    between atoms: C_12  and  N_13 
REMARK    7  A    between atoms: C_16  and  C_17 
ROOT
HETATM    1  C   UNL     1      44.742 -14.612   6.724  1.00  0.00     0.150 C 
ENDROOT
BRANCH   1   2
HETATM    2  N   UNL     1      44.395 -13.893   7.942  1.00  0.00    -0.354 N 
HETATM    3  C   UNL     1      45.106 -12.797   8.399  1.00  0.00     0.272 C 
HETATM    4  O   UNL     1      46.261 -12.585   8.046  1.00  0.00    -0.266 OA
HETATM    5  H   UNL     1      43.415 -13.863   8.236  1.00  0.00     0.162 HD
BRANCH   3   6
HETATM    6  C   UNL     1      44.383 -11.999   9.394  1.00  0.00     0.146 A 
HETATM    7  N   UNL     1      43.760 -10.855   9.045  1.00  0.00    -0.169 NA
HETATM    8  N   UNL     1      43.206 -10.425  10.196  1.00  0.00    -0.282 N 
HETATM    9  C   UNL     1      43.444 -11.249  11.260  1.00  0.00     0.030 A 
HETATM   10  H   UNL     1      42.672  -9.560  10.186  1.00  0.00     0.189 HD
HETATM   11  C   UNL     1      44.213 -12.280  10.769  1.00  0.00     0.065 A 
BRANCH   9  12
HETATM   12  C   UNL     1      42.919 -10.967  12.626  1.00  0.00     0.058 C 
BRANCH  12  13
HETATM   13  C   UNL     1      43.483  -9.658  13.181  1.00  0.00     0.002 C 
HETATM   14  C   UNL     1      42.842  -9.296  14.511  1.00  0.00     0.005 C 
ENDBRANCH  12  13
ENDBRANCH   9  12
ENDBRANCH   3   6
ENDBRANCH   1   2
BRANCH   1  15
HETATM   15  C   UNL     1      43.563 -15.304   6.009  1.00  0.00     0.254 C 
BRANCH  15  16
HETATM   16  N   UNL     1      43.663 -16.802   6.138  1.00  0.00    -0.069 N 
HETATM   17  H   UNL     1      42.986 -17.036   6.879  1.00  0.00     0.280 HD
HETATM   18  C   UNL     1      43.287 -17.610   4.923  1.00  0.00     0.244 C 
HETATM   19  C   UNL     1      43.914 -18.969   5.230  1.00  0.00     0.046 C 
HETATM   20  C   UNL     1      45.267 -18.577   5.819  1.00  0.00     0.039 C 
HETATM   21  C   UNL     1      44.997 -17.314   6.628  1.00  0.00     0.235 C 
BRANCH  19  22
HETATM   22  C   UNL     1      44.014 -19.928   4.063  1.00  0.00    -0.046 A 
HETATM   23  C   UNL     1      44.394 -21.278   4.250  1.00  0.00    -0.055 A 
HETATM   24  C   UNL     1      44.717 -21.851   5.606  1.00  0.00     0.049 C 
HETATM   25  C   UNL     1      44.470 -22.136   3.139  1.00  0.00     0.007 A 
HETATM   26  C   UNL     1      44.198 -21.673   1.855  1.00  0.00     0.001 A 
HETATM   27  C   UNL     1      43.848 -20.344   1.660  1.00  0.00     0.001 A 
HETATM   28  C   UNL     1      43.761 -19.480   2.751  1.00  0.00     0.008 A 
ENDBRANCH  19  22
ENDBRANCH  15  16
ENDBRANCH   1  15
TORSDOF 7
ENDMDL
MODEL 3
REMARK VINA RESULT:      -8.4      3.531      5.146
REMARK  7 active torsions:
REMARK  status: ('A' for Active; 'I' for Inactive)
REMARK    1  A    between atoms: C_2  and  C_3 
REMARK    2  A    between atoms: C_3  and  C_4 
REMARK    3  A    between atoms: C_8  and  C_9 
REMARK       I    between atoms: C_9  and  N_10 
REMARK    4  A    between atoms: N_10  and  C_11 
REMARK    5  A    between atoms: C_11  and  C_12 
REMARK    6  A    between atoms: C_12  and  N_13 
REMARK    7  A    between atoms: C_16  and  C_17 
ROOT
HETATM    1  C   UNL     1      40.319 -14.685   1.918  1.00  0.00     0.150 C 
ENDROOT
BRANCH   1   2
HETATM    2  N   UNL     1      41.106 -14.080   2.984  1.00  0.00    -0.354 N 
HETATM    3  C   UNL     1      40.725 -14.113   4.314  1.00  0.00     0.272 C 
HETATM    4  O   UNL     1      39.559 -14.305   4.647  1.00  0.00    -0.266 OA
HETATM    5  H   UNL     1      42.123 -14.027   2.879  1.00  0.00     0.162 HD
BRANCH   3   6
HETATM    6  C   UNL     1      41.813 -13.806   5.247  1.00  0.00     0.146 A 
HETATM    7  N   UNL     1      41.697 -12.803   6.141  1.00  0.00    -0.169 NA
HETATM    8  N   UNL     1      42.862 -12.838   6.819  1.00  0.00    -0.282 N 
HETATM    9  C   UNL     1      43.711 -13.823   6.398  1.00  0.00     0.030 A 
HETATM   10  H   UNL     1      43.013 -12.160   7.562  1.00  0.00     0.189 HD
HETATM   11  C   UNL     1      43.057 -14.466   5.372  1.00  0.00     0.065 A 
BRANCH   9  12
HETATM   12  C   UNL     1      45.050 -14.043   7.013  1.00  0.00     0.058 C 
BRANCH  12  13
HETATM   13  C   UNL     1      45.363 -12.979   8.067  1.00  0.00     0.002 C 
HETATM   14  C   UNL     1      46.735 -12.363   7.845  1.00  0.00     0.005 C 
ENDBRANCH  12  13
ENDBRANCH   9  12
ENDBRANCH   3   6
ENDBRANCH   1   2
BRANCH   1  15
HETATM   15  C   UNL     1      40.487 -16.210   1.760  1.00  0.00     0.254 C 
BRANCH  15  16
HETATM   16  N   UNL     1      41.897 -16.630   2.086  1.00  0.00    -0.069 N 
HETATM   17  H   UNL     1      42.256 -15.866   2.678  1.00  0.00     0.280 HD
HETATM   18  C   UNL     1      42.056 -17.908   2.868  1.00  0.00     0.244 C 
HETATM   19  C   UNL     1      43.524 -18.255   2.628  1.00  0.00     0.046 C 
HETATM   20  C   UNL     1      43.696 -17.934   1.144  1.00  0.00     0.039 C 
HETATM   21  C   UNL     1      42.833 -16.703   0.902  1.00  0.00     0.235 C 
BRANCH  19  22
HETATM   22  C   UNL     1      43.940 -19.663   2.997  1.00  0.00    -0.046 A 
HETATM   23  C   UNL     1      44.509 -19.956   4.258  1.00  0.00    -0.055 A 
HETATM   24  C   UNL     1      44.736 -18.904   5.313  1.00  0.00     0.049 C 
HETATM   25  C   UNL     1      44.877 -21.279   4.561  1.00  0.00     0.007 A 
HETATM   26  C   UNL     1      44.708 -22.302   3.632  1.00  0.00     0.001 A 
HETATM   27  C   UNL     1      44.173 -22.018   2.383  1.00  0.00     0.001 A 
HETATM   28  C   UNL     1      43.797 -20.712   2.067  1.00  0.00     0.008 A 
ENDBRANCH  19  22
ENDBRANCH  15  16
ENDBRANCH   1  15
TORSDOF 7
ENDMDL
MODEL 4
REMARK VINA RESULT:      -8.3      3.659      5.490
REMARK  7 active torsions:
REMARK  status: ('A' for Active; 'I' for Inactive)
REMARK    1  A    between atoms: C_2  and  C_3 
REMARK    2  A    between atoms: C_3  and  C_4 
REMARK    3  A    between atoms: C_8  and  C_9 
REMARK       I    between atoms: C_9  and  N_10 
REMARK    4  A    between atoms: N_10  and  C_11 
REMARK    5  A    between atoms: C_11  and  C_12 
REMARK    6  A    between atoms: C_12  and  N_13 
REMARK    7  A    between atoms: C_16  and  C_17 
ROOT
HETATM    1  C   UNL     1      41.115 -14.300   1.064  1.00  0.00     0.150 C 
ENDROOT
BRANCH   1   2
HETATM    2  N   UNL     1      41.581 -14.303   2.444  1.00  0.00    -0.354 N 
HETATM    3  C   UNL     1      40.787 -14.697   3.507  1.00  0.00     0.272 C 
HETATM    4  O   UNL     1      39.563 -14.706   3.428  1.00  0.00    -0.266 OA
HETATM    5  H   UNL     1      42.575 -14.461   2.630  1.00  0.00     0.162 HD
BRANCH   3   6
HETATM    6  C   UNL     1      41.542 -14.997   4.727  1.00  0.00     0.146 A 
HETATM    7  N   UNL     1      40.966 -15.651   5.756  1.00  0.00    -0.169 NA
HETATM    8  N   UNL     1      41.954 -15.755   6.667  1.00  0.00    -0.282 N 
HETATM    9  C   UNL     1      43.135 -15.201   6.260  1.00  0.00     0.030 A 
HETATM   10  H   UNL     1      41.755 -16.222   7.548  1.00  0.00     0.189 HD
HETATM   11  C   UNL     1      42.895 -14.695   5.003  1.00  0.00     0.065 A 
BRANCH   9  12
HETATM   12  C   UNL     1      44.360 -15.210   7.109  1.00  0.00     0.058 C 
BRANCH  12  13
HETATM   13  C   UNL     1      45.165 -13.921   6.941  1.00  0.00     0.002 C 
HETATM   14  C   UNL     1      45.002 -13.003   8.142  1.00  0.00     0.005 C 
ENDBRANCH  12  13
ENDBRANCH   9  12
ENDBRANCH   3   6
ENDBRANCH   1   2
BRANCH   1  15
HETATM   15  C   UNL     1      42.084 -14.928   0.041  1.00  0.00     0.254 C 
BRANCH  15  16
HETATM   16  N   UNL     1      42.255 -16.402   0.302  1.00  0.00    -0.069 N 
HETATM   17  H   UNL     1      42.512 -16.792  -0.618  1.00  0.00     0.280 HD
HETATM   18  C   UNL     1      43.343 -16.794   1.268  1.00  0.00     0.244 C 
HETATM   19  C   UNL     1      42.954 -18.225   1.633  1.00  0.00     0.046 C 
HETATM   20  C   UNL     1      41.438 -18.120   1.787  1.00  0.00     0.039 C 
HETATM   21  C   UNL     1      40.998 -17.130   0.715  1.00  0.00     0.235 C 
BRANCH  19  22
HETATM   22  C   UNL     1      43.648 -18.810   2.844  1.00  0.00    -0.046 A 
HETATM   23  C   UNL     1      44.064 -20.162   2.874  1.00  0.00    -0.055 A 
HETATM   24  C   UNL     1      43.853 -21.103   1.715  1.00  0.00     0.049 C 
HETATM   25  C   UNL     1      44.708 -20.663   4.018  1.00  0.00     0.007 A 
HETATM   26  C   UNL     1      44.926 -19.856   5.131  1.00  0.00     0.001 A 
HETATM   27  C   UNL     1      44.499 -18.535   5.119  1.00  0.00     0.001 A 
HETATM   28  C   UNL     1      43.863 -18.019   3.990  1.00  0.00     0.008 A 
ENDBRANCH  19  22
ENDBRANCH  15  16
ENDBRANCH   1  15
TORSDOF 7
ENDMDL
MODEL 5
REMARK VINA RESULT:      -8.1      6.291      9.775
REMARK  7 active torsions:
REMARK  status: ('A' for Active; 'I' for Inactive)
REMARK    1  A    between atoms: C_2  and  C_3 
REMARK    2  A    between atoms: C_3  and  C_4 
REMARK    3  A    between atoms: C_8  and  C_9 
REMARK       I    between atoms: C_9  and  N_10 
REMARK    4  A    between atoms: N_10  and  C_11 
REMARK    5  A    between atoms: C_11  and  C_12 
REMARK    6  A    between atoms: C_12  and  N_13 
REMARK    7  A    between atoms: C_16  and  C_17 
ROOT
HETATM    1  C   UNL     1      39.675 -15.731   1.867  1.00  0.00     0.150 C 
ENDROOT
BRANCH   1   2
HETATM    2  N   UNL     1      40.063 -15.001   0.668  1.00  0.00    -0.354 N 
HETATM    3  C   UNL     1      40.926 -15.516  -0.283  1.00  0.00     0.272 C 
HETATM    4  O   UNL     1      41.704 -16.428  -0.022  1.00  0.00    -0.266 OA
HETATM    5  H   UNL     1      39.404 -14.330   0.263  1.00  0.00     0.162 HD
BRANCH   3   6
HETATM    6  C   UNL     1      40.878 -14.810  -1.567  1.00  0.00     0.146 A 
HETATM    7  N   UNL     1      40.611 -15.470  -2.712  1.00  0.00    -0.169 NA
HETATM    8  N   UNL     1      40.635 -14.506  -3.654  1.00  0.00    -0.282 N 
HETATM    9  C   UNL     1      40.899 -13.260  -3.157  1.00  0.00     0.030 A 
HETATM   10  H   UNL     1      40.457 -14.766  -4.621  1.00  0.00     0.189 HD
HETATM   11  C   UNL     1      41.067 -13.429  -1.801  1.00  0.00     0.065 A 
BRANCH   9  12
HETATM   12  C   UNL     1      40.966 -12.049  -4.022  1.00  0.00     0.058 C 
BRANCH  12  13
HETATM   13  C   UNL     1      42.403 -11.545  -4.167  1.00  0.00     0.002 C 
HETATM   14  C   UNL     1      42.441 -10.081  -4.571  1.00  0.00     0.005 C 
ENDBRANCH  12  13
ENDBRANCH   9  12
ENDBRANCH   3   6
ENDBRANCH   1   2
BRANCH   1  15
HETATM   15  C   UNL     1      40.102 -15.082   3.200  1.00  0.00     0.254 C 
BRANCH  15  16
HETATM   16  N   UNL     1      41.373 -15.705   3.716  1.00  0.00    -0.069 N 
HETATM   17  H   UNL     1      41.379 -15.470   4.720  1.00  0.00     0.280 HD
HETATM   18  C   UNL     1      41.479 -17.205   3.613  1.00  0.00     0.244 C 
HETATM   19  C   UNL     1      42.980 -17.437   3.780  1.00  0.00     0.046 C 
HETATM   20  C   UNL     1      43.578 -16.308   2.942  1.00  0.00     0.039 C 
HETATM   21  C   UNL     1      42.647 -15.121   3.154  1.00  0.00     0.235 C 
BRANCH  19  22
HETATM   22  C   UNL     1      43.483 -18.811   3.395  1.00  0.00    -0.046 A 
HETATM   23  C   UNL     1      44.384 -19.524   4.220  1.00  0.00    -0.055 A 
HETATM   24  C   UNL     1      44.897 -18.976   5.527  1.00  0.00     0.049 C 
HETATM   25  C   UNL     1      44.822 -20.800   3.825  1.00  0.00     0.007 A 
HETATM   26  C   UNL     1      44.400 -21.365   2.625  1.00  0.00     0.001 A 
HETATM   27  C   UNL     1      43.536 -20.662   1.798  1.00  0.00     0.001 A 
HETATM   28  C   UNL     1      43.085 -19.397   2.176  1.00  0.00     0.008 A 
ENDBRANCH  19  22
ENDBRANCH  15  16
ENDBRANCH   1  15
TORSDOF 7
ENDMDL
MODEL 6
REMARK VINA RESULT:      -8.0      4.730      7.904
REMARK  7 active torsions:
REMARK  status: ('A' for Active; 'I' for Inactive)
REMARK    1  A    between atoms: C_2  and  C_3 
REMARK    2  A    between atoms: C_3  and  C_4 
REMARK    3  A    between atoms: C_8  and  C_9 
REMARK       I    between atoms: C_9  and  N_10 
REMARK    4  A    between atoms: N_10  and  C_11 
REMARK    5  A    between atoms: C_11  and  C_12 
REMARK    6  A    between atoms: C_12  and  N_13 
REMARK    7  A    between atoms: C_16  and  C_17 
ROOT
HETATM    1  C   UNL     1      43.142 -15.205   5.733  1.00  0.00     0.150 C 
ENDROOT
BRANCH   1   2
HETATM    2  N   UNL     1      42.580 -15.208   4.390  1.00  0.00    -0.354 N 
HETATM    3  C   UNL     1      43.201 -14.603   3.311  1.00  0.00     0.272 C 
HETATM    4  O   UNL     1      44.043 -13.723   3.462  1.00  0.00    -0.266 OA
HETATM    5  H   UNL     1      41.993 -15.995   4.101  1.00  0.00     0.162 HD
BRANCH   3   6
HETATM    6  C   UNL     1      42.687 -15.044   2.011  1.00  0.00     0.146 A 
HETATM    7  N   UNL     1      42.909 -16.298   1.568  1.00  0.00    -0.169 NA
HETATM    8  N   UNL     1      42.283 -16.335   0.374  1.00  0.00    -0.282 N 
HETATM    9  C   UNL     1      41.666 -15.161   0.043  1.00  0.00     0.030 A 
HETATM   10  H   UNL     1      42.311 -17.198  -0.163  1.00  0.00     0.189 HD
HETATM   11  C   UNL     1      41.918 -14.301   1.087  1.00  0.00     0.065 A 
BRANCH   9  12
HETATM   12  C   UNL     1      40.911 -14.984  -1.229  1.00  0.00     0.058 C 
BRANCH  12  13
HETATM   13  C   UNL     1      40.952 -13.530  -1.705  1.00  0.00     0.002 C 
HETATM   14  C   UNL     1      42.167 -13.264  -2.577  1.00  0.00     0.005 C 
ENDBRANCH  12  13
ENDBRANCH   9  12
ENDBRANCH   3   6
ENDBRANCH   1   2
BRANCH   1  15
HETATM   15  C   UNL     1      42.528 -16.233   6.706  1.00  0.00     0.254 C 
BRANCH  15  16
HETATM   16  N   UNL     1      43.225 -17.563   6.589  1.00  0.00    -0.069 N 
HETATM   17  H   UNL     1      42.964 -18.061   7.454  1.00  0.00     0.280 HD
HETATM   18  C   UNL     1      42.816 -18.440   5.433  1.00  0.00     0.244 C 
HETATM   19  C   UNL     1      43.974 -19.432   5.352  1.00  0.00     0.046 C 
HETATM   20  C   UNL     1      45.188 -18.534   5.575  1.00  0.00     0.039 C 
HETATM   21  C   UNL     1      44.734 -17.498   6.596  1.00  0.00     0.235 C 
BRANCH  19  22
HETATM   22  C   UNL     1      44.051 -20.255   4.084  1.00  0.00    -0.046 A 
HETATM   23  C   UNL     1      44.558 -21.576   4.092  1.00  0.00    -0.055 A 
HETATM   24  C   UNL     1      45.048 -22.251   5.348  1.00  0.00     0.049 C 
HETATM   25  C   UNL     1      44.608 -22.306   2.892  1.00  0.00     0.007 A 
HETATM   26  C   UNL     1      44.185 -21.743   1.691  1.00  0.00     0.001 A 
HETATM   27  C   UNL     1      43.708 -20.439   1.670  1.00  0.00     0.001 A 
HETATM   28  C   UNL     1      43.646 -19.702   2.853  1.00  0.00     0.008 A 
ENDBRANCH  19  22
ENDBRANCH  15  16
ENDBRANCH   1  15
TORSDOF 7
ENDMDL
MODEL 7
REMARK VINA RESULT:      -8.0      4.952      8.922
REMARK  7 active torsions:
REMARK  status: ('A' for Active; 'I' for Inactive)
REMARK    1  A    between atoms: C_2  and  C_3 
REMARK    2  A    between atoms: C_3  and  C_4 
REMARK    3  A    between atoms: C_8  and  C_9 
REMARK       I    between atoms: C_9  and  N_10 
REMARK    4  A    between atoms: N_10  and  C_11 
REMARK    5  A    between atoms: C_11  and  C_12 
REMARK    6  A    between atoms: C_12  and  N_13 
REMARK    7  A    between atoms: C_16  and  C_17 
ROOT
HETATM    1  C   UNL     1      40.616 -13.451   3.935  1.00  0.00     0.150 C 
ENDROOT
BRANCH   1   2
HETATM    2  N   UNL     1      40.597 -13.743   2.508  1.00  0.00    -0.354 N 
HETATM    3  C   UNL     1      41.747 -13.883   1.751  1.00  0.00     0.272 C 
HETATM    4  O   UNL     1      42.820 -13.414   2.116  1.00  0.00    -0.266 OA
HETATM    5  H   UNL     1      39.818 -14.286   2.125  1.00  0.00     0.162 HD
BRANCH   3   6
HETATM    6  C   UNL     1      41.527 -14.547   0.463  1.00  0.00     0.146 A 
HETATM    7  N   UNL     1      41.474 -15.891   0.375  1.00  0.00    -0.169 NA
HETATM    8  N   UNL     1      41.246 -16.122  -0.933  1.00  0.00    -0.282 N 
HETATM    9  C   UNL     1      41.145 -14.982  -1.680  1.00  0.00     0.030 A 
HETATM   10  H   UNL     1      41.164 -17.084  -1.251  1.00  0.00     0.189 HD
HETATM   11  C   UNL     1      41.330 -13.941  -0.799  1.00  0.00     0.065 A 
BRANCH   9  12
HETATM   12  C   UNL     1      40.888 -15.005  -3.148  1.00  0.00     0.058 C 
BRANCH  12  13
HETATM   13  C   UNL     1      39.848 -16.065  -3.516  1.00  0.00     0.002 C 
HETATM   14  C   UNL     1      38.519 -15.431  -3.894  1.00  0.00     0.005 C 
ENDBRANCH  12  13
ENDBRANCH   9  12
ENDBRANCH   3   6
ENDBRANCH   1   2
BRANCH   1  15
HETATM   15  C   UNL     1      40.011 -14.544   4.839  1.00  0.00     0.254 C 
BRANCH  15  16
HETATM   16  N   UNL     1      41.072 -15.512   5.293  1.00  0.00    -0.069 N 
HETATM   17  H   UNL     1      40.787 -15.767   6.251  1.00  0.00     0.280 HD
HETATM   18  C   UNL     1      41.194 -16.795   4.512  1.00  0.00     0.244 C 
HETATM   19  C   UNL     1      42.579 -17.293   4.919  1.00  0.00     0.046 C 
HETATM   20  C   UNL     1      43.403 -16.008   4.909  1.00  0.00     0.039 C 
HETATM   21  C   UNL     1      42.459 -14.927   5.423  1.00  0.00     0.235 C 
BRANCH  19  22
HETATM   22  C   UNL     1      43.163 -18.395   4.061  1.00  0.00    -0.046 A 
HETATM   23  C   UNL     1      44.076 -19.337   4.591  1.00  0.00    -0.055 A 
HETATM   24  C   UNL     1      44.524 -19.313   6.030  1.00  0.00     0.049 C 
HETATM   25  C   UNL     1      44.590 -20.347   3.760  1.00  0.00     0.007 A 
HETATM   26  C   UNL     1      44.232 -20.423   2.417  1.00  0.00     0.001 A 
HETATM   27  C   UNL     1      43.355 -19.489   1.883  1.00  0.00     0.001 A 
HETATM   28  C   UNL     1      42.830 -18.483   2.694  1.00  0.00     0.008 A 
ENDBRANCH  19  22
ENDBRANCH  15  16
ENDBRANCH   1  15
TORSDOF 7
ENDMDL
MODEL 8
REMARK VINA RESULT:      -7.9      7.135     11.035
REMARK  7 active torsions:
REMARK  status: ('A' for Active; 'I' for Inactive)
REMARK    1  A    between atoms: C_2  and  C_3 
REMARK    2  A    between atoms: C_3  and  C_4 
REMARK    3  A    between atoms: C_8  and  C_9 
REMARK       I    between atoms: C_9  and  N_10 
REMARK    4  A    between atoms: N_10  and  C_11 
REMARK    5  A    between atoms: C_11  and  C_12 
REMARK    6  A    between atoms: C_12  and  N_13 
REMARK    7  A    between atoms: C_16  and  C_17 
ROOT
HETATM    1  C   UNL     1      40.287 -14.826   0.963  1.00  0.00     0.150 C 
ENDROOT
BRANCH   1   2
HETATM    2  N   UNL     1      39.384 -14.738  -0.177  1.00  0.00    -0.354 N 
HETATM    3  C   UNL     1      39.620 -13.914  -1.264  1.00  0.00     0.272 C 
HETATM    4  O   UNL     1      40.372 -12.948  -1.189  1.00  0.00    -0.266 OA
HETATM    5  H   UNL     1      38.829 -15.559  -0.432  1.00  0.00     0.162 HD
BRANCH   3   6
HETATM    6  C   UNL     1      38.822 -14.255  -2.445  1.00  0.00     0.146 A 
HETATM    7  N   UNL     1      39.221 -15.224  -3.295  1.00  0.00    -0.169 NA
HETATM    8  N   UNL     1      38.245 -15.260  -4.225  1.00  0.00    -0.282 N 
HETATM    9  C   UNL     1      37.241 -14.361  -4.000  1.00  0.00     0.030 A 
HETATM   10  H   UNL     1      38.325 -15.928  -4.987  1.00  0.00     0.189 HD
HETATM   11  C   UNL     1      37.592 -13.689  -2.851  1.00  0.00     0.065 A 
BRANCH   9  12
HETATM   12  C   UNL     1      36.061 -14.235  -4.901  1.00  0.00     0.058 C 
BRANCH  12  13
HETATM   13  C   UNL     1      35.304 -12.929  -4.652  1.00  0.00     0.002 C 
HETATM   14  C   UNL     1      34.524 -12.495  -5.882  1.00  0.00     0.005 C 
ENDBRANCH  12  13
ENDBRANCH   9  12
ENDBRANCH   3   6
ENDBRANCH   1   2
BRANCH   1  15
HETATM   15  C   UNL     1      40.283 -16.180   1.702  1.00  0.00     0.254 C 
BRANCH  15  16
HETATM   16  N   UNL     1      41.682 -16.581   2.091  1.00  0.00    -0.069 N 
HETATM   17  H   UNL     1      41.961 -15.876   2.790  1.00  0.00     0.280 HD
HETATM   18  C   UNL     1      41.841 -17.933   2.738  1.00  0.00     0.244 C 
HETATM   19  C   UNL     1      43.337 -18.195   2.580  1.00  0.00     0.046 C 
HETATM   20  C   UNL     1      43.606 -17.703   1.159  1.00  0.00     0.039 C 
HETATM   21  C   UNL     1      42.707 -16.484   0.985  1.00  0.00     0.235 C 
BRANCH  19  22
HETATM   22  C   UNL     1      43.788 -19.619   2.824  1.00  0.00    -0.046 A 
HETATM   23  C   UNL     1      44.443 -19.990   4.022  1.00  0.00    -0.055 A 
HETATM   24  C   UNL     1      44.732 -19.008   5.128  1.00  0.00     0.049 C 
HETATM   25  C   UNL     1      44.841 -21.325   4.209  1.00  0.00     0.007 A 
HETATM   26  C   UNL     1      44.619 -22.285   3.225  1.00  0.00     0.001 A 
HETATM   27  C   UNL     1      43.999 -21.924   2.037  1.00  0.00     0.001 A 
HETATM   28  C   UNL     1      43.592 -20.605   1.836  1.00  0.00     0.008 A 
ENDBRANCH  19  22
ENDBRANCH  15  16
ENDBRANCH   1  15
TORSDOF 7
ENDMDL
MODEL 9
REMARK VINA RESULT:      -7.8      3.800      6.084
REMARK  7 active torsions:
REMARK  status: ('A' for Active; 'I' for Inactive)
REMARK    1  A    between atoms: C_2  and  C_3 
REMARK    2  A    between atoms: C_3  and  C_4 
REMARK    3  A    between atoms: C_8  and  C_9 
REMARK       I    between atoms: C_9  and  N_10 
REMARK    4  A    between atoms: N_10  and  C_11 
REMARK    5  A    between atoms: C_11  and  C_12 
REMARK    6  A    between atoms: C_12  and  N_13 
REMARK    7  A    between atoms: C_16  and  C_17 
ROOT
HETATM    1  C   UNL     1      44.209 -14.462   7.078  1.00  0.00     0.150 C 
ENDROOT
BRANCH   1   2
HETATM    2  N   UNL     1      43.253 -13.626   6.365  1.00  0.00    -0.354 N 
HETATM    3  C   UNL     1      43.251 -13.488   4.988  1.00  0.00     0.272 C 
HETATM    4  O   UNL     1      44.245 -13.737   4.314  1.00  0.00    -0.266 OA
HETATM    5  H   UNL     1      42.320 -13.492   6.765  1.00  0.00     0.162 HD
BRANCH   3   6
HETATM    6  C   UNL     1      42.003 -12.936   4.453  1.00  0.00     0.146 A 
HETATM    7  N   UNL     1      41.586 -11.702   4.800  1.00  0.00    -0.169 NA
HETATM    8  N   UNL     1      40.438 -11.542   4.110  1.00  0.00    -0.282 N 
HETATM    9  C   UNL     1      40.112 -12.619   3.335  1.00  0.00     0.030 A 
HETATM   10  H   UNL     1      39.928 -10.668   4.211  1.00  0.00     0.189 HD
HETATM   11  C   UNL     1      41.109 -13.544   3.542  1.00  0.00     0.065 A 
BRANCH   9  12
HETATM   12  C   UNL     1      38.887 -12.653   2.486  1.00  0.00     0.058 C 
BRANCH  12  13
HETATM   13  C   UNL     1      38.957 -13.776   1.450  1.00  0.00     0.002 C 
HETATM   14  C   UNL     1      37.587 -14.083   0.868  1.00  0.00     0.005 C 
ENDBRANCH  12  13
ENDBRANCH   9  12
ENDBRANCH   3   6
ENDBRANCH   1   2
BRANCH   1  15
HETATM   15  C   UNL     1      43.802 -15.941   7.235  1.00  0.00     0.254 C 
BRANCH  15  16
HETATM   16  N   UNL     1      43.692 -16.612   5.890  1.00  0.00    -0.069 N 
HETATM   17  H   UNL     1      44.065 -15.913   5.229  1.00  0.00     0.280 HD
HETATM   18  C   UNL     1      44.493 -17.874   5.698  1.00  0.00     0.244 C 
HETATM   19  C   UNL     1      43.825 -18.500   4.475  1.00  0.00     0.046 C 
HETATM   20  C   UNL     1      42.343 -18.261   4.756  1.00  0.00     0.039 C 
HETATM   21  C   UNL     1      42.281 -16.895   5.429  1.00  0.00     0.235 C 
BRANCH  19  22
HETATM   22  C   UNL     1      44.166 -19.950   4.206  1.00  0.00    -0.046 A 
HETATM   23  C   UNL     1      44.079 -20.498   2.905  1.00  0.00    -0.055 A 
HETATM   24  C   UNL     1      43.651 -19.687   1.708  1.00  0.00     0.049 C 
HETATM   25  C   UNL     1      44.410 -21.848   2.699  1.00  0.00     0.007 A 
HETATM   26  C   UNL     1      44.802 -22.661   3.758  1.00  0.00     0.001 A 
HETATM   27  C   UNL     1      44.866 -22.138   5.042  1.00  0.00     0.001 A 
HETATM   28  C   UNL     1      44.548 -20.798   5.265  1.00  0.00     0.008 A 
ENDBRANCH  19  22
ENDBRANCH  15  16
ENDBRANCH   1  15
TORSDOF 7
ENDMDL
MODEL 10
REMARK VINA RESULT:      -7.7      2.071      2.267
REMARK  7 active torsions:
REMARK  status: ('A' for Active; 'I' for Inactive)
REMARK    1  A    between atoms: C_2  and  C_3 
REMARK    2  A    between atoms: C_3  and  C_4 
REMARK    3  A    between atoms: C_8  and  C_9 
REMARK       I    between atoms: C_9  and  N_10 
REMARK    4  A    between atoms: N_10  and  C_11 
REMARK    5  A    between atoms: C_11  and  C_12 
REMARK    6  A    between atoms: C_12  and  N_13 
REMARK    7  A    between atoms: C_16  and  C_17 
ROOT
HETATM    1  C   UNL     1      41.397 -12.288   5.912  1.00  0.00     0.150 C 
ENDROOT
BRANCH   1   2
HETATM    2  N   UNL     1      42.175 -11.995   7.107  1.00  0.00    -0.354 N 
HETATM    3  C   UNL     1      42.197 -10.748   7.707  1.00  0.00     0.272 C 
HETATM    4  O   UNL     1      41.887  -9.732   7.092  1.00  0.00    -0.266 OA
HETATM    5  H   UNL     1      42.347 -12.746   7.781  1.00  0.00     0.162 HD
BRANCH   3   6
HETATM    6  C   UNL     1      42.709 -10.762   9.080  1.00  0.00     0.146 A 
HETATM    7  N   UNL     1      44.033 -10.712   9.327  1.00  0.00    -0.169 NA
HETATM    8  N   UNL     1      44.112 -10.726  10.673  1.00  0.00    -0.282 N 
HETATM    9  C   UNL     1      42.895 -10.777  11.292  1.00  0.00     0.030 A 
HETATM   10  H   UNL     1      45.031 -10.694  11.106  1.00  0.00     0.189 HD
HETATM   11  C   UNL     1      41.963 -10.807  10.280  1.00  0.00     0.065 A 
BRANCH   9  12
HETATM   12  C   UNL     1      42.751 -10.795  12.775  1.00  0.00     0.058 C 
BRANCH  12  13
HETATM   13  C   UNL     1      43.487  -9.621  13.423  1.00  0.00     0.002 C 
HETATM   14  C   UNL     1      42.535  -8.484  13.758  1.00  0.00     0.005 C 
ENDBRANCH  12  13
ENDBRANCH   9  12
ENDBRANCH   3   6
ENDBRANCH   1   2
BRANCH   1  15
HETATM   15  C   UNL     1      40.869 -13.733   5.808  1.00  0.00     0.254 C 
BRANCH  15  16
HETATM   16  N   UNL     1      41.461 -14.435   4.613  1.00  0.00    -0.069 N 
HETATM   17  H   UNL     1      41.924 -13.681   4.083  1.00  0.00     0.280 HD
HETATM   18  C   UNL     1      42.506 -15.483   4.896  1.00  0.00     0.244 C 
HETATM   19  C   UNL     1      42.543 -16.267   3.586  1.00  0.00     0.046 C 
HETATM   20  C   UNL     1      41.063 -16.369   3.226  1.00  0.00     0.039 C 
HETATM   21  C   UNL     1      40.455 -15.042   3.664  1.00  0.00     0.235 C 
BRANCH  19  22
HETATM   22  C   UNL     1      43.250 -17.605   3.636  1.00  0.00    -0.046 A 
HETATM   23  C   UNL     1      43.746 -18.221   2.464  1.00  0.00    -0.055 A 
HETATM   24  C   UNL     1      43.613 -17.596   1.099  1.00  0.00     0.049 C 
HETATM   25  C   UNL     1      44.400 -19.462   2.557  1.00  0.00     0.007 A 
HETATM   26  C   UNL     1      44.548 -20.105   3.782  1.00  0.00     0.001 A 
HETATM   27  C   UNL     1      44.043 -19.519   4.935  1.00  0.00     0.001 A 
HETATM   28  C   UNL     1      43.396 -18.284   4.862  1.00  0.00     0.008 A 
ENDBRANCH  19  22
ENDBRANCH  15  16
ENDBRANCH   1  15
TORSDOF 7
ENDMDL
