MODEL 1
REMARK VINA RESULT:      -7.3      0.000      0.000
REMARK  6 active torsions:
REMARK  status: ('A' for Active; 'I' for Inactive)
REMARK    1  A    between atoms: C_2  and  N_3 
REMARK    2  A    between atoms: C_2  and  C_11 
REMARK       I    between atoms: N_3  and  C_4 
REMARK    3  A    between atoms: C_4  and  C_5 
REMARK    4  A    between atoms: C_14  and  O_15 
REMARK    5  A    between atoms: O_15  and  C_16 
REMARK    6  A    between atoms: C_16  and  C_17 
ROOT
HETATM    1  C   UNL     1      42.769 -16.569   1.857  1.00  0.00    -0.036 A 
HETATM    2  C   UNL     1      41.962 -17.241   2.787  1.00  0.00     0.012 A 
HETATM    3  C   UNL     1      42.311 -18.514   3.258  1.00  0.00     0.037 A 
HETATM    4  C   UNL     1      43.466 -19.139   2.793  1.00  0.00     0.069 A 
HETATM    5  C   UNL     1      44.281 -18.474   1.877  1.00  0.00     0.037 A 
HETATM    6  C   UNL     1      43.935 -17.206   1.406  1.00  0.00     0.012 A 
ENDROOT
BRANCH   1   7
HETATM    7  C   UNL     1      42.354 -15.206   1.331  1.00  0.00     0.113 C 
HETATM    8  C   UNL     1      41.375 -15.321   0.158  1.00  0.00     0.037 C 
BRANCH   7   9
HETATM    9  N   UNL     1      41.804 -14.419   2.425  1.00  0.00    -0.352 N 
HETATM   10  C   UNL     1      42.601 -13.732   3.303  1.00  0.00     0.225 C 
HETATM   11  O   UNL     1      43.819 -13.657   3.231  1.00  0.00    -0.273 OA
HETATM   12  H   UNL     1      40.812 -14.492   2.605  1.00  0.00     0.163 HD
BRANCH  10  13
HETATM   13  C   UNL     1      41.856 -13.053   4.386  1.00  0.00     0.119 A 
HETATM   14  C   UNL     1      41.329 -13.841   5.556  1.00  0.00     0.126 A 
HETATM   15 CL   UNL     1      39.750 -13.378   6.194  1.00  0.00    -0.101 Cl
HETATM   16 CL   UNL     1      41.655 -15.560   5.709  1.00  0.00    -0.101 Cl
HETATM   17  C   UNL     1      42.468 -12.886   5.758  1.00  0.00     0.060 A 
ENDBRANCH  10  13
ENDBRANCH   7   9
ENDBRANCH   1   7
BRANCH   4  18
HETATM   18  O   UNL     1      43.914 -20.377   3.160  1.00  0.00    -0.347 OA
BRANCH  18  19
HETATM   19  C   UNL     1      45.061 -20.423   4.008  1.00  0.00     0.215 C 
BRANCH  19  20
HETATM   20  C   UNL     1      44.725 -19.861   5.364  1.00  0.00    -0.017 A 
HETATM   21  C   UNL     1      43.962 -20.574   6.286  1.00  0.00     0.125 A 
HETATM   22  N   UNL     1      43.584 -20.098   7.495  1.00  0.00    -0.272 NA
HETATM   23  C   UNL     1      43.978 -18.845   7.803  1.00  0.00     0.116 A 
HETATM   24  C   UNL     1      44.726 -18.044   6.956  1.00  0.00     0.020 A 
HETATM   25  C   UNL     1      45.098 -18.560   5.718  1.00  0.00     0.012 A 
ENDBRANCH  19  20
ENDBRANCH  18  19
ENDBRANCH   4  18
TORSDOF 6
ENDMDL
MODEL 2
REMARK VINA RESULT:      -7.2      3.083      7.404
REMARK  6 active torsions:
REMARK  status: ('A' for Active; 'I' for Inactive)
REMARK    1  A    between atoms: C_2  and  N_3 
REMARK    2  A    between atoms: C_2  and  C_11 
REMARK       I    between atoms: N_3  and  C_4 
REMARK    3  A    between atoms: C_4  and  C_5 
REMARK    4  A    between atoms: C_14  and  O_15 
REMARK    5  A    between atoms: O_15  and  C_16 
REMARK    6  A    between atoms: C_16  and  C_17 
ROOT
HETATM    1  C   UNL     1      42.341 -17.599   2.425  1.00  0.00    -0.036 A 
HETATM    2  C   UNL     1      41.127 -17.045   2.859  1.00  0.00     0.012 A 
HETATM    3  C   UNL     1      40.430 -16.126   2.065  1.00  0.00     0.037 A 
HETATM    4  C   UNL     1      40.944 -15.736   0.830  1.00  0.00     0.069 A 
HETATM    5  C   UNL     1      42.145 -16.290   0.385  1.00  0.00     0.037 A 
HETATM    6  C   UNL     1      42.842 -17.205   1.175  1.00  0.00     0.012 A 
ENDROOT
BRANCH   1   7
HETATM    7  C   UNL     1      43.100 -18.566   3.317  1.00  0.00     0.113 C 
HETATM    8  C   UNL     1      44.176 -19.333   2.540  1.00  0.00     0.037 C 
BRANCH   7   9
HETATM    9  N   UNL     1      43.659 -17.837   4.446  1.00  0.00    -0.352 N 
HETATM   10  C   UNL     1      43.684 -18.360   5.713  1.00  0.00     0.225 C 
HETATM   11  O   UNL     1      43.310 -19.485   6.013  1.00  0.00    -0.273 OA
HETATM   12  H   UNL     1      43.916 -16.870   4.301  1.00  0.00     0.163 HD
BRANCH  10  13
HETATM   13  C   UNL     1      44.226 -17.437   6.734  1.00  0.00     0.119 A 
HETATM   14  C   UNL     1      43.498 -16.162   7.067  1.00  0.00     0.126 A 
HETATM   15 CL   UNL     1      44.483 -14.733   7.389  1.00  0.00    -0.101 Cl
HETATM   16 CL   UNL     1      41.956 -15.779   6.320  1.00  0.00    -0.101 Cl
HETATM   17  C   UNL     1      43.539 -17.275   8.071  1.00  0.00     0.060 A 
ENDBRANCH  10  13
ENDBRANCH   7   9
ENDBRANCH   1   7
BRANCH   4  18
HETATM   18  O   UNL     1      40.373 -14.844  -0.034  1.00  0.00    -0.347 OA
BRANCH  18  19
HETATM   19  C   UNL     1      40.934 -14.766  -1.344  1.00  0.00     0.215 C 
BRANCH  19  20
HETATM   20  C   UNL     1      39.854 -14.939  -2.380  1.00  0.00    -0.017 A 
HETATM   21  C   UNL     1      38.661 -14.223  -2.324  1.00  0.00     0.125 A 
HETATM   22  N   UNL     1      37.636 -14.377  -3.193  1.00  0.00    -0.272 NA
HETATM   23  C   UNL     1      37.800 -15.297  -4.167  1.00  0.00     0.116 A 
HETATM   24  C   UNL     1      38.938 -16.072  -4.306  1.00  0.00     0.020 A 
HETATM   25  C   UNL     1      39.976 -15.893  -3.395  1.00  0.00     0.012 A 
ENDBRANCH  19  20
ENDBRANCH  18  19
ENDBRANCH   4  18
TORSDOF 6
ENDMDL
MODEL 3
REMARK VINA RESULT:      -7.2      2.790      4.278
REMARK  6 active torsions:
REMARK  status: ('A' for Active; 'I' for Inactive)
REMARK    1  A    between atoms: C_2  and  N_3 
REMARK    2  A    between atoms: C_2  and  C_11 
REMARK       I    between atoms: N_3  and  C_4 
REMARK    3  A    between atoms: C_4  and  C_5 
REMARK    4  A    between atoms: C_14  and  O_15 
REMARK    5  A    between atoms: O_15  and  C_16 
REMARK    6  A    between atoms: C_16  and  C_17 
ROOT
HETATM    1  C   UNL     1      42.446 -15.882   5.655  1.00  0.00    -0.036 A 
HETATM    2  C   UNL     1      41.617 -16.985   5.405  1.00  0.00     0.012 A 
HETATM    3  C   UNL     1      42.097 -18.294   5.545  1.00  0.00     0.037 A 
HETATM    4  C   UNL     1      43.418 -18.517   5.925  1.00  0.00     0.069 A 
HETATM    5  C   UNL     1      44.247 -17.426   6.188  1.00  0.00     0.037 A 
HETATM    6  C   UNL     1      43.771 -16.121   6.048  1.00  0.00     0.012 A 
ENDROOT
BRANCH   1   7
HETATM    7  C   UNL     1      41.918 -14.471   5.462  1.00  0.00     0.113 C 
HETATM    8  C   UNL     1      42.930 -13.415   5.920  1.00  0.00     0.037 C 
BRANCH   7   9
HETATM    9  N   UNL     1      41.534 -14.291   4.070  1.00  0.00    -0.352 N 
HETATM   10  C   UNL     1      40.233 -14.082   3.692  1.00  0.00     0.225 C 
HETATM   11  O   UNL     1      39.291 -13.966   4.462  1.00  0.00    -0.273 OA
HETATM   12  H   UNL     1      42.238 -14.452   3.363  1.00  0.00     0.163 HD
BRANCH  10  13
HETATM   13  C   UNL     1      40.039 -13.995   2.228  1.00  0.00     0.119 A 
HETATM   14  C   UNL     1      40.102 -15.236   1.378  1.00  0.00     0.126 A 
HETATM   15 CL   UNL     1      40.868 -15.091  -0.205  1.00  0.00    -0.101 Cl
HETATM   16 CL   UNL     1      40.321 -16.819   2.104  1.00  0.00    -0.101 Cl
HETATM   17  C   UNL     1      38.787 -14.542   1.580  1.00  0.00     0.060 A 
ENDBRANCH  10  13
ENDBRANCH   7   9
ENDBRANCH   1   7
BRANCH   4  18
HETATM   18  O   UNL     1      44.013 -19.737   6.088  1.00  0.00    -0.347 OA
BRANCH  18  19
HETATM   19  C   UNL     1      45.128 -20.028   5.246  1.00  0.00     0.215 C 
BRANCH  19  20
HETATM   20  C   UNL     1      44.658 -20.677   3.970  1.00  0.00    -0.017 A 
HETATM   21  C   UNL     1      44.794 -22.045   3.749  1.00  0.00     0.125 A 
HETATM   22  N   UNL     1      44.441 -22.672   2.603  1.00  0.00    -0.272 NA
HETATM   23  C   UNL     1      43.931 -21.899   1.621  1.00  0.00     0.116 A 
HETATM   24  C   UNL     1      43.765 -20.529   1.731  1.00  0.00     0.020 A 
HETATM   25  C   UNL     1      44.140 -19.911   2.921  1.00  0.00     0.012 A 
ENDBRANCH  19  20
ENDBRANCH  18  19
ENDBRANCH   4  18
TORSDOF 6
ENDMDL
MODEL 4
REMARK VINA RESULT:      -7.1      3.514      7.882
REMARK  6 active torsions:
REMARK  status: ('A' for Active; 'I' for Inactive)
REMARK    1  A    between atoms: C_2  and  N_3 
REMARK    2  A    between atoms: C_2  and  C_11 
REMARK       I    between atoms: N_3  and  C_4 
REMARK    3  A    between atoms: C_4  and  C_5 
REMARK    4  A    between atoms: C_14  and  O_15 
REMARK    5  A    between atoms: O_15  and  C_16 
REMARK    6  A    between atoms: C_16  and  C_17 
ROOT
HETATM    1  C   UNL     1      41.008 -16.203   3.939  1.00  0.00    -0.036 A 
HETATM    2  C   UNL     1      40.469 -14.931   4.176  1.00  0.00     0.012 A 
HETATM    3  C   UNL     1      39.745 -14.257   3.184  1.00  0.00     0.037 A 
HETATM    4  C   UNL     1      39.561 -14.843   1.933  1.00  0.00     0.069 A 
HETATM    5  C   UNL     1      40.084 -16.114   1.691  1.00  0.00     0.037 A 
HETATM    6  C   UNL     1      40.806 -16.786   2.678  1.00  0.00     0.012 A 
ENDROOT
BRANCH   1   7
HETATM    7  C   UNL     1      41.821 -16.901   5.015  1.00  0.00     0.113 C 
HETATM    8  C   UNL     1      41.039 -17.030   6.327  1.00  0.00     0.037 C 
BRANCH   7   9
HETATM    9  N   UNL     1      42.266 -18.194   4.516  1.00  0.00    -0.352 N 
HETATM   10  C   UNL     1      43.559 -18.626   4.658  1.00  0.00     0.225 C 
HETATM   11  O   UNL     1      44.437 -18.021   5.254  1.00  0.00    -0.273 OA
HETATM   12  H   UNL     1      41.624 -18.722   3.939  1.00  0.00     0.163 HD
BRANCH  10  13
HETATM   13  C   UNL     1      43.828 -19.934   4.020  1.00  0.00     0.119 A 
HETATM   14  C   UNL     1      43.897 -20.048   2.521  1.00  0.00     0.126 A 
HETATM   15 CL   UNL     1      43.214 -21.502   1.790  1.00  0.00    -0.101 Cl
HETATM   16 CL   UNL     1      43.745 -18.629   1.497  1.00  0.00    -0.101 Cl
HETATM   17  C   UNL     1      45.149 -20.201   3.334  1.00  0.00     0.060 A 
ENDBRANCH  10  13
ENDBRANCH   7   9
ENDBRANCH   1   7
BRANCH   4  18
HETATM   18  O   UNL     1      38.889 -14.292   0.878  1.00  0.00    -0.347 OA
BRANCH  18  19
HETATM   19  C   UNL     1      39.663 -13.550  -0.064  1.00  0.00     0.215 C 
BRANCH  19  20
HETATM   20  C   UNL     1      39.661 -14.250  -1.398  1.00  0.00    -0.017 A 
HETATM   21  C   UNL     1      38.562 -14.200  -2.252  1.00  0.00     0.125 A 
HETATM   22  N   UNL     1      38.484 -14.853  -3.435  1.00  0.00    -0.272 NA
HETATM   23  C   UNL     1      39.551 -15.599  -3.787  1.00  0.00     0.116 A 
HETATM   24  C   UNL     1      40.689 -15.729  -3.007  1.00  0.00     0.020 A 
HETATM   25  C   UNL     1      40.739 -15.048  -1.794  1.00  0.00     0.012 A 
ENDBRANCH  19  20
ENDBRANCH  18  19
ENDBRANCH   4  18
TORSDOF 6
ENDMDL
MODEL 5
REMARK VINA RESULT:      -7.1      4.049      5.617
REMARK  6 active torsions:
REMARK  status: ('A' for Active; 'I' for Inactive)
REMARK    1  A    between atoms: C_2  and  N_3 
REMARK    2  A    between atoms: C_2  and  C_11 
REMARK       I    between atoms: N_3  and  C_4 
REMARK    3  A    between atoms: C_4  and  C_5 
REMARK    4  A    between atoms: C_14  and  O_15 
REMARK    5  A    between atoms: O_15  and  C_16 
REMARK    6  A    between atoms: C_16  and  C_17 
ROOT
HETATM    1  C   UNL     1      44.298 -14.596   6.906  1.00  0.00    -0.036 A 
HETATM    2  C   UNL     1      43.905 -15.848   7.402  1.00  0.00     0.012 A 
HETATM    3  C   UNL     1      43.185 -16.746   6.604  1.00  0.00     0.037 A 
HETATM    4  C   UNL     1      42.836 -16.399   5.301  1.00  0.00     0.069 A 
HETATM    5  C   UNL     1      43.232 -15.161   4.794  1.00  0.00     0.037 A 
HETATM    6  C   UNL     1      43.948 -14.264   5.588  1.00  0.00     0.012 A 
ENDROOT
BRANCH   1   7
HETATM    7  C   UNL     1      45.046 -13.622   7.799  1.00  0.00     0.113 C 
HETATM    8  C   UNL     1      46.246 -12.996   7.080  1.00  0.00     0.037 C 
BRANCH   7   9
HETATM    9  N   UNL     1      44.118 -12.614   8.289  1.00  0.00    -0.352 N 
HETATM   10  C   UNL     1      44.223 -12.073   9.544  1.00  0.00     0.225 C 
HETATM   11  O   UNL     1      45.116 -12.323  10.341  1.00  0.00    -0.273 OA
HETATM   12  H   UNL     1      43.304 -12.409   7.725  1.00  0.00     0.163 HD
BRANCH  10  13
HETATM   13  C   UNL     1      43.143 -11.119   9.880  1.00  0.00     0.119 A 
HETATM   14  C   UNL     1      42.563 -11.087  11.268  1.00  0.00     0.126 A 
HETATM   15 CL   UNL     1      40.824 -10.817  11.409  1.00  0.00    -0.101 Cl
HETATM   16 CL   UNL     1      43.203 -12.113  12.540  1.00  0.00    -0.101 Cl
HETATM   17  C   UNL     1      43.408  -9.942  10.792  1.00  0.00     0.060 A 
ENDBRANCH  10  13
ENDBRANCH   7   9
ENDBRANCH   1   7
BRANCH   4  18
HETATM   18  O   UNL     1      42.129 -17.174   4.424  1.00  0.00    -0.347 OA
BRANCH  18  19
HETATM   19  C   UNL     1      42.709 -17.384   3.136  1.00  0.00     0.215 C 
BRANCH  19  20
HETATM   20  C   UNL     1      43.300 -18.767   3.055  1.00  0.00    -0.017 A 
HETATM   21  C   UNL     1      44.194 -19.241   4.013  1.00  0.00     0.125 A 
HETATM   22  N   UNL     1      44.798 -20.451   3.961  1.00  0.00    -0.272 NA
HETATM   23  C   UNL     1      44.504 -21.230   2.899  1.00  0.00     0.116 A 
HETATM   24  C   UNL     1      43.641 -20.851   1.884  1.00  0.00     0.020 A 
HETATM   25  C   UNL     1      43.037 -19.600   1.963  1.00  0.00     0.012 A 
ENDBRANCH  19  20
ENDBRANCH  18  19
ENDBRANCH   4  18
TORSDOF 6
ENDMDL
MODEL 6
REMARK VINA RESULT:      -7.0      2.583      6.803
REMARK  6 active torsions:
REMARK  status: ('A' for Active; 'I' for Inactive)
REMARK    1  A    between atoms: C_2  and  N_3 
REMARK    2  A    between atoms: C_2  and  C_11 
REMARK       I    between atoms: N_3  and  C_4 
REMARK    3  A    between atoms: C_4  and  C_5 
REMARK    4  A    between atoms: C_14  and  O_15 
REMARK    5  A    between atoms: O_15  and  C_16 
REMARK    6  A    between atoms: C_16  and  C_17 
ROOT
HETATM    1  C   UNL     1      42.731 -18.054   2.632  1.00  0.00    -0.036 A 
HETATM    2  C   UNL     1      43.487 -17.797   1.479  1.00  0.00     0.012 A 
HETATM    3  C   UNL     1      42.966 -17.030   0.430  1.00  0.00     0.037 A 
HETATM    4  C   UNL     1      41.673 -16.518   0.514  1.00  0.00     0.069 A 
HETATM    5  C   UNL     1      40.916 -16.758   1.661  1.00  0.00     0.037 A 
HETATM    6  C   UNL     1      41.434 -17.524   2.708  1.00  0.00     0.012 A 
ENDROOT
BRANCH   1   7
HETATM    7  C   UNL     1      43.301 -18.919   3.743  1.00  0.00     0.113 C 
HETATM    8  C   UNL     1      44.393 -19.862   3.227  1.00  0.00     0.037 C 
BRANCH   7   9
HETATM    9  N   UNL     1      43.782 -18.063   4.817  1.00  0.00    -0.352 N 
HETATM   10  C   UNL     1      43.762 -18.457   6.129  1.00  0.00     0.225 C 
HETATM   11  O   UNL     1      43.407 -19.558   6.524  1.00  0.00    -0.273 OA
HETATM   12  H   UNL     1      44.017 -17.106   4.587  1.00  0.00     0.163 HD
BRANCH  10  13
HETATM   13  C   UNL     1      44.225 -17.418   7.076  1.00  0.00     0.119 A 
HETATM   14  C   UNL     1      43.483 -16.114   7.195  1.00  0.00     0.126 A 
HETATM   15 CL   UNL     1      44.449 -14.655   7.427  1.00  0.00    -0.101 Cl
HETATM   16 CL   UNL     1      42.010 -15.825   6.285  1.00  0.00    -0.101 Cl
HETATM   17  C   UNL     1      43.433 -17.101   8.324  1.00  0.00     0.060 A 
ENDBRANCH  10  13
ENDBRANCH   7   9
ENDBRANCH   1   7
BRANCH   4  18
HETATM   18  O   UNL     1      41.042 -15.767  -0.438  1.00  0.00    -0.347 OA
BRANCH  18  19
HETATM   19  C   UNL     1      40.575 -14.479  -0.038  1.00  0.00     0.215 C 
BRANCH  19  20
HETATM   20  C   UNL     1      41.520 -13.412  -0.526  1.00  0.00    -0.017 A 
HETATM   21  C   UNL     1      41.948 -12.377   0.301  1.00  0.00     0.125 A 
HETATM   22  N   UNL     1      42.750 -11.363  -0.097  1.00  0.00    -0.272 NA
HETATM   23  C   UNL     1      43.145 -11.373  -1.388  1.00  0.00     0.116 A 
HETATM   24  C   UNL     1      42.768 -12.347  -2.298  1.00  0.00     0.020 A 
HETATM   25  C   UNL     1      41.939 -13.376  -1.859  1.00  0.00     0.012 A 
ENDBRANCH  19  20
ENDBRANCH  18  19
ENDBRANCH   4  18
TORSDOF 6
ENDMDL
MODEL 7
REMARK VINA RESULT:      -7.0      3.879      5.125
REMARK  6 active torsions:
REMARK  status: ('A' for Active; 'I' for Inactive)
REMARK    1  A    between atoms: C_2  and  N_3 
REMARK    2  A    between atoms: C_2  and  C_11 
REMARK       I    between atoms: N_3  and  C_4 
REMARK    3  A    between atoms: C_4  and  C_5 
REMARK    4  A    between atoms: C_14  and  O_15 
REMARK    5  A    between atoms: O_15  and  C_16 
REMARK    6  A    between atoms: C_16  and  C_17 
ROOT
HETATM    1  C   UNL     1      40.796 -15.699   1.491  1.00  0.00    -0.036 A 
HETATM    2  C   UNL     1      40.795 -16.314   2.752  1.00  0.00     0.012 A 
HETATM    3  C   UNL     1      41.829 -17.177   3.134  1.00  0.00     0.037 A 
HETATM    4  C   UNL     1      42.874 -17.450   2.255  1.00  0.00     0.069 A 
HETATM    5  C   UNL     1      42.891 -16.835   1.003  1.00  0.00     0.037 A 
HETATM    6  C   UNL     1      41.861 -15.974   0.619  1.00  0.00     0.012 A 
ENDROOT
BRANCH   1   7
HETATM    7  C   UNL     1      39.647 -14.795   1.081  1.00  0.00     0.113 C 
HETATM    8  C   UNL     1      39.080 -14.017   2.273  1.00  0.00     0.037 C 
BRANCH   7   9
HETATM    9  N   UNL     1      40.092 -13.910   0.015  1.00  0.00    -0.352 N 
HETATM   10  C   UNL     1      39.304 -13.616  -1.067  1.00  0.00     0.225 C 
HETATM   11  O   UNL     1      38.154 -14.002  -1.221  1.00  0.00    -0.273 OA
HETATM   12  H   UNL     1      41.058 -13.612   0.023  1.00  0.00     0.163 HD
BRANCH  10  13
HETATM   13  C   UNL     1      39.963 -12.757  -2.075  1.00  0.00     0.119 A 
HETATM   14  C   UNL     1      40.964 -13.343  -3.035  1.00  0.00     0.126 A 
HETATM   15 CL   UNL     1      42.369 -12.354  -3.438  1.00  0.00    -0.101 Cl
HETATM   16 CL   UNL     1      41.311 -15.064  -3.041  1.00  0.00    -0.101 Cl
HETATM   17  C   UNL     1      39.627 -12.892  -3.544  1.00  0.00     0.060 A 
ENDBRANCH  10  13
ENDBRANCH   7   9
ENDBRANCH   1   7
BRANCH   4  18
HETATM   18  O   UNL     1      43.934 -18.278   2.497  1.00  0.00    -0.347 OA
BRANCH  18  19
HETATM   19  C   UNL     1      43.896 -19.569   1.891  1.00  0.00     0.215 C 
BRANCH  19  20
HETATM   20  C   UNL     1      44.286 -20.624   2.893  1.00  0.00    -0.017 A 
HETATM   21  C   UNL     1      44.350 -21.973   2.553  1.00  0.00     0.125 A 
HETATM   22  N   UNL     1      44.640 -22.967   3.424  1.00  0.00    -0.272 NA
HETATM   23  C   UNL     1      44.873 -22.604   4.703  1.00  0.00     0.116 A 
HETATM   24  C   UNL     1      44.821 -21.295   5.151  1.00  0.00     0.020 A 
HETATM   25  C   UNL     1      44.518 -20.294   4.232  1.00  0.00     0.012 A 
ENDBRANCH  19  20
ENDBRANCH  18  19
ENDBRANCH   4  18
TORSDOF 6
ENDMDL
MODEL 8
REMARK VINA RESULT:      -6.9      3.723      5.340
REMARK  6 active torsions:
REMARK  status: ('A' for Active; 'I' for Inactive)
REMARK    1  A    between atoms: C_2  and  N_3 
REMARK    2  A    between atoms: C_2  and  C_11 
REMARK       I    between atoms: N_3  and  C_4 
REMARK    3  A    between atoms: C_4  and  C_5 
REMARK    4  A    between atoms: C_14  and  O_15 
REMARK    5  A    between atoms: O_15  and  C_16 
REMARK    6  A    between atoms: C_16  and  C_17 
ROOT
HETATM    1  C   UNL     1      39.862 -14.706   2.437  1.00  0.00    -0.036 A 
HETATM    2  C   UNL     1      40.526 -14.447   3.645  1.00  0.00     0.012 A 
HETATM    3  C   UNL     1      41.278 -15.443   4.282  1.00  0.00     0.037 A 
HETATM    4  C   UNL     1      41.365 -16.717   3.726  1.00  0.00     0.069 A 
HETATM    5  C   UNL     1      40.718 -16.981   2.518  1.00  0.00     0.037 A 
HETATM    6  C   UNL     1      39.967 -15.991   1.883  1.00  0.00     0.012 A 
ENDROOT
BRANCH   1   7
HETATM    7  C   UNL     1      39.022 -13.624   1.781  1.00  0.00     0.113 C 
HETATM    8  C   UNL     1      38.889 -12.385   2.674  1.00  0.00     0.037 C 
BRANCH   7   9
HETATM    9  N   UNL     1      39.589 -13.301   0.480  1.00  0.00    -0.352 N 
HETATM   10  C   UNL     1      38.910 -13.526  -0.689  1.00  0.00     0.225 C 
HETATM   11  O   UNL     1      37.766 -13.951  -0.763  1.00  0.00    -0.273 OA
HETATM   12  H   UNL     1      40.560 -13.021   0.447  1.00  0.00     0.163 HD
BRANCH  10  13
HETATM   13  C   UNL     1      39.684 -13.198  -1.906  1.00  0.00     0.119 A 
HETATM   14  C   UNL     1      40.776 -14.119  -2.383  1.00  0.00     0.126 A 
HETATM   15 CL   UNL     1      42.228 -13.369  -3.050  1.00  0.00    -0.101 Cl
HETATM   16 CL   UNL     1      41.102 -15.637  -1.562  1.00  0.00    -0.101 Cl
HETATM   17  C   UNL     1      39.507 -14.002  -3.174  1.00  0.00     0.060 A 
ENDBRANCH  10  13
ENDBRANCH   7   9
ENDBRANCH   1   7
BRANCH   4  18
HETATM   18  O   UNL     1      42.053 -17.777   4.248  1.00  0.00    -0.347 OA
BRANCH  18  19
HETATM   19  C   UNL     1      43.429 -17.893   3.888  1.00  0.00     0.215 C 
BRANCH  19  20
HETATM   20  C   UNL     1      43.732 -19.301   3.447  1.00  0.00    -0.017 A 
HETATM   21  C   UNL     1      44.507 -20.162   4.220  1.00  0.00     0.125 A 
HETATM   22  N   UNL     1      44.856 -21.416   3.850  1.00  0.00    -0.272 NA
HETATM   23  C   UNL     1      44.418 -21.836   2.645  1.00  0.00     0.116 A 
HETATM   24  C   UNL     1      43.653 -21.058   1.792  1.00  0.00     0.020 A 
HETATM   25  C   UNL     1      43.312 -19.771   2.199  1.00  0.00     0.012 A 
ENDBRANCH  19  20
ENDBRANCH  18  19
ENDBRANCH   4  18
TORSDOF 6
ENDMDL
MODEL 9
REMARK VINA RESULT:      -6.9      3.137      4.546
REMARK  6 active torsions:
REMARK  status: ('A' for Active; 'I' for Inactive)
REMARK    1  A    between atoms: C_2  and  N_3 
REMARK    2  A    between atoms: C_2  and  C_11 
REMARK       I    between atoms: N_3  and  C_4 
REMARK    3  A    between atoms: C_4  and  C_5 
REMARK    4  A    between atoms: C_14  and  O_15 
REMARK    5  A    between atoms: O_15  and  C_16 
REMARK    6  A    between atoms: C_16  and  C_17 
ROOT
HETATM    1  C   UNL     1      41.771 -15.587   4.331  1.00  0.00    -0.036 A 
HETATM    2  C   UNL     1      41.062 -16.792   4.448  1.00  0.00     0.012 A 
HETATM    3  C   UNL     1      41.618 -17.894   5.109  1.00  0.00     0.037 A 
HETATM    4  C   UNL     1      42.898 -17.812   5.652  1.00  0.00     0.069 A 
HETATM    5  C   UNL     1      43.607 -16.615   5.551  1.00  0.00     0.037 A 
HETATM    6  C   UNL     1      43.055 -15.515   4.891  1.00  0.00     0.012 A 
ENDROOT
BRANCH   1   7
HETATM    7  C   UNL     1      41.166 -14.415   3.578  1.00  0.00     0.113 C 
HETATM    8  C   UNL     1      41.573 -13.071   4.193  1.00  0.00     0.037 C 
BRANCH   7   9
HETATM    9  N   UNL     1      41.536 -14.506   2.174  1.00  0.00    -0.352 N 
HETATM   10  C   UNL     1      40.714 -15.078   1.238  1.00  0.00     0.225 C 
HETATM   11  O   UNL     1      39.590 -15.504   1.461  1.00  0.00    -0.273 OA
HETATM   12  H   UNL     1      42.480 -14.251   1.918  1.00  0.00     0.163 HD
BRANCH  10  13
HETATM   13  C   UNL     1      41.300 -15.139  -0.119  1.00  0.00     0.119 A 
HETATM   14  C   UNL     1      40.510 -14.667  -1.310  1.00  0.00     0.126 A 
HETATM   15 CL   UNL     1      40.675 -15.590  -2.805  1.00  0.00    -0.101 Cl
HETATM   16 CL   UNL     1      38.915 -13.958  -1.114  1.00  0.00    -0.101 Cl
HETATM   17  C   UNL     1      41.696 -13.875  -0.847  1.00  0.00     0.060 A 
ENDBRANCH  10  13
ENDBRANCH   7   9
ENDBRANCH   1   7
BRANCH   4  18
HETATM   18  O   UNL     1      43.559 -18.812   6.309  1.00  0.00    -0.347 OA
BRANCH  18  19
HETATM   19  C   UNL     1      44.832 -19.194   5.788  1.00  0.00     0.215 C 
BRANCH  19  20
HETATM   20  C   UNL     1      44.667 -20.299   4.778  1.00  0.00    -0.017 A 
HETATM   21  C   UNL     1      44.736 -21.642   5.140  1.00  0.00     0.125 A 
HETATM   22  N   UNL     1      44.650 -22.674   4.269  1.00  0.00    -0.272 NA
HETATM   23  C   UNL     1      44.494 -22.356   2.967  1.00  0.00     0.116 A 
HETATM   24  C   UNL     1      44.426 -21.055   2.497  1.00  0.00     0.020 A 
HETATM   25  C   UNL     1      44.520 -20.014   3.417  1.00  0.00     0.012 A 
ENDBRANCH  19  20
ENDBRANCH  18  19
ENDBRANCH   4  18
TORSDOF 6
ENDMDL
MODEL 10
REMARK VINA RESULT:      -6.7      3.997      5.325
REMARK  6 active torsions:
REMARK  status: ('A' for Active; 'I' for Inactive)
REMARK    1  A    between atoms: C_2  and  N_3 
REMARK    2  A    between atoms: C_2  and  C_11 
REMARK       I    between atoms: N_3  and  C_4 
REMARK    3  A    between atoms: C_4  and  C_5 
REMARK    4  A    between atoms: C_14  and  O_15 
REMARK    5  A    between atoms: O_15  and  C_16 
REMARK    6  A    between atoms: C_16  and  C_17 
ROOT
HETATM    1  C   UNL     1      40.153 -15.052   0.838  1.00  0.00    -0.036 A 
HETATM    2  C   UNL     1      41.142 -15.843   0.236  1.00  0.00     0.012 A 
HETATM    3  C   UNL     1      41.914 -16.733   0.993  1.00  0.00     0.037 A 
HETATM    4  C   UNL     1      41.716 -16.836   2.368  1.00  0.00     0.069 A 
HETATM    5  C   UNL     1      40.727 -16.062   2.975  1.00  0.00     0.037 A 
HETATM    6  C   UNL     1      39.957 -15.173   2.222  1.00  0.00     0.012 A 
ENDROOT
BRANCH   1   7
HETATM    7  C   UNL     1      39.352 -14.066   0.006  1.00  0.00     0.113 C 
HETATM    8  C   UNL     1      38.019 -13.709   0.672  1.00  0.00     0.037 C 
BRANCH   7   9
HETATM    9  N   UNL     1      40.165 -12.888  -0.252  1.00  0.00    -0.352 N 
HETATM   10  C   UNL     1      40.036 -12.149  -1.400  1.00  0.00     0.225 C 
HETATM   11  O   UNL     1      39.208 -12.355  -2.275  1.00  0.00    -0.273 OA
HETATM   12  H   UNL     1      40.929 -12.694   0.382  1.00  0.00     0.163 HD
BRANCH  10  13
HETATM   13  C   UNL     1      41.002 -11.033  -1.507  1.00  0.00     0.119 A 
HETATM   14  C   UNL     1      42.413 -11.291  -1.963  1.00  0.00     0.126 A 
HETATM   15 CL   UNL     1      43.696 -10.369  -1.176  1.00  0.00    -0.101 Cl
HETATM   16 CL   UNL     1      42.925 -12.896  -2.457  1.00  0.00    -0.101 Cl
HETATM   17  C   UNL     1      41.470 -10.544  -2.859  1.00  0.00     0.060 A 
ENDBRANCH  10  13
ENDBRANCH   7   9
ENDBRANCH   1   7
BRANCH   4  18
HETATM   18  O   UNL     1      42.404 -17.653   3.221  1.00  0.00    -0.347 OA
BRANCH  18  19
HETATM   19  C   UNL     1      43.747 -17.977   2.861  1.00  0.00     0.215 C 
BRANCH  19  20
HETATM   20  C   UNL     1      43.946 -19.470   2.898  1.00  0.00    -0.017 A 
HETATM   21  C   UNL     1      44.605 -20.097   3.952  1.00  0.00     0.125 A 
HETATM   22  N   UNL     1      44.860 -21.425   4.011  1.00  0.00    -0.272 NA
HETATM   23  C   UNL     1      44.445 -22.169   2.965  1.00  0.00     0.116 A 
HETATM   24  C   UNL     1      43.793 -21.646   1.861  1.00  0.00     0.020 A 
HETATM   25  C   UNL     1      43.547 -20.276   1.827  1.00  0.00     0.012 A 
ENDBRANCH  19  20
ENDBRANCH  18  19
ENDBRANCH   4  18
TORSDOF 6
ENDMDL
