MODEL 1
REMARK VINA RESULT:      -7.8      0.000      0.000
REMARK  2 active torsions:
REMARK  status: ('A' for Active; 'I' for Inactive)
REMARK    1  A    between atoms: C_8  and  S_9 
REMARK    2  A    between atoms: S_9  and  C_10 
ROOT
HETATM    1  C   UNL     1      43.764 -21.661   1.844  1.00  0.00     0.002 A 
HETATM    2  C   UNL     1      43.243 -20.366   1.840  1.00  0.00     0.034 A 
HETATM    3  C   UNL     1      43.508 -19.479   2.876  1.00  0.00     0.087 A 
HETATM    4  C   UNL     1      44.313 -19.913   3.964  1.00  0.00     0.087 A 
HETATM    5  N   UNL     1      44.577 -19.105   5.010  1.00  0.00    -0.231 NA
HETATM    6  C   UNL     1      44.023 -17.873   5.000  1.00  0.00     0.167 A 
HETATM    7 CL   UNL     1      44.380 -16.952   6.395  1.00  0.00    -0.059 Cl
HETATM    8  C   UNL     1      43.258 -17.460   3.936  1.00  0.00     0.193 A 
HETATM    9  N   UNL     1      42.997 -18.228   2.835  1.00  0.00    -0.232 NA
HETATM   10  C   UNL     1      44.837 -21.198   3.948  1.00  0.00     0.034 A 
HETATM   11  C   UNL     1      44.569 -22.076   2.897  1.00  0.00     0.002 A 
ENDROOT
BRANCH   8  12
HETATM   12  S   UNL     1      42.564 -15.848   3.873  1.00  0.00     0.201 S 
HETATM   13  O   UNL     1      41.828 -15.646   5.104  1.00  0.00    -0.221 OA
HETATM   14  O   UNL     1      43.598 -14.928   3.437  1.00  0.00    -0.221 OA
BRANCH  12  15
HETATM   15  C   UNL     1      41.367 -15.876   2.538  1.00  0.00     0.141 C 
HETATM   16  C   UNL     1      41.961 -15.181   1.318  1.00  0.00     0.252 C 
HETATM   17  N   UNL     1      40.937 -15.082   0.219  1.00  0.00    -0.074 N 
HETATM   18  H   UNL     1      40.693 -16.021  -0.132  1.00  0.00     0.277 HD
HETATM   19  H   UNL     1      41.358 -14.592  -0.585  1.00  0.00     0.277 HD
HETATM   20  C   UNL     1      39.694 -14.353   0.618  1.00  0.00     0.232 C 
HETATM   21  C   UNL     1      39.073 -15.059   1.812  1.00  0.00     0.029 C 
HETATM   22  C   UNL     1      40.063 -15.186   2.970  1.00  0.00     0.024 C 
ENDBRANCH  12  15
ENDBRANCH   8  12
TORSDOF 2
ENDMDL
MODEL 2
REMARK VINA RESULT:      -7.6      1.948      2.141
REMARK  2 active torsions:
REMARK  status: ('A' for Active; 'I' for Inactive)
REMARK    1  A    between atoms: C_8  and  S_9 
REMARK    2  A    between atoms: S_9  and  C_10 
ROOT
HETATM    1  C   UNL     1      43.826 -20.764   1.761  1.00  0.00     0.002 A 
HETATM    2  C   UNL     1      43.480 -19.509   2.264  1.00  0.00     0.034 A 
HETATM    3  C   UNL     1      43.723 -19.170   3.590  1.00  0.00     0.087 A 
HETATM    4  C   UNL     1      44.323 -20.134   4.446  1.00  0.00     0.087 A 
HETATM    5  N   UNL     1      44.554 -19.871   5.748  1.00  0.00    -0.231 NA
HETATM    6  C   UNL     1      44.168 -18.664   6.217  1.00  0.00     0.167 A 
HETATM    7 CL   UNL     1      44.461 -18.455   7.888  1.00  0.00    -0.059 Cl
HETATM    8  C   UNL     1      43.602 -17.736   5.376  1.00  0.00     0.193 A 
HETATM    9  N   UNL     1      43.386 -17.942   4.042  1.00  0.00    -0.232 NA
HETATM   10  C   UNL     1      44.676 -21.373   3.929  1.00  0.00     0.034 A 
HETATM   11  C   UNL     1      44.432 -21.696   2.593  1.00  0.00     0.002 A 
ENDROOT
BRANCH   8  12
HETATM   12  S   UNL     1      43.133 -16.143   5.947  1.00  0.00     0.201 S 
HETATM   13  O   UNL     1      41.959 -16.310   6.778  1.00  0.00    -0.221 OA
HETATM   14  O   UNL     1      44.324 -15.467   6.427  1.00  0.00    -0.221 OA
BRANCH  12  15
HETATM   15  C   UNL     1      42.628 -15.225   4.491  1.00  0.00     0.141 C 
HETATM   16  C   UNL     1      43.389 -13.905   4.442  1.00  0.00     0.252 C 
HETATM   17  N   UNL     1      42.899 -13.058   3.298  1.00  0.00    -0.074 N 
HETATM   18  H   UNL     1      43.129 -13.503   2.397  1.00  0.00     0.277 HD
HETATM   19  H   UNL     1      43.416 -12.165   3.300  1.00  0.00     0.277 HD
HETATM   20  C   UNL     1      41.436 -12.756   3.355  1.00  0.00     0.232 C 
HETATM   21  C   UNL     1      40.666 -14.067   3.367  1.00  0.00     0.029 C 
HETATM   22  C   UNL     1      41.112 -14.973   4.515  1.00  0.00     0.024 C 
ENDBRANCH  12  15
ENDBRANCH   8  12
TORSDOF 2
ENDMDL
MODEL 3
REMARK VINA RESULT:      -7.2      2.062      2.564
REMARK  2 active torsions:
REMARK  status: ('A' for Active; 'I' for Inactive)
REMARK    1  A    between atoms: C_8  and  S_9 
REMARK    2  A    between atoms: S_9  and  C_10 
ROOT
HETATM    1  C   UNL     1      43.968 -21.569   2.062  1.00  0.00     0.002 A 
HETATM    2  C   UNL     1      43.530 -20.265   1.824  1.00  0.00     0.034 A 
HETATM    3  C   UNL     1      43.672 -19.270   2.784  1.00  0.00     0.087 A 
HETATM    4  C   UNL     1      44.263 -19.601   4.035  1.00  0.00     0.087 A 
HETATM    5  N   UNL     1      44.398 -18.684   5.013  1.00  0.00    -0.231 NA
HETATM    6  C   UNL     1      43.925 -17.442   4.772  1.00  0.00     0.167 A 
HETATM    7 CL   UNL     1      44.102 -16.375   6.095  1.00  0.00    -0.059 Cl
HETATM    8  C   UNL     1      43.370 -17.131   3.554  1.00  0.00     0.193 A 
HETATM    9  N   UNL     1      43.248 -18.015   2.518  1.00  0.00    -0.232 NA
HETATM   10  C   UNL     1      44.707 -20.899   4.251  1.00  0.00     0.034 A 
HETATM   11  C   UNL     1      44.564 -21.885   3.275  1.00  0.00     0.002 A 
ENDROOT
BRANCH   8  12
HETATM   12  S   UNL     1      42.789 -15.512   3.194  1.00  0.00     0.201 S 
HETATM   13  O   UNL     1      43.950 -14.653   3.082  1.00  0.00    -0.221 OA
HETATM   14  O   UNL     1      41.802 -15.613   2.136  1.00  0.00    -0.221 OA
BRANCH  12  15
HETATM   15  C   UNL     1      41.874 -14.983   4.642  1.00  0.00     0.141 C 
HETATM   16  C   UNL     1      40.394 -15.287   4.439  1.00  0.00     0.252 C 
HETATM   17  N   UNL     1      39.583 -14.745   5.585  1.00  0.00    -0.074 N 
HETATM   18  H   UNL     1      39.815 -15.243   6.458  1.00  0.00     0.277 HD
HETATM   19  H   UNL     1      38.586 -14.948   5.412  1.00  0.00     0.277 HD
HETATM   20  C   UNL     1      39.737 -13.272   5.788  1.00  0.00     0.232 C 
HETATM   21  C   UNL     1      41.205 -12.961   6.028  1.00  0.00     0.029 C 
HETATM   22  C   UNL     1      42.086 -13.481   4.892  1.00  0.00     0.024 C 
ENDBRANCH  12  15
ENDBRANCH   8  12
TORSDOF 2
ENDMDL
MODEL 4
REMARK VINA RESULT:      -7.1      2.446      3.803
REMARK  2 active torsions:
REMARK  status: ('A' for Active; 'I' for Inactive)
REMARK    1  A    between atoms: C_8  and  S_9 
REMARK    2  A    between atoms: S_9  and  C_10 
ROOT
HETATM    1  C   UNL     1      43.287 -17.033   8.173  1.00  0.00     0.002 A 
HETATM    2  C   UNL     1      42.929 -16.719   6.861  1.00  0.00     0.034 A 
HETATM    3  C   UNL     1      43.249 -17.562   5.804  1.00  0.00     0.087 A 
HETATM    4  C   UNL     1      43.968 -18.759   6.074  1.00  0.00     0.087 A 
HETATM    5  N   UNL     1      44.332 -19.599   5.084  1.00  0.00    -0.231 NA
HETATM    6  C   UNL     1      44.012 -19.247   3.820  1.00  0.00     0.167 A 
HETATM    7 CL   UNL     1      44.563 -20.355   2.641  1.00  0.00    -0.059 Cl
HETATM    8  C   UNL     1      43.303 -18.095   3.574  1.00  0.00     0.193 A 
HETATM    9  N   UNL     1      42.878 -17.234   4.547  1.00  0.00    -0.232 NA
HETATM   10  C   UNL     1      44.304 -19.066   7.385  1.00  0.00     0.034 A 
HETATM   11  C   UNL     1      43.970 -18.213   8.437  1.00  0.00     0.002 A 
ENDROOT
BRANCH   8  12
HETATM   12  S   UNL     1      42.832 -17.635   1.946  1.00  0.00     0.201 S 
HETATM   13  O   UNL     1      44.006 -17.094   1.293  1.00  0.00    -0.221 OA
HETATM   14  O   UNL     1      42.069 -18.728   1.372  1.00  0.00    -0.221 OA
BRANCH  12  15
HETATM   15  C   UNL     1      41.659 -16.291   2.131  1.00  0.00     0.141 C 
HETATM   16  C   UNL     1      40.243 -16.838   1.991  1.00  0.00     0.252 C 
HETATM   17  N   UNL     1      39.241 -15.716   2.021  1.00  0.00    -0.074 N 
HETATM   18  H   UNL     1      39.235 -15.263   2.948  1.00  0.00     0.277 HD
HETATM   19  H   UNL     1      38.295 -16.112   1.906  1.00  0.00     0.277 HD
HETATM   20  C   UNL     1      39.456 -14.687   0.958  1.00  0.00     0.232 C 
HETATM   21  C   UNL     1      40.853 -14.108   1.112  1.00  0.00     0.029 C 
HETATM   22  C   UNL     1      41.923 -15.200   1.081  1.00  0.00     0.024 C 
ENDBRANCH  12  15
ENDBRANCH   8  12
TORSDOF 2
ENDMDL
MODEL 5
REMARK VINA RESULT:      -7.0      2.979      3.876
REMARK  2 active torsions:
REMARK  status: ('A' for Active; 'I' for Inactive)
REMARK    1  A    between atoms: C_8  and  S_9 
REMARK    2  A    between atoms: S_9  and  C_10 
ROOT
HETATM    1  C   UNL     1      43.767 -19.765   7.279  1.00  0.00     0.002 A 
HETATM    2  C   UNL     1      43.362 -18.484   6.901  1.00  0.00     0.034 A 
HETATM    3  C   UNL     1      43.425 -18.069   5.576  1.00  0.00     0.087 A 
HETATM    4  C   UNL     1      43.926 -18.969   4.597  1.00  0.00     0.087 A 
HETATM    5  N   UNL     1      44.038 -18.610   3.303  1.00  0.00    -0.231 NA
HETATM    6  C   UNL     1      43.681 -17.349   2.974  1.00  0.00     0.167 A 
HETATM    7 CL   UNL     1      43.910 -16.984   1.320  1.00  0.00    -0.059 Cl
HETATM    8  C   UNL     1      43.184 -16.493   3.927  1.00  0.00     0.193 A 
HETATM    9  N   UNL     1      43.015 -16.826   5.243  1.00  0.00    -0.232 NA
HETATM   10  C   UNL     1      44.311 -20.246   4.985  1.00  0.00     0.034 A 
HETATM   11  C   UNL     1      44.235 -20.651   6.318  1.00  0.00     0.002 A 
ENDROOT
BRANCH   8  12
HETATM   12  S   UNL     1      42.668 -14.864   3.521  1.00  0.00     0.201 S 
HETATM   13  O   UNL     1      43.856 -14.106   3.188  1.00  0.00    -0.221 OA
HETATM   14  O   UNL     1      41.540 -14.962   2.614  1.00  0.00    -0.221 OA
BRANCH  12  15
HETATM   15  C   UNL     1      41.997 -14.167   5.031  1.00  0.00     0.141 C 
HETATM   16  C   UNL     1      40.540 -14.592   5.175  1.00  0.00     0.252 C 
HETATM   17  N   UNL     1      39.914 -13.924   6.370  1.00  0.00    -0.074 N 
HETATM   18  H   UNL     1      40.351 -14.260   7.241  1.00  0.00     0.277 HD
HETATM   19  H   UNL     1      38.926 -14.214   6.432  1.00  0.00     0.277 HD
HETATM   20  C   UNL     1      39.966 -12.431   6.322  1.00  0.00     0.232 C 
HETATM   21  C   UNL     1      41.418 -11.995   6.215  1.00  0.00     0.029 C 
HETATM   22  C   UNL     1      42.113 -12.634   5.012  1.00  0.00     0.024 C 
ENDBRANCH  12  15
ENDBRANCH   8  12
TORSDOF 2
ENDMDL
MODEL 6
REMARK VINA RESULT:      -7.0      2.893      3.732
REMARK  2 active torsions:
REMARK  status: ('A' for Active; 'I' for Inactive)
REMARK    1  A    between atoms: C_8  and  S_9 
REMARK    2  A    between atoms: S_9  and  C_10 
ROOT
HETATM    1  C   UNL     1      43.986 -19.261   2.193  1.00  0.00     0.002 A 
HETATM    2  C   UNL     1      43.482 -18.204   1.434  1.00  0.00     0.034 A 
HETATM    3  C   UNL     1      43.110 -17.003   2.027  1.00  0.00     0.087 A 
HETATM    4  C   UNL     1      43.236 -16.864   3.436  1.00  0.00     0.087 A 
HETATM    5  N   UNL     1      42.863 -15.734   4.067  1.00  0.00    -0.231 NA
HETATM    6  C   UNL     1      42.336 -14.744   3.313  1.00  0.00     0.167 A 
HETATM    7 CL   UNL     1      41.851 -13.379   4.218  1.00  0.00    -0.059 Cl
HETATM    8  C   UNL     1      42.234 -14.885   1.950  1.00  0.00     0.193 A 
HETATM    9  N   UNL     1      42.636 -15.996   1.261  1.00  0.00    -0.232 NA
HETATM   10  C   UNL     1      43.753 -17.919   4.176  1.00  0.00     0.034 A 
HETATM   11  C   UNL     1      44.130 -19.116   3.567  1.00  0.00     0.002 A 
ENDROOT
BRANCH   8  12
HETATM   12  S   UNL     1      41.598 -13.598   0.938  1.00  0.00     0.201 S 
HETATM   13  O   UNL     1      40.181 -13.487   1.220  1.00  0.00    -0.221 OA
HETATM   14  O   UNL     1      42.493 -12.461   1.039  1.00  0.00    -0.221 OA
BRANCH  12  15
HETATM   15  C   UNL     1      41.758 -14.174  -0.753  1.00  0.00     0.141 C 
HETATM   16  C   UNL     1      42.379 -13.069  -1.601  1.00  0.00     0.252 C 
HETATM   17  N   UNL     1      42.416 -13.477  -3.050  1.00  0.00    -0.074 N 
HETATM   18  H   UNL     1      43.057 -14.274  -3.183  1.00  0.00     0.277 HD
HETATM   19  H   UNL     1      42.823 -12.706  -3.602  1.00  0.00     0.277 HD
HETATM   20  C   UNL     1      41.074 -13.807  -3.617  1.00  0.00     0.232 C 
HETATM   21  C   UNL     1      40.460 -14.933  -2.801  1.00  0.00     0.029 C 
HETATM   22  C   UNL     1      40.386 -14.579  -1.315  1.00  0.00     0.024 C 
ENDBRANCH  12  15
ENDBRANCH   8  12
TORSDOF 2
ENDMDL
MODEL 7
REMARK VINA RESULT:      -7.0      1.871      2.386
REMARK  2 active torsions:
REMARK  status: ('A' for Active; 'I' for Inactive)
REMARK    1  A    between atoms: C_8  and  S_9 
REMARK    2  A    between atoms: S_9  and  C_10 
ROOT
HETATM    1  C   UNL     1      44.860 -21.894   5.137  1.00  0.00     0.002 A 
HETATM    2  C   UNL     1      44.525 -20.558   5.359  1.00  0.00     0.034 A 
HETATM    3  C   UNL     1      44.188 -19.714   4.307  1.00  0.00     0.087 A 
HETATM    4  C   UNL     1      44.202 -20.229   2.982  1.00  0.00     0.087 A 
HETATM    5  N   UNL     1      43.914 -19.449   1.921  1.00  0.00    -0.231 NA
HETATM    6  C   UNL     1      43.638 -18.149   2.162  1.00  0.00     0.167 A 
HETATM    7 CL   UNL     1      43.337 -17.241   0.746  1.00  0.00    -0.059 Cl
HETATM    8  C   UNL     1      43.613 -17.667   3.449  1.00  0.00     0.193 A 
HETATM    9  N   UNL     1      43.858 -18.428   4.558  1.00  0.00    -0.232 NA
HETATM   10  C   UNL     1      44.523 -21.564   2.778  1.00  0.00     0.034 A 
HETATM   11  C   UNL     1      44.852 -22.401   3.845  1.00  0.00     0.002 A 
ENDROOT
BRANCH   8  12
HETATM   12  S   UNL     1      43.211 -15.992   3.796  1.00  0.00     0.201 S 
HETATM   13  O   UNL     1      43.515 -15.756   5.192  1.00  0.00    -0.221 OA
HETATM   14  O   UNL     1      43.764 -15.167   2.739  1.00  0.00    -0.221 OA
BRANCH  12  15
HETATM   15  C   UNL     1      41.432 -15.863   3.611  1.00  0.00     0.141 C 
HETATM   16  C   UNL     1      40.962 -16.871   2.568  1.00  0.00     0.252 C 
HETATM   17  N   UNL     1      39.489 -16.704   2.302  1.00  0.00    -0.074 N 
HETATM   18  H   UNL     1      38.942 -16.950   3.140  1.00  0.00     0.277 HD
HETATM   19  H   UNL     1      39.203 -17.384   1.581  1.00  0.00     0.277 HD
HETATM   20  C   UNL     1      39.113 -15.335   1.835  1.00  0.00     0.232 C 
HETATM   21  C   UNL     1      39.545 -14.324   2.885  1.00  0.00     0.029 C 
HETATM   22  C   UNL     1      41.038 -14.435   3.197  1.00  0.00     0.024 C 
ENDBRANCH  12  15
ENDBRANCH   8  12
TORSDOF 2
ENDMDL
MODEL 8
REMARK VINA RESULT:      -6.8      1.868      2.206
REMARK  2 active torsions:
REMARK  status: ('A' for Active; 'I' for Inactive)
REMARK    1  A    between atoms: C_8  and  S_9 
REMARK    2  A    between atoms: S_9  and  C_10 
ROOT
HETATM    1  C   UNL     1      43.996 -21.317   2.023  1.00  0.00     0.002 A 
HETATM    2  C   UNL     1      43.064 -20.302   1.805  1.00  0.00     0.034 A 
HETATM    3  C   UNL     1      43.046 -19.157   2.594  1.00  0.00     0.087 A 
HETATM    4  C   UNL     1      43.990 -19.035   3.649  1.00  0.00     0.087 A 
HETATM    5  N   UNL     1      43.999 -17.962   4.464  1.00  0.00    -0.231 NA
HETATM    6  C   UNL     1      43.057 -17.016   4.258  1.00  0.00     0.167 A 
HETATM    7 CL   UNL     1      43.127 -15.726   5.377  1.00  0.00    -0.059 Cl
HETATM    8  C   UNL     1      42.159 -17.139   3.225  1.00  0.00     0.193 A 
HETATM    9  N   UNL     1      42.137 -18.188   2.349  1.00  0.00    -0.232 NA
HETATM   10  C   UNL     1      44.921 -20.047   3.845  1.00  0.00     0.034 A 
HETATM   11  C   UNL     1      44.932 -21.186   3.040  1.00  0.00     0.002 A 
ENDROOT
BRANCH   8  12
HETATM   12  S   UNL     1      40.953 -15.903   2.903  1.00  0.00     0.201 S 
HETATM   13  O   UNL     1      40.010 -16.457   1.954  1.00  0.00    -0.221 OA
HETATM   14  O   UNL     1      40.527 -15.347   4.174  1.00  0.00    -0.221 OA
BRANCH  12  15
HETATM   15  C   UNL     1      41.820 -14.570   2.075  1.00  0.00     0.141 C 
HETATM   16  C   UNL     1      41.565 -13.265   2.822  1.00  0.00     0.252 C 
HETATM   17  N   UNL     1      42.180 -12.107   2.083  1.00  0.00    -0.074 N 
HETATM   18  H   UNL     1      43.208 -12.188   2.080  1.00  0.00     0.277 HD
HETATM   19  H   UNL     1      41.976 -11.238   2.599  1.00  0.00     0.277 HD
HETATM   20  C   UNL     1      41.680 -11.953   0.682  1.00  0.00     0.232 C 
HETATM   21  C   UNL     1      41.963 -13.236  -0.083  1.00  0.00     0.029 C 
HETATM   22  C   UNL     1      41.356 -14.454   0.613  1.00  0.00     0.024 C 
ENDBRANCH  12  15
ENDBRANCH   8  12
TORSDOF 2
ENDMDL
MODEL 9
REMARK VINA RESULT:      -6.7      2.516      3.764
REMARK  2 active torsions:
REMARK  status: ('A' for Active; 'I' for Inactive)
REMARK    1  A    between atoms: C_8  and  S_9 
REMARK    2  A    between atoms: S_9  and  C_10 
ROOT
HETATM    1  C   UNL     1      43.151 -17.226   7.947  1.00  0.00     0.002 A 
HETATM    2  C   UNL     1      42.608 -16.704   6.772  1.00  0.00     0.034 A 
HETATM    3  C   UNL     1      42.756 -17.359   5.556  1.00  0.00     0.087 A 
HETATM    4  C   UNL     1      43.487 -18.577   5.516  1.00  0.00     0.087 A 
HETATM    5  N   UNL     1      43.687 -19.240   4.359  1.00  0.00    -0.231 NA
HETATM    6  C   UNL     1      43.190 -18.688   3.232  1.00  0.00     0.167 A 
HETATM    7 CL   UNL     1      43.543 -19.582   1.819  1.00  0.00    -0.059 Cl
HETATM    8  C   UNL     1      42.471 -17.517   3.285  1.00  0.00     0.193 A 
HETATM    9  N   UNL     1      42.208 -16.832   4.439  1.00  0.00    -0.232 NA
HETATM   10  C   UNL     1      44.009 -19.093   6.695  1.00  0.00     0.034 A 
HETATM   11  C   UNL     1      43.846 -18.427   7.910  1.00  0.00     0.002 A 
ENDROOT
BRANCH   8  12
HETATM   12  S   UNL     1      41.771 -16.800   1.843  1.00  0.00     0.201 S 
HETATM   13  O   UNL     1      42.866 -16.434   0.969  1.00  0.00    -0.221 OA
HETATM   14  O   UNL     1      40.685 -17.653   1.397  1.00  0.00    -0.221 OA
BRANCH  12  15
HETATM   15  C   UNL     1      40.986 -15.279   2.377  1.00  0.00     0.141 C 
HETATM   16  C   UNL     1      39.602 -15.182   1.746  1.00  0.00     0.252 C 
HETATM   17  N   UNL     1      38.965 -13.859   2.079  1.00  0.00    -0.074 N 
HETATM   18  H   UNL     1      38.775 -13.795   3.090  1.00  0.00     0.277 HD
HETATM   19  H   UNL     1      38.040 -13.812   1.625  1.00  0.00     0.277 HD
HETATM   20  C   UNL     1      39.767 -12.677   1.639  1.00  0.00     0.232 C 
HETATM   21  C   UNL     1      41.138 -12.745   2.292  1.00  0.00     0.029 C 
HETATM   22  C   UNL     1      41.845 -14.066   1.986  1.00  0.00     0.024 C 
ENDBRANCH  12  15
ENDBRANCH   8  12
TORSDOF 2
ENDMDL
MODEL 10
REMARK VINA RESULT:      -6.7      1.963      2.638
REMARK  2 active torsions:
REMARK  status: ('A' for Active; 'I' for Inactive)
REMARK    1  A    between atoms: C_8  and  S_9 
REMARK    2  A    between atoms: S_9  and  C_10 
ROOT
HETATM    1  C   UNL     1      43.698 -19.794   7.349  1.00  0.00     0.002 A 
HETATM    2  C   UNL     1      43.287 -18.520   6.953  1.00  0.00     0.034 A 
HETATM    3  C   UNL     1      43.385 -18.109   5.629  1.00  0.00     0.087 A 
HETATM    4  C   UNL     1      43.929 -19.007   4.670  1.00  0.00     0.087 A 
HETATM    5  N   UNL     1      44.075 -18.651   3.378  1.00  0.00    -0.231 NA
HETATM    6  C   UNL     1      43.712 -17.397   3.033  1.00  0.00     0.167 A 
HETATM    7 CL   UNL     1      43.986 -17.035   1.385  1.00  0.00    -0.059 Cl
HETATM    8  C   UNL     1      43.174 -16.544   3.966  1.00  0.00     0.193 A 
HETATM    9  N   UNL     1      42.969 -16.873   5.277  1.00  0.00    -0.232 NA
HETATM   10  C   UNL     1      44.319 -20.276   5.076  1.00  0.00     0.034 A 
HETATM   11  C   UNL     1      44.208 -20.677   6.407  1.00  0.00     0.002 A 
ENDROOT
BRANCH   8  12
HETATM   12  S   UNL     1      42.648 -14.924   3.537  1.00  0.00     0.201 S 
HETATM   13  O   UNL     1      41.984 -14.365   4.696  1.00  0.00    -0.221 OA
HETATM   14  O   UNL     1      43.754 -14.249   2.885  1.00  0.00    -0.221 OA
BRANCH  12  15
HETATM   15  C   UNL     1      41.405 -15.130   2.260  1.00  0.00     0.141 C 
HETATM   16  C   UNL     1      41.672 -14.134   1.136  1.00  0.00     0.252 C 
HETATM   17  N   UNL     1      40.577 -14.199   0.106  1.00  0.00    -0.074 N 
HETATM   18  H   UNL     1      40.586 -15.112  -0.372  1.00  0.00     0.277 HD
HETATM   19  H   UNL     1      40.772 -13.504  -0.631  1.00  0.00     0.277 HD
HETATM   20  C   UNL     1      39.214 -13.931   0.658  1.00  0.00     0.232 C 
HETATM   21  C   UNL     1      38.923 -14.942   1.756  1.00  0.00     0.029 C 
HETATM   22  C   UNL     1      39.998 -14.922   2.842  1.00  0.00     0.024 C 
ENDBRANCH  12  15
ENDBRANCH   8  12
TORSDOF 2
ENDMDL
