MODEL 1
REMARK VINA RESULT:      -9.0      0.000      0.000
REMARK  10 active torsions:
REMARK  status: ('A' for Active; 'I' for Inactive)
REMARK    1  A    between atoms: C_2  and  C_3 
REMARK    2  A    between atoms: C_4  and  O_5 
REMARK    3  A    between atoms: C_6  and  C_7 
REMARK    4  A    between atoms: C_12  and  C_13 
REMARK    5  A    between atoms: N_14  and  N_15 
REMARK       I    between atoms: N_15  and  C_16 
REMARK    6  A    between atoms: C_16  and  C_17 
REMARK    7  A    between atoms: N_20  and  C_21 
REMARK    8  A    between atoms: C_25  and  N_26 
REMARK    9  A    between atoms: C_27  and  C_28 
REMARK   10  A    between atoms: C_28  and  N_29 
ROOT
HETATM    1  N   UNL     1      45.763 -12.672   8.940  1.00  0.00    -0.145 NA
HETATM    2  C   UNL     1      45.350 -11.469   9.500  1.00  0.00     0.273 C 
HETATM    3  O   UNL     1      45.965 -10.425   9.259  1.00  0.00    -0.270 OA
HETATM    4  H   UNL     1      46.523 -12.491   8.286  1.00  0.00     0.158 HD
ENDROOT
BRANCH   1   5
HETATM    5  N   UNL     1      44.827 -13.505   8.376  1.00  0.00    -0.205 NA
HETATM    6  C   UNL     1      45.000 -13.690   7.102  1.00  0.00     0.144 C 
BRANCH   6   7
HETATM    7  C   UNL     1      44.099 -14.543   6.302  1.00  0.00    -0.016 A 
HETATM    8  C   UNL     1      42.945 -14.015   5.725  1.00  0.00     0.023 A 
HETATM    9  C   UNL     1      42.095 -14.817   4.944  1.00  0.00    -0.016 A 
HETATM   10  C   UNL     1      42.451 -16.187   4.810  1.00  0.00     0.079 A 
HETATM   11  C   UNL     1      43.596 -16.767   5.420  1.00  0.00    -0.016 A 
HETATM   12  C   UNL     1      44.428 -15.890   6.139  1.00  0.00     0.023 A 
BRANCH   9  13
HETATM   13  C   UNL     1      40.842 -14.211   4.262  1.00  0.00    -0.021 C 
HETATM   14  C   UNL     1      41.175 -12.824   3.670  1.00  0.00     0.019 C 
HETATM   15  C   UNL     1      40.301 -15.066   3.084  1.00  0.00     0.019 C 
HETATM   16  C   UNL     1      39.671 -14.091   5.264  1.00  0.00     0.019 C 
ENDBRANCH   9  13
BRANCH  10  17
HETATM   17  O   UNL     1      41.614 -16.958   4.052  1.00  0.00    -0.360 OA
HETATM   18  H   UNL     1      40.724 -16.577   4.096  1.00  0.00     0.217 HD
ENDBRANCH  10  17
BRANCH  11  19
HETATM   19  C   UNL     1      43.952 -18.275   5.344  1.00  0.00    -0.021 C 
HETATM   20  C   UNL     1      45.307 -18.523   6.039  1.00  0.00     0.019 C 
HETATM   21  C   UNL     1      44.001 -18.796   3.887  1.00  0.00     0.019 C 
HETATM   22  C   UNL     1      42.915 -19.185   6.061  1.00  0.00     0.019 C 
ENDBRANCH  11  19
ENDBRANCH   6   7
ENDBRANCH   1   5
BRANCH   2  23
HETATM   23  C   UNL     1      44.200 -11.455  10.406  1.00  0.00     0.170 C 
HETATM   24  N   UNL     1      44.220 -11.947  11.678  1.00  0.00    -0.124 NA
HETATM   25  N   UNL     1      43.049 -11.716  12.240  1.00  0.00    -0.058 NA
HETATM   26  N   UNL     1      42.285 -10.988  11.390  1.00  0.00    -0.191 N 
HETATM   27  C   UNL     1      42.943 -10.905  10.156  1.00  0.00     0.101 C 
BRANCH  26  28
HETATM   28  C   UNL     1      41.055 -10.415  11.798  1.00  0.00     0.229 A 
HETATM   29  N   UNL     1      40.856  -9.099  11.697  1.00  0.00    -0.081 NA
HETATM   30  O   UNL     1      39.574  -8.914  12.220  1.00  0.00    -0.103 OA
HETATM   31  N   UNL     1      39.018 -10.120  12.623  1.00  0.00    -0.083 NA
HETATM   32  C   UNL     1      39.936 -11.049  12.368  1.00  0.00     0.201 A 
BRANCH  32  33
HETATM   33  N   UNL     1      39.781 -12.361  12.612  1.00  0.00    -0.379 N 
HETATM   34  H   UNL     1      39.742 -13.019  11.838  1.00  0.00     0.158 HD
HETATM   35  H   UNL     1      39.450 -12.729  13.501  1.00  0.00     0.158 HD
ENDBRANCH  32  33
ENDBRANCH  26  28
BRANCH  27  36
HETATM   36  C   UNL     1      42.354 -10.245   8.961  1.00  0.00     0.295 C 
BRANCH  36  37
HETATM   37  N   UNL     1      41.404 -11.089   8.145  1.00  0.00    -0.073 N 
HETATM   38  H   UNL     1      41.693 -12.078   8.281  1.00  0.00     0.279 HD
HETATM   39  C   UNL     1      39.972 -10.972   8.577  1.00  0.00     0.269 C 
HETATM   40  C   UNL     1      41.556 -10.835   6.672  1.00  0.00     0.269 C 
ENDBRANCH  36  37
ENDBRANCH  27  36
ENDBRANCH   2  23
TORSDOF 10
ENDMDL
MODEL 2
REMARK VINA RESULT:      -9.0      0.172      3.092
REMARK  10 active torsions:
REMARK  status: ('A' for Active; 'I' for Inactive)
REMARK    1  A    between atoms: C_2  and  C_3 
REMARK    2  A    between atoms: C_4  and  O_5 
REMARK    3  A    between atoms: C_6  and  C_7 
REMARK    4  A    between atoms: C_12  and  C_13 
REMARK    5  A    between atoms: N_14  and  N_15 
REMARK       I    between atoms: N_15  and  C_16 
REMARK    6  A    between atoms: C_16  and  C_17 
REMARK    7  A    between atoms: N_20  and  C_21 
REMARK    8  A    between atoms: C_25  and  N_26 
REMARK    9  A    between atoms: C_27  and  C_28 
REMARK   10  A    between atoms: C_28  and  N_29 
ROOT
HETATM    1  N   UNL     1      45.717 -12.739   8.844  1.00  0.00    -0.145 NA
HETATM    2  C   UNL     1      45.337 -11.535   9.422  1.00  0.00     0.273 C 
HETATM    3  O   UNL     1      45.962 -10.498   9.175  1.00  0.00    -0.270 OA
HETATM    4  H   UNL     1      46.465 -12.564   8.173  1.00  0.00     0.158 HD
ENDROOT
BRANCH   1   5
HETATM    5  N   UNL     1      44.756 -13.553   8.295  1.00  0.00    -0.205 NA
HETATM    6  C   UNL     1      45.011 -13.902   7.071  1.00  0.00     0.144 C 
BRANCH   6   7
HETATM    7  C   UNL     1      44.101 -14.767   6.294  1.00  0.00    -0.016 A 
HETATM    8  C   UNL     1      44.384 -16.120   6.115  1.00  0.00     0.023 A 
HETATM    9  C   UNL     1      43.510 -16.952   5.395  1.00  0.00    -0.016 A 
HETATM   10  C   UNL     1      42.360 -16.338   4.829  1.00  0.00     0.079 A 
HETATM   11  C   UNL     1      42.064 -14.954   4.955  1.00  0.00    -0.016 A 
HETATM   12  C   UNL     1      42.954 -14.197   5.737  1.00  0.00     0.023 A 
BRANCH   9  13
HETATM   13  C   UNL     1      43.803 -18.467   5.247  1.00  0.00    -0.021 C 
HETATM   14  C   UNL     1      43.609 -18.909   3.780  1.00  0.00     0.019 C 
HETATM   15  C   UNL     1      45.256 -18.860   5.629  1.00  0.00     0.019 C 
HETATM   16  C   UNL     1      42.888 -19.300   6.175  1.00  0.00     0.019 C 
ENDBRANCH   9  13
BRANCH  10  17
HETATM   17  O   UNL     1      41.520 -17.157   4.127  1.00  0.00    -0.360 OA
HETATM   18  H   UNL     1      41.142 -16.650   3.393  1.00  0.00     0.217 HD
ENDBRANCH  10  17
BRANCH  11  19
HETATM   19  C   UNL     1      40.853 -14.258   4.278  1.00  0.00    -0.021 C 
HETATM   20  C   UNL     1      39.738 -14.030   5.320  1.00  0.00     0.019 C 
HETATM   21  C   UNL     1      40.301 -15.071   3.082  1.00  0.00     0.019 C 
HETATM   22  C   UNL     1      41.200 -12.862   3.690  1.00  0.00     0.019 C 
ENDBRANCH  11  19
ENDBRANCH   6   7
ENDBRANCH   1   5
BRANCH   2  23
HETATM   23  C   UNL     1      44.208 -11.510  10.355  1.00  0.00     0.170 C 
HETATM   24  N   UNL     1      44.254 -12.003  11.627  1.00  0.00    -0.124 NA
HETATM   25  N   UNL     1      43.099 -11.761  12.215  1.00  0.00    -0.058 NA
HETATM   26  N   UNL     1      42.322 -11.025  11.384  1.00  0.00    -0.191 N 
HETATM   27  C   UNL     1      42.951 -10.948  10.135  1.00  0.00     0.101 C 
BRANCH  26  28
HETATM   28  C   UNL     1      41.107 -10.441  11.822  1.00  0.00     0.229 A 
HETATM   29  N   UNL     1      40.929  -9.121  11.751  1.00  0.00    -0.081 NA
HETATM   30  O   UNL     1      39.657  -8.926  12.295  1.00  0.00    -0.103 OA
HETATM   31  N   UNL     1      39.086 -10.131  12.680  1.00  0.00    -0.083 NA
HETATM   32  C   UNL     1      39.985 -11.069  12.393  1.00  0.00     0.201 A 
BRANCH  32  33
HETATM   33  N   UNL     1      39.811 -12.383  12.611  1.00  0.00    -0.379 N 
HETATM   34  H   UNL     1      39.933 -13.044  11.848  1.00  0.00     0.158 HD
HETATM   35  H   UNL     1      39.324 -12.755  13.424  1.00  0.00     0.158 HD
ENDBRANCH  32  33
ENDBRANCH  26  28
BRANCH  27  36
HETATM   36  C   UNL     1      42.340 -10.282   8.955  1.00  0.00     0.295 C 
BRANCH  36  37
HETATM   37  N   UNL     1      41.368 -11.119   8.157  1.00  0.00    -0.073 N 
HETATM   38  H   UNL     1      41.626 -12.112   8.321  1.00  0.00     0.279 HD
HETATM   39  C   UNL     1      39.939 -10.947   8.579  1.00  0.00     0.269 C 
HETATM   40  C   UNL     1      41.533 -10.909   6.679  1.00  0.00     0.269 C 
ENDBRANCH  36  37
ENDBRANCH  27  36
ENDBRANCH   2  23
TORSDOF 10
ENDMDL
MODEL 3
REMARK VINA RESULT:      -8.6      1.249      3.846
REMARK  10 active torsions:
REMARK  status: ('A' for Active; 'I' for Inactive)
REMARK    1  A    between atoms: C_2  and  C_3 
REMARK    2  A    between atoms: C_4  and  O_5 
REMARK    3  A    between atoms: C_6  and  C_7 
REMARK    4  A    between atoms: C_12  and  C_13 
REMARK    5  A    between atoms: N_14  and  N_15 
REMARK       I    between atoms: N_15  and  C_16 
REMARK    6  A    between atoms: C_16  and  C_17 
REMARK    7  A    between atoms: N_20  and  C_21 
REMARK    8  A    between atoms: C_25  and  N_26 
REMARK    9  A    between atoms: C_27  and  C_28 
REMARK   10  A    between atoms: C_28  and  N_29 
ROOT
HETATM    1  N   UNL     1      45.330 -12.584   9.720  1.00  0.00    -0.145 NA
HETATM    2  C   UNL     1      45.165 -11.209   9.618  1.00  0.00     0.273 C 
HETATM    3  O   UNL     1      46.146 -10.468   9.503  1.00  0.00    -0.270 OA
HETATM    4  H   UNL     1      46.315 -12.811   9.584  1.00  0.00     0.158 HD
ENDROOT
BRANCH   1   5
HETATM    5  N   UNL     1      44.534 -13.414   8.967  1.00  0.00    -0.205 NA
HETATM    6  C   UNL     1      44.872 -13.458   7.714  1.00  0.00     0.144 C 
BRANCH   6   7
HETATM    7  C   UNL     1      44.141 -14.281   6.731  1.00  0.00    -0.016 A 
HETATM    8  C   UNL     1      44.415 -15.641   6.595  1.00  0.00     0.023 A 
HETATM    9  C   UNL     1      43.706 -16.433   5.676  1.00  0.00    -0.016 A 
HETATM   10  C   UNL     1      42.738 -15.772   4.873  1.00  0.00     0.079 A 
HETATM   11  C   UNL     1      42.464 -14.380   4.954  1.00  0.00    -0.016 A 
HETATM   12  C   UNL     1      43.172 -13.664   5.936  1.00  0.00     0.023 A 
BRANCH   9  13
HETATM   13  C   UNL     1      43.978 -17.956   5.570  1.00  0.00    -0.021 C 
HETATM   14  C   UNL     1      42.793 -18.753   6.158  1.00  0.00     0.019 C 
HETATM   15  C   UNL     1      44.155 -18.456   4.110  1.00  0.00     0.019 C 
HETATM   16  C   UNL     1      45.286 -18.335   6.302  1.00  0.00     0.019 C 
ENDBRANCH   9  13
BRANCH  10  17
HETATM   17  O   UNL     1      42.059 -16.553   3.979  1.00  0.00    -0.360 OA
HETATM   18  H   UNL     1      41.247 -16.868   4.404  1.00  0.00     0.217 HD
ENDBRANCH  10  17
BRANCH  11  19
HETATM   19  C   UNL     1      41.465 -13.635   4.030  1.00  0.00    -0.021 C 
HETATM   20  C   UNL     1      41.508 -12.123   4.334  1.00  0.00     0.019 C 
HETATM   21  C   UNL     1      40.018 -14.165   4.179  1.00  0.00     0.019 C 
HETATM   22  C   UNL     1      41.796 -13.791   2.519  1.00  0.00     0.019 C 
ENDBRANCH  11  19
ENDBRANCH   6   7
ENDBRANCH   1   5
BRANCH   2  23
HETATM   23  C   UNL     1      43.817 -10.640   9.682  1.00  0.00     0.170 C 
HETATM   24  N   UNL     1      43.000 -10.478   8.601  1.00  0.00    -0.124 NA
HETATM   25  N   UNL     1      41.840 -10.007   9.014  1.00  0.00    -0.058 NA
HETATM   26  N   UNL     1      41.841  -9.948  10.368  1.00  0.00    -0.191 N 
HETATM   27  C   UNL     1      43.134 -10.230  10.827  1.00  0.00     0.101 C 
BRANCH  26  28
HETATM   28  C   UNL     1      40.660  -9.676  11.103  1.00  0.00     0.229 A 
HETATM   29  N   UNL     1      40.234  -8.421  11.256  1.00  0.00    -0.081 NA
HETATM   30  O   UNL     1      39.092  -8.550  12.050  1.00  0.00    -0.103 OA
HETATM   31  N   UNL     1      38.845  -9.880  12.359  1.00  0.00    -0.083 NA
HETATM   32  C   UNL     1      39.818 -10.578  11.779  1.00  0.00     0.201 A 
BRANCH  32  33
HETATM   33  N   UNL     1      39.936 -11.914  11.836  1.00  0.00    -0.379 N 
HETATM   34  H   UNL     1      39.760 -12.474  11.006  1.00  0.00     0.158 HD
HETATM   35  H   UNL     1      39.948 -12.438  12.708  1.00  0.00     0.158 HD
ENDBRANCH  32  33
ENDBRANCH  26  28
BRANCH  27  36
HETATM   36  C   UNL     1      43.519 -10.175  12.262  1.00  0.00     0.295 C 
BRANCH  36  37
HETATM   37  N   UNL     1      42.558  -9.450  13.174  1.00  0.00    -0.073 N 
HETATM   38  H   UNL     1      41.651  -9.396  12.668  1.00  0.00     0.279 HD
HETATM   39  C   UNL     1      42.310 -10.158  14.473  1.00  0.00     0.269 C 
HETATM   40  C   UNL     1      42.968  -8.022  13.396  1.00  0.00     0.269 C 
ENDBRANCH  36  37
ENDBRANCH  27  36
ENDBRANCH   2  23
TORSDOF 10
ENDMDL
MODEL 4
REMARK VINA RESULT:      -8.6      4.610      7.603
REMARK  10 active torsions:
REMARK  status: ('A' for Active; 'I' for Inactive)
REMARK    1  A    between atoms: C_2  and  C_3 
REMARK    2  A    between atoms: C_4  and  O_5 
REMARK    3  A    between atoms: C_6  and  C_7 
REMARK    4  A    between atoms: C_12  and  C_13 
REMARK    5  A    between atoms: N_14  and  N_15 
REMARK       I    between atoms: N_15  and  C_16 
REMARK    6  A    between atoms: C_16  and  C_17 
REMARK    7  A    between atoms: N_20  and  C_21 
REMARK    8  A    between atoms: C_25  and  N_26 
REMARK    9  A    between atoms: C_27  and  C_28 
REMARK   10  A    between atoms: C_28  and  N_29 
ROOT
HETATM    1  N   UNL     1      39.154 -13.600   6.116  1.00  0.00    -0.145 NA
HETATM    2  C   UNL     1      39.098 -12.402   5.413  1.00  0.00     0.273 C 
HETATM    3  O   UNL     1      38.700 -11.372   5.966  1.00  0.00    -0.270 OA
HETATM    4  H   UNL     1      38.924 -13.422   7.093  1.00  0.00     0.158 HD
ENDROOT
BRANCH   1   5
HETATM    5  N   UNL     1      40.278 -14.383   6.018  1.00  0.00    -0.205 NA
HETATM    6  C   UNL     1      40.118 -15.427   5.263  1.00  0.00     0.144 C 
BRANCH   6   7
HETATM    7  C   UNL     1      41.199 -16.405   5.032  1.00  0.00    -0.016 A 
HETATM    8  C   UNL     1      42.016 -16.824   6.081  1.00  0.00     0.023 A 
HETATM    9  C   UNL     1      43.033 -17.771   5.871  1.00  0.00    -0.016 A 
HETATM   10  C   UNL     1      43.207 -18.240   4.540  1.00  0.00     0.079 A 
HETATM   11  C   UNL     1      42.421 -17.802   3.441  1.00  0.00    -0.016 A 
HETATM   12  C   UNL     1      41.387 -16.897   3.739  1.00  0.00     0.023 A 
BRANCH   9  13
HETATM   13  C   UNL     1      43.902 -18.273   7.052  1.00  0.00    -0.021 C 
HETATM   14  C   UNL     1      43.493 -17.558   8.358  1.00  0.00     0.019 C 
HETATM   15  C   UNL     1      43.758 -19.794   7.328  1.00  0.00     0.019 C 
HETATM   16  C   UNL     1      45.405 -18.040   6.770  1.00  0.00     0.019 C 
ENDBRANCH   9  13
BRANCH  10  17
HETATM   17  O   UNL     1      44.202 -19.158   4.348  1.00  0.00    -0.360 OA
HETATM   18  H   UNL     1      44.026 -19.923   4.916  1.00  0.00     0.217 HD
ENDBRANCH  10  17
BRANCH  11  19
HETATM   19  C   UNL     1      42.652 -18.249   1.973  1.00  0.00    -0.021 C 
HETATM   20  C   UNL     1      41.442 -17.837   1.109  1.00  0.00     0.019 C 
HETATM   21  C   UNL     1      42.893 -19.774   1.854  1.00  0.00     0.019 C 
HETATM   22  C   UNL     1      43.903 -17.592   1.323  1.00  0.00     0.019 C 
ENDBRANCH  11  19
ENDBRANCH   6   7
ENDBRANCH   1   5
BRANCH   2  23
HETATM   23  C   UNL     1      39.482 -12.379   4.000  1.00  0.00     0.170 C 
HETATM   24  N   UNL     1      38.596 -12.420   2.964  1.00  0.00    -0.124 NA
HETATM   25  N   UNL     1      39.263 -12.314   1.832  1.00  0.00    -0.058 NA
HETATM   26  N   UNL     1      40.573 -12.102   2.107  1.00  0.00    -0.191 N 
HETATM   27  C   UNL     1      40.772 -12.259   3.485  1.00  0.00     0.101 C 
BRANCH  26  28
HETATM   28  C   UNL     1      41.499 -11.745   1.095  1.00  0.00     0.229 A 
HETATM   29  N   UNL     1      42.043 -12.682   0.316  1.00  0.00    -0.081 NA
HETATM   30  O   UNL     1      42.910 -11.966  -0.512  1.00  0.00    -0.103 OA
HETATM   31  N   UNL     1      42.873 -10.609  -0.223  1.00  0.00    -0.083 NA
HETATM   32  C   UNL     1      42.004 -10.471   0.776  1.00  0.00     0.201 A 
BRANCH  32  33
HETATM   33  N   UNL     1      41.678  -9.300   1.346  1.00  0.00    -0.379 N 
HETATM   34  H   UNL     1      42.410  -8.668   1.660  1.00  0.00     0.158 HD
HETATM   35  H   UNL     1      40.752  -9.098   1.718  1.00  0.00     0.158 HD
ENDBRANCH  32  33
ENDBRANCH  26  28
BRANCH  27  36
HETATM   36  C   UNL     1      42.109 -12.178   4.130  1.00  0.00     0.295 C 
BRANCH  36  37
HETATM   37  N   UNL     1      42.779 -13.499   4.424  1.00  0.00    -0.073 N 
HETATM   38  H   UNL     1      42.018 -14.193   4.569  1.00  0.00     0.279 HD
HETATM   39  C   UNL     1      43.641 -14.000   3.303  1.00  0.00     0.269 C 
HETATM   40  C   UNL     1      43.532 -13.466   5.724  1.00  0.00     0.269 C 
ENDBRANCH  36  37
ENDBRANCH  27  36
ENDBRANCH   2  23
TORSDOF 10
ENDMDL
MODEL 5
REMARK VINA RESULT:      -8.3      4.692      7.829
REMARK  10 active torsions:
REMARK  status: ('A' for Active; 'I' for Inactive)
REMARK    1  A    between atoms: C_2  and  C_3 
REMARK    2  A    between atoms: C_4  and  O_5 
REMARK    3  A    between atoms: C_6  and  C_7 
REMARK    4  A    between atoms: C_12  and  C_13 
REMARK    5  A    between atoms: N_14  and  N_15 
REMARK       I    between atoms: N_15  and  C_16 
REMARK    6  A    between atoms: C_16  and  C_17 
REMARK    7  A    between atoms: N_20  and  C_21 
REMARK    8  A    between atoms: C_25  and  N_26 
REMARK    9  A    between atoms: C_27  and  C_28 
REMARK   10  A    between atoms: C_28  and  N_29 
ROOT
HETATM    1  N   UNL     1      41.979 -15.581  -0.426  1.00  0.00    -0.145 NA
HETATM    2  C   UNL     1      40.791 -14.862  -0.462  1.00  0.00     0.273 C 
HETATM    3  O   UNL     1      40.261 -14.585  -1.543  1.00  0.00    -0.270 OA
HETATM    4  H   UNL     1      42.216 -15.879  -1.371  1.00  0.00     0.158 HD
ENDROOT
BRANCH   1   5
HETATM    5  N   UNL     1      42.103 -16.628   0.457  1.00  0.00    -0.205 NA
HETATM    6  C   UNL     1      43.153 -16.543   1.215  1.00  0.00     0.144 C 
BRANCH   6   7
HETATM    7  C   UNL     1      43.479 -17.569   2.225  1.00  0.00    -0.016 A 
HETATM    8  C   UNL     1      43.599 -18.910   1.865  1.00  0.00     0.023 A 
HETATM    9  C   UNL     1      43.931 -19.888   2.818  1.00  0.00    -0.016 A 
HETATM   10  C   UNL     1      44.093 -19.446   4.159  1.00  0.00     0.079 A 
HETATM   11  C   UNL     1      43.935 -18.095   4.569  1.00  0.00    -0.016 A 
HETATM   12  C   UNL     1      43.660 -17.166   3.549  1.00  0.00     0.023 A 
BRANCH   9  13
HETATM   13  C   UNL     1      44.116 -21.369   2.400  1.00  0.00    -0.021 C 
HETATM   14  C   UNL     1      45.333 -21.511   1.460  1.00  0.00     0.019 C 
HETATM   15  C   UNL     1      44.379 -22.325   3.596  1.00  0.00     0.019 C 
HETATM   16  C   UNL     1      42.845 -21.910   1.705  1.00  0.00     0.019 C 
ENDBRANCH   9  13
BRANCH  10  17
HETATM   17  O   UNL     1      44.411 -20.407   5.078  1.00  0.00    -0.360 OA
HETATM   18  H   UNL     1      44.766 -19.970   5.867  1.00  0.00     0.217 HD
ENDBRANCH  10  17
BRANCH  11  19
HETATM   19  C   UNL     1      44.035 -17.614   6.040  1.00  0.00    -0.021 C 
HETATM   20  C   UNL     1      43.792 -16.092   6.106  1.00  0.00     0.019 C 
HETATM   21  C   UNL     1      45.401 -17.961   6.681  1.00  0.00     0.019 C 
HETATM   22  C   UNL     1      42.976 -18.271   6.971  1.00  0.00     0.019 C 
ENDBRANCH  11  19
ENDBRANCH   6   7
ENDBRANCH   1   5
BRANCH   2  23
HETATM   23  C   UNL     1      40.188 -14.404   0.792  1.00  0.00     0.170 C 
HETATM   24  N   UNL     1      38.978 -14.826   1.260  1.00  0.00    -0.124 NA
HETATM   25  N   UNL     1      38.766 -14.276   2.440  1.00  0.00    -0.058 NA
HETATM   26  N   UNL     1      39.865 -13.573   2.806  1.00  0.00    -0.191 N 
HETATM   27  C   UNL     1      40.751 -13.531   1.722  1.00  0.00     0.101 C 
BRANCH  26  28
HETATM   28  C   UNL     1      40.010 -13.043   4.113  1.00  0.00     0.229 A 
HETATM   29  N   UNL     1      40.239 -11.741   4.292  1.00  0.00    -0.081 NA
HETATM   30  O   UNL     1      40.358 -11.610   5.677  1.00  0.00    -0.103 OA
HETATM   31  N   UNL     1      40.193 -12.833   6.312  1.00  0.00    -0.083 NA
HETATM   32  C   UNL     1      39.984 -13.722   5.344  1.00  0.00     0.201 A 
BRANCH  32  33
HETATM   33  N   UNL     1      39.772 -15.033   5.546  1.00  0.00    -0.379 N 
HETATM   34  H   UNL     1      38.833 -15.369   5.746  1.00  0.00     0.158 HD
HETATM   35  H   UNL     1      40.516 -15.693   5.761  1.00  0.00     0.158 HD
ENDBRANCH  32  33
ENDBRANCH  26  28
BRANCH  27  36
HETATM   36  C   UNL     1      42.029 -12.771   1.743  1.00  0.00     0.295 C 
BRANCH  36  37
HETATM   37  N   UNL     1      42.057 -11.508   0.915  1.00  0.00    -0.073 N 
HETATM   38  H   UNL     1      42.752 -10.876   1.360  1.00  0.00     0.279 HD
HETATM   39  C   UNL     1      42.487 -11.728  -0.505  1.00  0.00     0.269 C 
HETATM   40  C   UNL     1      40.752 -10.765   0.985  1.00  0.00     0.269 C 
ENDBRANCH  36  37
ENDBRANCH  27  36
ENDBRANCH   2  23
TORSDOF 10
ENDMDL
MODEL 6
REMARK VINA RESULT:      -8.3      4.656      7.556
REMARK  10 active torsions:
REMARK  status: ('A' for Active; 'I' for Inactive)
REMARK    1  A    between atoms: C_2  and  C_3 
REMARK    2  A    between atoms: C_4  and  O_5 
REMARK    3  A    between atoms: C_6  and  C_7 
REMARK    4  A    between atoms: C_12  and  C_13 
REMARK    5  A    between atoms: N_14  and  N_15 
REMARK       I    between atoms: N_15  and  C_16 
REMARK    6  A    between atoms: C_16  and  C_17 
REMARK    7  A    between atoms: N_20  and  C_21 
REMARK    8  A    between atoms: C_25  and  N_26 
REMARK    9  A    between atoms: C_27  and  C_28 
REMARK   10  A    between atoms: C_28  and  N_29 
ROOT
HETATM    1  N   UNL     1      41.965 -15.634  -0.367  1.00  0.00    -0.145 NA
HETATM    2  C   UNL     1      40.774 -14.921  -0.415  1.00  0.00     0.273 C 
HETATM    3  O   UNL     1      40.236 -14.677  -1.499  1.00  0.00    -0.270 OA
HETATM    4  H   UNL     1      42.197 -15.957  -1.305  1.00  0.00     0.158 HD
ENDROOT
BRANCH   1   5
HETATM    5  N   UNL     1      42.100 -16.655   0.544  1.00  0.00    -0.205 NA
HETATM    6  C   UNL     1      43.126 -16.517   1.328  1.00  0.00     0.144 C 
BRANCH   6   7
HETATM    7  C   UNL     1      43.458 -17.507   2.371  1.00  0.00    -0.016 A 
HETATM    8  C   UNL     1      43.645 -17.112   3.694  1.00  0.00     0.023 A 
HETATM    9  C   UNL     1      43.940 -18.053   4.695  1.00  0.00    -0.016 A 
HETATM   10  C   UNL     1      44.077 -19.406   4.282  1.00  0.00     0.079 A 
HETATM   11  C   UNL     1      43.936 -19.837   2.936  1.00  0.00    -0.016 A 
HETATM   12  C   UNL     1      43.585 -18.847   2.000  1.00  0.00     0.023 A 
BRANCH   9  13
HETATM   13  C   UNL     1      44.093 -17.614   6.174  1.00  0.00    -0.021 C 
HETATM   14  C   UNL     1      45.487 -18.010   6.708  1.00  0.00     0.019 C 
HETATM   15  C   UNL     1      43.969 -16.080   6.383  1.00  0.00     0.019 C 
HETATM   16  C   UNL     1      42.990 -18.246   7.055  1.00  0.00     0.019 C 
ENDBRANCH   9  13
BRANCH  10  17
HETATM   17  O   UNL     1      44.368 -20.312   5.264  1.00  0.00    -0.360 OA
HETATM   18  H   UNL     1      43.874 -20.067   6.062  1.00  0.00     0.217 HD
ENDBRANCH  10  17
BRANCH  11  19
HETATM   19  C   UNL     1      44.158 -21.298   2.462  1.00  0.00    -0.021 C 
HETATM   20  C   UNL     1      45.440 -21.376   1.607  1.00  0.00     0.019 C 
HETATM   21  C   UNL     1      42.952 -21.846   1.660  1.00  0.00     0.019 C 
HETATM   22  C   UNL     1      44.349 -22.299   3.636  1.00  0.00     0.019 C 
ENDBRANCH  11  19
ENDBRANCH   6   7
ENDBRANCH   1   5
BRANCH   2  23
HETATM   23  C   UNL     1      40.178 -14.431   0.830  1.00  0.00     0.170 C 
HETATM   24  N   UNL     1      38.966 -14.833   1.310  1.00  0.00    -0.124 NA
HETATM   25  N   UNL     1      38.761 -14.256   2.478  1.00  0.00    -0.058 NA
HETATM   26  N   UNL     1      39.866 -13.552   2.826  1.00  0.00    -0.191 N 
HETATM   27  C   UNL     1      40.750 -13.541   1.739  1.00  0.00     0.101 C 
BRANCH  26  28
HETATM   28  C   UNL     1      40.018 -12.995   4.120  1.00  0.00     0.229 A 
HETATM   29  N   UNL     1      40.281 -11.695   4.268  1.00  0.00    -0.081 NA
HETATM   30  O   UNL     1      40.395 -11.533   5.651  1.00  0.00    -0.103 OA
HETATM   31  N   UNL     1      40.195 -12.736   6.315  1.00  0.00    -0.083 NA
HETATM   32  C   UNL     1      39.968 -13.642   5.367  1.00  0.00     0.201 A 
BRANCH  32  33
HETATM   33  N   UNL     1      39.720 -14.942   5.600  1.00  0.00    -0.379 N 
HETATM   34  H   UNL     1      39.160 -15.215   6.403  1.00  0.00     0.158 HD
HETATM   35  H   UNL     1      40.255 -15.697   5.177  1.00  0.00     0.158 HD
ENDBRANCH  32  33
ENDBRANCH  26  28
BRANCH  27  36
HETATM   36  C   UNL     1      42.033 -12.791   1.740  1.00  0.00     0.295 C 
BRANCH  36  37
HETATM   37  N   UNL     1      42.063 -11.537   0.898  1.00  0.00    -0.073 N 
HETATM   38  H   UNL     1      42.772 -10.908   1.325  1.00  0.00     0.279 HD
HETATM   39  C   UNL     1      42.471 -11.777  -0.526  1.00  0.00     0.269 C 
HETATM   40  C   UNL     1      40.767 -10.780   0.978  1.00  0.00     0.269 C 
ENDBRANCH  36  37
ENDBRANCH  27  36
ENDBRANCH   2  23
TORSDOF 10
ENDMDL
MODEL 7
REMARK VINA RESULT:      -8.2      1.238      2.412
REMARK  10 active torsions:
REMARK  status: ('A' for Active; 'I' for Inactive)
REMARK    1  A    between atoms: C_2  and  C_3 
REMARK    2  A    between atoms: C_4  and  O_5 
REMARK    3  A    between atoms: C_6  and  C_7 
REMARK    4  A    between atoms: C_12  and  C_13 
REMARK    5  A    between atoms: N_14  and  N_15 
REMARK       I    between atoms: N_15  and  C_16 
REMARK    6  A    between atoms: C_16  and  C_17 
REMARK    7  A    between atoms: N_20  and  C_21 
REMARK    8  A    between atoms: C_25  and  N_26 
REMARK    9  A    between atoms: C_27  and  C_28 
REMARK   10  A    between atoms: C_28  and  N_29 
ROOT
HETATM    1  N   UNL     1      45.205 -12.640   9.635  1.00  0.00    -0.145 NA
HETATM    2  C   UNL     1      45.062 -11.258   9.611  1.00  0.00     0.273 C 
HETATM    3  O   UNL     1      46.056 -10.529   9.532  1.00  0.00    -0.270 OA
HETATM    4  H   UNL     1      46.185 -12.875   9.481  1.00  0.00     0.158 HD
ENDROOT
BRANCH   1   5
HETATM    5  N   UNL     1      44.392 -13.412   8.841  1.00  0.00    -0.205 NA
HETATM    6  C   UNL     1      44.803 -13.504   7.613  1.00  0.00     0.144 C 
BRANCH   6   7
HETATM    7  C   UNL     1      44.069 -14.278   6.593  1.00  0.00    -0.016 A 
HETATM    8  C   UNL     1      43.118 -13.664   5.780  1.00  0.00     0.023 A 
HETATM    9  C   UNL     1      42.431 -14.392   4.793  1.00  0.00    -0.016 A 
HETATM   10  C   UNL     1      42.727 -15.779   4.698  1.00  0.00     0.079 A 
HETATM   11  C   UNL     1      43.658 -16.445   5.538  1.00  0.00    -0.016 A 
HETATM   12  C   UNL     1      44.346 -15.640   6.464  1.00  0.00     0.023 A 
BRANCH   9  13
HETATM   13  C   UNL     1      41.414 -13.690   3.857  1.00  0.00    -0.021 C 
HETATM   14  C   UNL     1      41.380 -12.173   4.146  1.00  0.00     0.019 C 
HETATM   15  C   UNL     1      41.753 -13.836   2.349  1.00  0.00     0.019 C 
HETATM   16  C   UNL     1      40.000 -14.292   4.027  1.00  0.00     0.019 C 
ENDBRANCH   9  13
BRANCH  10  17
HETATM   17  O   UNL     1      42.050 -16.477   3.737  1.00  0.00    -0.360 OA
HETATM   18  H   UNL     1      41.266 -15.966   3.484  1.00  0.00     0.217 HD
ENDBRANCH  10  17
BRANCH  11  19
HETATM   19  C   UNL     1      43.932 -17.972   5.494  1.00  0.00    -0.021 C 
HETATM   20  C   UNL     1      44.175 -18.413   4.036  1.00  0.00     0.019 C 
HETATM   21  C   UNL     1      42.776 -18.795   6.112  1.00  0.00     0.019 C 
HETATM   22  C   UNL     1      45.196 -18.390   6.298  1.00  0.00     0.019 C 
ENDBRANCH  11  19
ENDBRANCH   6   7
ENDBRANCH   1   5
BRANCH   2  23
HETATM   23  C   UNL     1      43.724 -10.672   9.715  1.00  0.00     0.170 C 
HETATM   24  N   UNL     1      42.953 -10.327   8.644  1.00  0.00    -0.124 NA
HETATM   25  N   UNL     1      41.788  -9.895   9.083  1.00  0.00    -0.058 NA
HETATM   26  N   UNL     1      41.738 -10.042  10.430  1.00  0.00    -0.191 N 
HETATM   27  C   UNL     1      43.007 -10.424  10.885  1.00  0.00     0.101 C 
BRANCH  26  28
HETATM   28  C   UNL     1      40.536  -9.855  11.157  1.00  0.00     0.229 A 
HETATM   29  N   UNL     1      39.925  -8.669  11.158  1.00  0.00    -0.081 NA
HETATM   30  O   UNL     1      38.823  -8.862  11.994  1.00  0.00    -0.103 OA
HETATM   31  N   UNL     1      38.783 -10.162  12.479  1.00  0.00    -0.083 NA
HETATM   32  C   UNL     1      39.846 -10.776  11.966  1.00  0.00     0.201 A 
BRANCH  32  33
HETATM   33  N   UNL     1      40.167 -12.061  12.192  1.00  0.00    -0.379 N 
HETATM   34  H   UNL     1      39.554 -12.644  12.756  1.00  0.00     0.158 HD
HETATM   35  H   UNL     1      41.102 -12.437  12.050  1.00  0.00     0.158 HD
ENDBRANCH  32  33
ENDBRANCH  26  28
BRANCH  27  36
HETATM   36  C   UNL     1      43.338 -10.597  12.323  1.00  0.00     0.295 C 
BRANCH  36  37
HETATM   37  N   UNL     1      43.386  -9.330  13.145  1.00  0.00    -0.073 N 
HETATM   38  H   UNL     1      44.355  -9.248  13.510  1.00  0.00     0.279 HD
HETATM   39  C   UNL     1      43.093  -8.089  12.354  1.00  0.00     0.269 C 
HETATM   40  C   UNL     1      42.514  -9.423  14.365  1.00  0.00     0.269 C 
ENDBRANCH  36  37
ENDBRANCH  27  36
ENDBRANCH   2  23
TORSDOF 10
ENDMDL
MODEL 8
REMARK VINA RESULT:      -8.2      6.424      9.881
REMARK  10 active torsions:
REMARK  status: ('A' for Active; 'I' for Inactive)
REMARK    1  A    between atoms: C_2  and  C_3 
REMARK    2  A    between atoms: C_4  and  O_5 
REMARK    3  A    between atoms: C_6  and  C_7 
REMARK    4  A    between atoms: C_12  and  C_13 
REMARK    5  A    between atoms: N_14  and  N_15 
REMARK       I    between atoms: N_15  and  C_16 
REMARK    6  A    between atoms: C_16  and  C_17 
REMARK    7  A    between atoms: N_20  and  C_21 
REMARK    8  A    between atoms: C_25  and  N_26 
REMARK    9  A    between atoms: C_27  and  C_28 
REMARK   10  A    between atoms: C_28  and  N_29 
ROOT
HETATM    1  N   UNL     1      42.318 -11.937   1.372  1.00  0.00    -0.145 NA
HETATM    2  C   UNL     1      42.510 -11.422   0.095  1.00  0.00     0.273 C 
HETATM    3  O   UNL     1      43.000 -10.300  -0.058  1.00  0.00    -0.270 OA
HETATM    4  H   UNL     1      42.727 -11.297   2.052  1.00  0.00     0.158 HD
ENDROOT
BRANCH   1   5
HETATM    5  N   UNL     1      42.696 -13.232   1.637  1.00  0.00    -0.205 NA
HETATM    6  C   UNL     1      42.567 -13.563   2.885  1.00  0.00     0.144 C 
BRANCH   6   7
HETATM    7  C   UNL     1      42.926 -14.905   3.384  1.00  0.00    -0.016 A 
HETATM    8  C   UNL     1      42.955 -16.001   2.524  1.00  0.00     0.023 A 
HETATM    9  C   UNL     1      43.317 -17.276   2.989  1.00  0.00    -0.016 A 
HETATM   10  C   UNL     1      43.607 -17.394   4.375  1.00  0.00     0.079 A 
HETATM   11  C   UNL     1      43.545 -16.308   5.289  1.00  0.00    -0.016 A 
HETATM   12  C   UNL     1      43.231 -15.052   4.739  1.00  0.00     0.023 A 
BRANCH   9  13
HETATM   13  C   UNL     1      43.401 -18.479   2.015  1.00  0.00    -0.021 C 
HETATM   14  C   UNL     1      43.842 -18.003   0.613  1.00  0.00     0.019 C 
HETATM   15  C   UNL     1      44.428 -19.560   2.448  1.00  0.00     0.019 C 
HETATM   16  C   UNL     1      42.040 -19.209   1.921  1.00  0.00     0.019 C 
ENDBRANCH   9  13
BRANCH  10  17
HETATM   17  O   UNL     1      43.954 -18.641   4.817  1.00  0.00    -0.360 OA
HETATM   18  H   UNL     1      44.921 -18.712   4.804  1.00  0.00     0.217 HD
ENDBRANCH  10  17
BRANCH  11  19
HETATM   19  C   UNL     1      43.785 -16.440   6.816  1.00  0.00    -0.021 C 
HETATM   20  C   UNL     1      42.544 -17.070   7.483  1.00  0.00     0.019 C 
HETATM   21  C   UNL     1      44.111 -15.080   7.480  1.00  0.00     0.019 C 
HETATM   22  C   UNL     1      44.989 -17.359   7.169  1.00  0.00     0.019 C 
ENDBRANCH  11  19
ENDBRANCH   6   7
ENDBRANCH   1   5
BRANCH   2  23
HETATM   23  C   UNL     1      42.092 -12.209  -1.067  1.00  0.00     0.170 C 
HETATM   24  N   UNL     1      42.913 -12.535  -2.107  1.00  0.00    -0.124 NA
HETATM   25  N   UNL     1      42.247 -13.302  -2.948  1.00  0.00    -0.058 NA
HETATM   26  N   UNL     1      41.024 -13.572  -2.429  1.00  0.00    -0.191 N 
HETATM   27  C   UNL     1      40.842 -12.790  -1.281  1.00  0.00     0.101 C 
BRANCH  26  28
HETATM   28  C   UNL     1      40.165 -14.538  -3.010  1.00  0.00     0.229 A 
HETATM   29  N   UNL     1      40.506 -15.828  -3.019  1.00  0.00    -0.081 NA
HETATM   30  O   UNL     1      39.451 -16.448  -3.693  1.00  0.00    -0.103 OA
HETATM   31  N   UNL     1      38.489 -15.524  -4.075  1.00  0.00    -0.083 NA
HETATM   32  C   UNL     1      38.932 -14.340  -3.658  1.00  0.00     0.201 A 
BRANCH  32  33
HETATM   33  N   UNL     1      38.280 -13.179  -3.830  1.00  0.00    -0.379 N 
HETATM   34  H   UNL     1      38.779 -12.364  -4.177  1.00  0.00     0.158 HD
HETATM   35  H   UNL     1      37.377 -12.977  -3.407  1.00  0.00     0.158 HD
ENDBRANCH  32  33
ENDBRANCH  26  28
BRANCH  27  36
HETATM   36  C   UNL     1      39.578 -12.771  -0.500  1.00  0.00     0.295 C 
BRANCH  36  37
HETATM   37  N   UNL     1      39.679 -13.255   0.927  1.00  0.00    -0.073 N 
HETATM   38  H   UNL     1      40.653 -13.070   1.236  1.00  0.00     0.279 HD
HETATM   39  C   UNL     1      38.760 -12.539   1.872  1.00  0.00     0.269 C 
HETATM   40  C   UNL     1      39.513 -14.745   1.024  1.00  0.00     0.269 C 
ENDBRANCH  36  37
ENDBRANCH  27  36
ENDBRANCH   2  23
TORSDOF 10
ENDMDL
MODEL 9
REMARK VINA RESULT:      -8.1      6.456      9.943
REMARK  10 active torsions:
REMARK  status: ('A' for Active; 'I' for Inactive)
REMARK    1  A    between atoms: C_2  and  C_3 
REMARK    2  A    between atoms: C_4  and  O_5 
REMARK    3  A    between atoms: C_6  and  C_7 
REMARK    4  A    between atoms: C_12  and  C_13 
REMARK    5  A    between atoms: N_14  and  N_15 
REMARK       I    between atoms: N_15  and  C_16 
REMARK    6  A    between atoms: C_16  and  C_17 
REMARK    7  A    between atoms: N_20  and  C_21 
REMARK    8  A    between atoms: C_25  and  N_26 
REMARK    9  A    between atoms: C_27  and  C_28 
REMARK   10  A    between atoms: C_28  and  N_29 
ROOT
HETATM    1  N   UNL     1      42.213 -11.968   1.228  1.00  0.00    -0.145 NA
HETATM    2  C   UNL     1      42.510 -11.540  -0.060  1.00  0.00     0.273 C 
HETATM    3  O   UNL     1      43.135 -10.490  -0.240  1.00  0.00    -0.270 OA
HETATM    4  H   UNL     1      42.669 -11.349   1.897  1.00  0.00     0.158 HD
ENDROOT
BRANCH   1   5
HETATM    5  N   UNL     1      42.425 -13.284   1.562  1.00  0.00    -0.205 NA
HETATM    6  C   UNL     1      42.716 -13.459   2.816  1.00  0.00     0.144 C 
BRANCH   6   7
HETATM    7  C   UNL     1      42.990 -14.794   3.381  1.00  0.00    -0.016 A 
HETATM    8  C   UNL     1      43.275 -14.949   4.737  1.00  0.00     0.023 A 
HETATM    9  C   UNL     1      43.516 -16.221   5.284  1.00  0.00    -0.016 A 
HETATM   10  C   UNL     1      43.495 -17.321   4.384  1.00  0.00     0.079 A 
HETATM   11  C   UNL     1      43.251 -17.194   2.990  1.00  0.00    -0.016 A 
HETATM   12  C   UNL     1      42.963 -15.898   2.526  1.00  0.00     0.023 A 
BRANCH   9  13
HETATM   13  C   UNL     1      43.778 -16.392   6.803  1.00  0.00    -0.021 C 
HETATM   14  C   UNL     1      42.558 -17.048   7.486  1.00  0.00     0.019 C 
HETATM   15  C   UNL     1      44.996 -17.300   7.125  1.00  0.00     0.019 C 
HETATM   16  C   UNL     1      44.086 -15.029   7.466  1.00  0.00     0.019 C 
ENDBRANCH   9  13
BRANCH  10  17
HETATM   17  O   UNL     1      43.734 -18.552   4.928  1.00  0.00    -0.360 OA
HETATM   18  H   UNL     1      44.489 -18.949   4.467  1.00  0.00     0.217 HD
ENDBRANCH  10  17
BRANCH  11  19
HETATM   19  C   UNL     1      43.301 -18.377   1.987  1.00  0.00    -0.021 C 
HETATM   20  C   UNL     1      41.897 -19.002   1.852  1.00  0.00     0.019 C 
HETATM   21  C   UNL     1      44.325 -19.460   2.405  1.00  0.00     0.019 C 
HETATM   22  C   UNL     1      43.732 -17.946   0.556  1.00  0.00     0.019 C 
ENDBRANCH  11  19
ENDBRANCH   6   7
ENDBRANCH   1   5
BRANCH   2  23
HETATM   23  C   UNL     1      42.045 -12.326  -1.205  1.00  0.00     0.170 C 
HETATM   24  N   UNL     1      42.847 -12.736  -2.229  1.00  0.00    -0.124 NA
HETATM   25  N   UNL     1      42.134 -13.477  -3.055  1.00  0.00    -0.058 NA
HETATM   26  N   UNL     1      40.893 -13.647  -2.538  1.00  0.00    -0.191 N 
HETATM   27  C   UNL     1      40.759 -12.823  -1.413  1.00  0.00     0.101 C 
BRANCH  26  28
HETATM   28  C   UNL     1      39.971 -14.565  -3.100  1.00  0.00     0.229 A 
HETATM   29  N   UNL     1      40.242 -15.871  -3.114  1.00  0.00    -0.081 NA
HETATM   30  O   UNL     1      39.142 -16.434  -3.765  1.00  0.00    -0.103 OA
HETATM   31  N   UNL     1      38.223 -15.460  -4.130  1.00  0.00    -0.083 NA
HETATM   32  C   UNL     1      38.738 -14.302  -3.725  1.00  0.00     0.201 A 
BRANCH  32  33
HETATM   33  N   UNL     1      38.146 -13.107  -3.886  1.00  0.00    -0.379 N 
HETATM   34  H   UNL     1      37.965 -12.518  -3.077  1.00  0.00     0.158 HD
HETATM   35  H   UNL     1      37.637 -12.844  -4.727  1.00  0.00     0.158 HD
ENDBRANCH  32  33
ENDBRANCH  26  28
BRANCH  27  36
HETATM   36  C   UNL     1      39.495 -12.695  -0.642  1.00  0.00     0.295 C 
BRANCH  36  37
HETATM   37  N   UNL     1      39.537 -13.202   0.780  1.00  0.00    -0.073 N 
HETATM   38  H   UNL     1      40.496 -13.016   1.134  1.00  0.00     0.279 HD
HETATM   39  C   UNL     1      38.573 -12.507   1.696  1.00  0.00     0.269 C 
HETATM   40  C   UNL     1      39.377 -14.695   0.845  1.00  0.00     0.269 C 
ENDBRANCH  36  37
ENDBRANCH  27  36
ENDBRANCH   2  23
TORSDOF 10
ENDMDL
MODEL 10
REMARK VINA RESULT:      -7.9      5.640      9.176
REMARK  10 active torsions:
REMARK  status: ('A' for Active; 'I' for Inactive)
REMARK    1  A    between atoms: C_2  and  C_3 
REMARK    2  A    between atoms: C_4  and  O_5 
REMARK    3  A    between atoms: C_6  and  C_7 
REMARK    4  A    between atoms: C_12  and  C_13 
REMARK    5  A    between atoms: N_14  and  N_15 
REMARK       I    between atoms: N_15  and  C_16 
REMARK    6  A    between atoms: C_16  and  C_17 
REMARK    7  A    between atoms: N_20  and  C_21 
REMARK    8  A    between atoms: C_25  and  N_26 
REMARK    9  A    between atoms: C_27  and  C_28 
REMARK   10  A    between atoms: C_28  and  N_29 
ROOT
HETATM    1  N   UNL     1      39.646 -13.020   4.247  1.00  0.00    -0.145 NA
HETATM    2  C   UNL     1      39.276 -12.270   3.137  1.00  0.00     0.273 C 
HETATM    3  O   UNL     1      39.032 -11.065   3.250  1.00  0.00    -0.270 OA
HETATM    4  H   UNL     1      39.759 -12.396   5.046  1.00  0.00     0.158 HD
ENDROOT
BRANCH   1   5
HETATM    5  N   UNL     1      40.713 -13.880   4.150  1.00  0.00    -0.205 NA
HETATM    6  C   UNL     1      40.452 -15.078   4.578  1.00  0.00     0.144 C 
BRANCH   6   7
HETATM    7  C   UNL     1      41.463 -16.153   4.572  1.00  0.00    -0.016 A 
HETATM    8  C   UNL     1      42.162 -16.481   5.733  1.00  0.00     0.023 A 
HETATM    9  C   UNL     1      43.110 -17.518   5.737  1.00  0.00    -0.016 A 
HETATM   10  C   UNL     1      43.345 -18.178   4.501  1.00  0.00     0.079 A 
HETATM   11  C   UNL     1      42.682 -17.841   3.290  1.00  0.00    -0.016 A 
HETATM   12  C   UNL     1      41.707 -16.831   3.376  1.00  0.00     0.023 A 
BRANCH   9  13
HETATM   13  C   UNL     1      43.844 -17.913   7.045  1.00  0.00    -0.021 C 
HETATM   14  C   UNL     1      43.370 -17.021   8.214  1.00  0.00     0.019 C 
HETATM   15  C   UNL     1      43.584 -19.379   7.486  1.00  0.00     0.019 C 
HETATM   16  C   UNL     1      45.376 -17.793   6.877  1.00  0.00     0.019 C 
ENDBRANCH   9  13
BRANCH  10  17
HETATM   17  O   UNL     1      44.272 -19.183   4.517  1.00  0.00    -0.360 OA
HETATM   18  H   UNL     1      45.147 -18.793   4.373  1.00  0.00     0.217 HD
ENDBRANCH  10  17
BRANCH  11  19
HETATM   19  C   UNL     1      42.985 -18.502   1.919  1.00  0.00    -0.021 C 
HETATM   20  C   UNL     1      44.261 -17.880   1.314  1.00  0.00     0.019 C 
HETATM   21  C   UNL     1      41.806 -18.364   0.926  1.00  0.00     0.019 C 
HETATM   22  C   UNL     1      43.247 -20.032   2.023  1.00  0.00     0.019 C 
ENDBRANCH  11  19
ENDBRANCH   6   7
ENDBRANCH   1   5
BRANCH   2  23
HETATM   23  C   UNL     1      39.145 -12.929   1.836  1.00  0.00     0.170 C 
HETATM   24  N   UNL     1      38.029 -13.598   1.425  1.00  0.00    -0.124 NA
HETATM   25  N   UNL     1      38.215 -14.009   0.186  1.00  0.00    -0.058 NA
HETATM   26  N   UNL     1      39.402 -13.536  -0.266  1.00  0.00    -0.191 N 
HETATM   27  C   UNL     1      40.083 -12.941   0.804  1.00  0.00     0.101 C 
BRANCH  26  28
HETATM   28  C   UNL     1      39.777 -13.642  -1.629  1.00  0.00     0.229 A 
HETATM   29  N   UNL     1      39.612 -12.609  -2.457  1.00  0.00    -0.081 NA
HETATM   30  O   UNL     1      40.051 -13.096  -3.690  1.00  0.00    -0.103 OA
HETATM   31  N   UNL     1      40.477 -14.413  -3.586  1.00  0.00    -0.083 NA
HETATM   32  C   UNL     1      40.302 -14.754  -2.312  1.00  0.00     0.201 A 
BRANCH  32  33
HETATM   33  N   UNL     1      40.602 -15.957  -1.797  1.00  0.00    -0.379 N 
HETATM   34  H   UNL     1      41.149 -16.619  -2.341  1.00  0.00     0.158 HD
HETATM   35  H   UNL     1      40.116 -16.361  -0.999  1.00  0.00     0.158 HD
ENDBRANCH  32  33
ENDBRANCH  26  28
BRANCH  27  36
HETATM   36  C   UNL     1      41.456 -12.386   0.688  1.00  0.00     0.295 C 
BRANCH  36  37
HETATM   37  N   UNL     1      41.597 -11.152  -0.173  1.00  0.00    -0.073 N 
HETATM   38  H   UNL     1      40.800 -11.162  -0.840  1.00  0.00     0.279 HD
HETATM   39  C   UNL     1      41.524  -9.868   0.599  1.00  0.00     0.269 C 
HETATM   40  C   UNL     1      42.828 -11.208  -1.032  1.00  0.00     0.269 C 
ENDBRANCH  36  37
ENDBRANCH  27  36
ENDBRANCH   2  23
TORSDOF 10
ENDMDL
