MODEL 1
REMARK VINA RESULT:      -8.1      0.000      0.000
REMARK  6 active torsions:
REMARK  status: ('A' for Active; 'I' for Inactive)
REMARK    1  A    between atoms: C_2  and  C_3 
REMARK    2  A    between atoms: C_8  and  C_9 
REMARK    3  A    between atoms: C_9  and  N_10 
REMARK    4  A    between atoms: N_10  and  C_12 
REMARK    5  A    between atoms: C_12  and  C_13 
REMARK       I    between atoms: C_13  and  N_14 
REMARK    6  A    between atoms: N_14  and  C_15 
ROOT
HETATM    1  N   UNL     1      42.842 -14.941   3.329  1.00  0.00    -0.063 N 
HETATM    2  H   UNL     1      43.826 -15.113   3.572  1.00  0.00     0.280 HD
HETATM    3  C   UNL     1      42.748 -13.589   2.686  1.00  0.00     0.270 C 
ENDROOT
BRANCH   1   4
HETATM    4  C   UNL     1      42.097 -15.021   4.666  1.00  0.00     0.277 C 
BRANCH   4   5
HETATM    5  C   UNL     1      42.981 -14.694   5.826  1.00  0.00     0.012 A 
HETATM    6  C   UNL     1      43.651 -15.542   6.784  1.00  0.00     0.071 A 
HETATM    7  N   UNL     1      44.371 -14.796   7.637  1.00  0.00    -0.178 NA
HETATM    8  N   UNL     1      44.114 -13.531   7.330  1.00  0.00    -0.288 N 
HETATM    9  H   UNL     1      44.531 -12.802   7.904  1.00  0.00     0.188 HD
HETATM   10  C   UNL     1      43.300 -13.411   6.247  1.00  0.00     0.120 A 
BRANCH   6  11
HETATM   11  C   UNL     1      43.701 -17.057   7.029  1.00  0.00    -0.004 C 
HETATM   12  C   UNL     1      42.542 -17.743   6.268  1.00  0.00     0.021 C 
HETATM   13  C   UNL     1      43.540 -17.349   8.540  1.00  0.00     0.021 C 
HETATM   14  C   UNL     1      44.994 -17.737   6.570  1.00  0.00     0.021 C 
ENDBRANCH   6  11
ENDBRANCH   4   5
ENDBRANCH   1   4
BRANCH   1  15
HETATM   15  C   UNL     1      42.413 -16.034   2.344  1.00  0.00     0.337 C 
BRANCH  15  16
HETATM   16  C   UNL     1      43.429 -17.172   2.257  1.00  0.00     0.248 C 
HETATM   17  N   UNL     1      43.046 -18.292   2.978  1.00  0.00    -0.326 N 
HETATM   18  H   UNL     1      42.331 -18.188   3.691  1.00  0.00     0.169 HD
HETATM   19  O   UNL     1      44.406 -17.063   1.526  1.00  0.00    -0.271 OA
BRANCH  17  20
HETATM   20  C   UNL     1      43.606 -19.587   2.890  1.00  0.00     0.040 A 
HETATM   21  C   UNL     1      43.477 -20.425   1.782  1.00  0.00     0.072 A 
HETATM   22  C   UNL     1      44.011 -21.715   1.817  1.00  0.00     0.121 A 
HETATM   23  F   UNL     1      43.860 -22.511   0.752  1.00  0.00    -0.206 F 
HETATM   24  C   UNL     1      44.680 -22.191   2.932  1.00  0.00     0.084 A 
HETATM   25  C   UNL     1      44.818 -21.351   4.024  1.00  0.00     0.121 A 
HETATM   26  F   UNL     1      45.456 -21.785   5.119  1.00  0.00    -0.206 F 
HETATM   27  C   UNL     1      44.293 -20.060   4.015  1.00  0.00     0.072 A 
ENDBRANCH  17  20
ENDBRANCH  15  16
ENDBRANCH   1  15
TORSDOF 6
ENDMDL
MODEL 2
REMARK VINA RESULT:      -8.1      2.009      4.142
REMARK  6 active torsions:
REMARK  status: ('A' for Active; 'I' for Inactive)
REMARK    1  A    between atoms: C_2  and  C_3 
REMARK    2  A    between atoms: C_8  and  C_9 
REMARK    3  A    between atoms: C_9  and  N_10 
REMARK    4  A    between atoms: N_10  and  C_12 
REMARK    5  A    between atoms: C_12  and  C_13 
REMARK       I    between atoms: C_13  and  N_14 
REMARK    6  A    between atoms: N_14  and  C_15 
ROOT
HETATM    1  N   UNL     1      42.394 -15.418   4.559  1.00  0.00    -0.063 N 
HETATM    2  H   UNL     1      41.754 -15.917   3.928  1.00  0.00     0.280 HD
HETATM    3  C   UNL     1      41.570 -14.634   5.537  1.00  0.00     0.270 C 
ENDROOT
BRANCH   1   4
HETATM    4  C   UNL     1      43.231 -14.530   3.632  1.00  0.00     0.277 C 
BRANCH   4   5
HETATM    5  C   UNL     1      42.450 -14.050   2.452  1.00  0.00     0.012 A 
HETATM    6  C   UNL     1      41.832 -14.766   1.361  1.00  0.00     0.071 A 
HETATM    7  N   UNL     1      41.203 -13.908   0.543  1.00  0.00    -0.178 NA
HETATM    8  N   UNL     1      41.473 -12.693   1.002  1.00  0.00    -0.288 N 
HETATM    9  H   UNL     1      41.124 -11.892   0.479  1.00  0.00     0.188 HD
HETATM   10  C   UNL     1      42.204 -12.718   2.148  1.00  0.00     0.120 A 
BRANCH   6  11
HETATM   11  C   UNL     1      41.755 -16.244   0.953  1.00  0.00    -0.004 C 
HETATM   12  C   UNL     1      41.303 -16.350  -0.523  1.00  0.00     0.021 C 
HETATM   13  C   UNL     1      40.722 -16.980   1.839  1.00  0.00     0.021 C 
HETATM   14  C   UNL     1      43.077 -17.009   1.065  1.00  0.00     0.021 C 
ENDBRANCH   6  11
ENDBRANCH   4   5
ENDBRANCH   1   4
BRANCH   1  15
HETATM   15  C   UNL     1      43.234 -16.471   5.289  1.00  0.00     0.337 C 
BRANCH  15  16
HETATM   16  C   UNL     1      42.994 -17.882   4.754  1.00  0.00     0.248 C 
HETATM   17  N   UNL     1      44.120 -18.431   4.160  1.00  0.00    -0.326 N 
HETATM   18  H   UNL     1      44.871 -17.808   3.878  1.00  0.00     0.169 HD
HETATM   19  O   UNL     1      41.921 -18.438   4.958  1.00  0.00    -0.271 OA
BRANCH  17  20
HETATM   20  C   UNL     1      44.319 -19.787   3.817  1.00  0.00     0.040 A 
HETATM   21  C   UNL     1      44.072 -20.322   2.551  1.00  0.00     0.072 A 
HETATM   22  C   UNL     1      44.236 -21.690   2.328  1.00  0.00     0.121 A 
HETATM   23  F   UNL     1      43.975 -22.187   1.112  1.00  0.00    -0.206 F 
HETATM   24  C   UNL     1      44.646 -22.545   3.338  1.00  0.00     0.084 A 
HETATM   25  C   UNL     1      44.903 -22.008   4.588  1.00  0.00     0.121 A 
HETATM   26  F   UNL     1      45.296 -22.810   5.586  1.00  0.00    -0.206 F 
HETATM   27  C   UNL     1      44.746 -20.646   4.837  1.00  0.00     0.072 A 
ENDBRANCH  17  20
ENDBRANCH  15  16
ENDBRANCH   1  15
TORSDOF 6
ENDMDL
MODEL 3
REMARK VINA RESULT:      -8.1      0.140      1.889
REMARK  6 active torsions:
REMARK  status: ('A' for Active; 'I' for Inactive)
REMARK    1  A    between atoms: C_2  and  C_3 
REMARK    2  A    between atoms: C_8  and  C_9 
REMARK    3  A    between atoms: C_9  and  N_10 
REMARK    4  A    between atoms: N_10  and  C_12 
REMARK    5  A    between atoms: C_12  and  C_13 
REMARK       I    between atoms: C_13  and  N_14 
REMARK    6  A    between atoms: N_14  and  C_15 
ROOT
HETATM    1  N   UNL     1      42.958 -14.984   3.226  1.00  0.00    -0.063 N 
HETATM    2  H   UNL     1      43.942 -15.133   3.487  1.00  0.00     0.280 HD
HETATM    3  C   UNL     1      42.831 -13.605   2.651  1.00  0.00     0.270 C 
ENDROOT
BRANCH   1   4
HETATM    4  C   UNL     1      42.184 -15.160   4.537  1.00  0.00     0.277 C 
BRANCH   4   5
HETATM    5  C   UNL     1      43.001 -14.788   5.731  1.00  0.00     0.012 A 
HETATM    6  C   UNL     1      43.613 -15.596   6.759  1.00  0.00     0.071 A 
HETATM    7  N   UNL     1      44.285 -14.817   7.621  1.00  0.00    -0.178 NA
HETATM    8  N   UNL     1      44.049 -13.565   7.250  1.00  0.00    -0.288 N 
HETATM    9  H   UNL     1      44.433 -12.814   7.818  1.00  0.00     0.188 HD
HETATM   10  C   UNL     1      43.297 -13.488   6.119  1.00  0.00     0.120 A 
BRANCH   6  11
HETATM   11  C   UNL     1      43.647 -17.101   7.066  1.00  0.00    -0.004 C 
HETATM   12  C   UNL     1      44.970 -17.706   6.541  1.00  0.00     0.021 C 
HETATM   13  C   UNL     1      42.467 -17.806   6.357  1.00  0.00     0.021 C 
HETATM   14  C   UNL     1      43.560 -17.452   8.554  1.00  0.00     0.021 C 
ENDBRANCH   6  11
ENDBRANCH   4   5
ENDBRANCH   1   4
BRANCH   1  15
HETATM   15  C   UNL     1      42.596 -16.040   2.176  1.00  0.00     0.337 C 
BRANCH  15  16
HETATM   16  C   UNL     1      43.557 -17.227   2.187  1.00  0.00     0.248 C 
HETATM   17  N   UNL     1      43.137 -18.251   3.021  1.00  0.00    -0.326 N 
HETATM   18  H   UNL     1      42.443 -18.043   3.732  1.00  0.00     0.169 HD
HETATM   19  O   UNL     1      44.522 -17.238   1.432  1.00  0.00    -0.271 OA
BRANCH  17  20
HETATM   20  C   UNL     1      43.636 -19.573   3.054  1.00  0.00     0.040 A 
HETATM   21  C   UNL     1      44.334 -20.123   4.130  1.00  0.00     0.072 A 
HETATM   22  C   UNL     1      44.846 -21.419   4.041  1.00  0.00     0.121 A 
HETATM   23  F   UNL     1      45.530 -21.921   5.076  1.00  0.00    -0.206 F 
HETATM   24  C   UNL     1      44.675 -22.188   2.901  1.00  0.00     0.084 A 
HETATM   25  C   UNL     1      43.970 -21.644   1.841  1.00  0.00     0.121 A 
HETATM   26  F   UNL     1      43.791 -22.361   0.725  1.00  0.00    -0.206 F 
HETATM   27  C   UNL     1      43.449 -20.352   1.906  1.00  0.00     0.072 A 
ENDBRANCH  17  20
ENDBRANCH  15  16
ENDBRANCH   1  15
TORSDOF 6
ENDMDL
MODEL 4
REMARK VINA RESULT:      -7.9      2.295      4.528
REMARK  6 active torsions:
REMARK  status: ('A' for Active; 'I' for Inactive)
REMARK    1  A    between atoms: C_2  and  C_3 
REMARK    2  A    between atoms: C_8  and  C_9 
REMARK    3  A    between atoms: C_9  and  N_10 
REMARK    4  A    between atoms: N_10  and  C_12 
REMARK    5  A    between atoms: C_12  and  C_13 
REMARK       I    between atoms: C_13  and  N_14 
REMARK    6  A    between atoms: N_14  and  C_15 
ROOT
HETATM    1  N   UNL     1      42.543 -15.413   5.019  1.00  0.00    -0.063 N 
HETATM    2  H   UNL     1      41.596 -15.749   5.239  1.00  0.00     0.280 HD
HETATM    3  C   UNL     1      42.758 -14.115   5.738  1.00  0.00     0.270 C 
ENDROOT
BRANCH   1   4
HETATM    4  C   UNL     1      42.551 -15.262   3.494  1.00  0.00     0.277 C 
BRANCH   4   5
HETATM    5  C   UNL     1      41.194 -15.454   2.899  1.00  0.00     0.012 A 
HETATM    6  C   UNL     1      40.118 -14.523   2.655  1.00  0.00     0.071 A 
HETATM    7  N   UNL     1      39.089 -15.151   2.065  1.00  0.00    -0.178 NA
HETATM    8  N   UNL     1      39.418 -16.435   2.013  1.00  0.00    -0.288 N 
HETATM    9  H   UNL     1      38.737 -17.093   1.641  1.00  0.00     0.188 HD
HETATM   10  C   UNL     1      40.671 -16.672   2.486  1.00  0.00     0.120 A 
BRANCH   6  11
HETATM   11  C   UNL     1      39.908 -13.027   2.929  1.00  0.00    -0.004 C 
HETATM   12  C   UNL     1      38.660 -12.530   2.161  1.00  0.00     0.021 C 
HETATM   13  C   UNL     1      41.138 -12.227   2.440  1.00  0.00     0.021 C 
HETATM   14  C   UNL     1      39.690 -12.671   4.403  1.00  0.00     0.021 C 
ENDBRANCH   6  11
ENDBRANCH   4   5
ENDBRANCH   1   4
BRANCH   1  15
HETATM   15  C   UNL     1      43.533 -16.472   5.515  1.00  0.00     0.337 C 
BRANCH  15  16
HETATM   16  C   UNL     1      43.211 -17.867   4.982  1.00  0.00     0.248 C 
HETATM   17  N   UNL     1      44.265 -18.431   4.279  1.00  0.00    -0.326 N 
HETATM   18  H   UNL     1      45.002 -17.822   3.940  1.00  0.00     0.169 HD
HETATM   19  O   UNL     1      42.148 -18.402   5.273  1.00  0.00    -0.271 OA
BRANCH  17  20
HETATM   20  C   UNL     1      44.398 -19.786   3.899  1.00  0.00     0.040 A 
HETATM   21  C   UNL     1      44.101 -20.277   2.627  1.00  0.00     0.072 A 
HETATM   22  C   UNL     1      44.201 -21.645   2.366  1.00  0.00     0.121 A 
HETATM   23  F   UNL     1      43.893 -22.099   1.145  1.00  0.00    -0.206 F 
HETATM   24  C   UNL     1      44.598 -22.541   3.345  1.00  0.00     0.084 A 
HETATM   25  C   UNL     1      44.905 -22.048   4.602  1.00  0.00     0.121 A 
HETATM   26  F   UNL     1      45.287 -22.890   5.570  1.00  0.00    -0.206 F 
HETATM   27  C   UNL     1      44.812 -20.687   4.887  1.00  0.00     0.072 A 
ENDBRANCH  17  20
ENDBRANCH  15  16
ENDBRANCH   1  15
TORSDOF 6
ENDMDL
MODEL 5
REMARK VINA RESULT:      -7.7      2.987      5.855
REMARK  6 active torsions:
REMARK  status: ('A' for Active; 'I' for Inactive)
REMARK    1  A    between atoms: C_2  and  C_3 
REMARK    2  A    between atoms: C_8  and  C_9 
REMARK    3  A    between atoms: C_9  and  N_10 
REMARK    4  A    between atoms: N_10  and  C_12 
REMARK    5  A    between atoms: C_12  and  C_13 
REMARK       I    between atoms: C_13  and  N_14 
REMARK    6  A    between atoms: N_14  and  C_15 
ROOT
HETATM    1  N   UNL     1      42.060 -14.960   2.769  1.00  0.00    -0.063 N 
HETATM    2  H   UNL     1      41.240 -15.026   3.387  1.00  0.00     0.280 HD
HETATM    3  C   UNL     1      42.423 -13.512   2.626  1.00  0.00     0.270 C 
ENDROOT
BRANCH   1   4
HETATM    4  C   UNL     1      41.600 -15.596   1.453  1.00  0.00     0.277 C 
BRANCH   4   5
HETATM    5  C   UNL     1      40.288 -15.050   0.989  1.00  0.00     0.012 A 
HETATM    6  C   UNL     1      39.906 -14.402  -0.243  1.00  0.00     0.071 A 
HETATM    7  N   UNL     1      38.596 -14.111  -0.225  1.00  0.00    -0.178 NA
HETATM    8  N   UNL     1      38.158 -14.449   0.980  1.00  0.00    -0.288 N 
HETATM    9  H   UNL     1      37.186 -14.255   1.212  1.00  0.00     0.188 HD
HETATM   10  C   UNL     1      39.123 -15.028   1.744  1.00  0.00     0.120 A 
BRANCH   6  11
HETATM   11  C   UNL     1      40.658 -13.983  -1.515  1.00  0.00    -0.004 C 
HETATM   12  C   UNL     1      39.745 -13.084  -2.383  1.00  0.00     0.021 C 
HETATM   13  C   UNL     1      41.038 -15.238  -2.336  1.00  0.00     0.021 C 
HETATM   14  C   UNL     1      41.946 -13.194  -1.267  1.00  0.00     0.021 C 
ENDBRANCH   6  11
ENDBRANCH   4   5
ENDBRANCH   1   4
BRANCH   1  15
HETATM   15  C   UNL     1      43.201 -15.736   3.436  1.00  0.00     0.337 C 
BRANCH  15  16
HETATM   16  C   UNL     1      42.913 -17.234   3.525  1.00  0.00     0.248 C 
HETATM   17  N   UNL     1      43.923 -18.010   2.976  1.00  0.00    -0.326 N 
HETATM   18  H   UNL     1      44.582 -17.568   2.342  1.00  0.00     0.169 HD
HETATM   19  O   UNL     1      41.921 -17.631   4.124  1.00  0.00    -0.271 OA
BRANCH  17  20
HETATM   20  C   UNL     1      44.100 -19.403   3.135  1.00  0.00     0.040 A 
HETATM   21  C   UNL     1      44.583 -20.005   4.297  1.00  0.00     0.072 A 
HETATM   22  C   UNL     1      44.787 -21.386   4.334  1.00  0.00     0.121 A 
HETATM   23  F   UNL     1      45.269 -21.943   5.452  1.00  0.00    -0.206 F 
HETATM   24  C   UNL     1      44.515 -22.188   3.237  1.00  0.00     0.084 A 
HETATM   25  C   UNL     1      44.024 -21.588   2.091  1.00  0.00     0.121 A 
HETATM   26  F   UNL     1      43.756 -22.336   1.013  1.00  0.00    -0.206 F 
HETATM   27  C   UNL     1      43.812 -20.211   2.028  1.00  0.00     0.072 A 
ENDBRANCH  17  20
ENDBRANCH  15  16
ENDBRANCH   1  15
TORSDOF 6
ENDMDL
MODEL 6
REMARK VINA RESULT:      -7.6      2.462      5.583
REMARK  6 active torsions:
REMARK  status: ('A' for Active; 'I' for Inactive)
REMARK    1  A    between atoms: C_2  and  C_3 
REMARK    2  A    between atoms: C_8  and  C_9 
REMARK    3  A    between atoms: C_9  and  N_10 
REMARK    4  A    between atoms: N_10  and  C_12 
REMARK    5  A    between atoms: C_12  and  C_13 
REMARK       I    between atoms: C_13  and  N_14 
REMARK    6  A    between atoms: N_14  and  C_15 
ROOT
HETATM    1  N   UNL     1      42.014 -15.287   3.736  1.00  0.00    -0.063 N 
HETATM    2  H   UNL     1      41.301 -15.934   3.375  1.00  0.00     0.280 HD
HETATM    3  C   UNL     1      41.373 -14.415   4.773  1.00  0.00     0.270 C 
ENDROOT
BRANCH   1   4
HETATM    4  C   UNL     1      42.483 -14.507   2.503  1.00  0.00     0.277 C 
BRANCH   4   5
HETATM    5  C   UNL     1      41.893 -15.041   1.238  1.00  0.00     0.012 A 
HETATM    6  C   UNL     1      41.325 -14.370   0.092  1.00  0.00     0.071 A 
HETATM    7  N   UNL     1      40.949 -15.269  -0.830  1.00  0.00    -0.178 NA
HETATM    8  N   UNL     1      41.158 -16.463  -0.291  1.00  0.00    -0.288 N 
HETATM    9  H   UNL     1      40.883 -17.287  -0.821  1.00  0.00     0.188 HD
HETATM   10  C   UNL     1      41.733 -16.387   0.940  1.00  0.00     0.120 A 
BRANCH   6  11
HETATM   11  C   UNL     1      41.061 -12.902  -0.272  1.00  0.00    -0.004 C 
HETATM   12  C   UNL     1      40.081 -12.282   0.752  1.00  0.00     0.021 C 
HETATM   13  C   UNL     1      40.422 -12.818  -1.679  1.00  0.00     0.021 C 
HETATM   14  C   UNL     1      42.307 -12.011  -0.285  1.00  0.00     0.021 C 
ENDBRANCH   6  11
ENDBRANCH   4   5
ENDBRANCH   1   4
BRANCH   1  15
HETATM   15  C   UNL     1      43.128 -16.134   4.361  1.00  0.00     0.337 C 
BRANCH  15  16
HETATM   16  C   UNL     1      42.880 -17.634   4.201  1.00  0.00     0.248 C 
HETATM   17  N   UNL     1      43.955 -18.299   3.631  1.00  0.00    -0.326 N 
HETATM   18  H   UNL     1      44.650 -17.755   3.129  1.00  0.00     0.169 HD
HETATM   19  O   UNL     1      41.855 -18.134   4.647  1.00  0.00    -0.271 OA
BRANCH  17  20
HETATM   20  C   UNL     1      44.162 -19.696   3.596  1.00  0.00     0.040 A 
HETATM   21  C   UNL     1      44.604 -20.453   4.682  1.00  0.00     0.072 A 
HETATM   22  C   UNL     1      44.843 -21.820   4.529  1.00  0.00     0.121 A 
HETATM   23  F   UNL     1      45.286 -22.524   5.577  1.00  0.00    -0.206 F 
HETATM   24  C   UNL     1      44.645 -22.458   3.316  1.00  0.00     0.084 A 
HETATM   25  C   UNL     1      44.192 -21.707   2.244  1.00  0.00     0.121 A 
HETATM   26  F   UNL     1      43.996 -22.295   1.057  1.00  0.00    -0.206 F 
HETATM   27  C   UNL     1      43.948 -20.341   2.371  1.00  0.00     0.072 A 
ENDBRANCH  17  20
ENDBRANCH  15  16
ENDBRANCH   1  15
TORSDOF 6
ENDMDL
MODEL 7
REMARK VINA RESULT:      -7.4      2.267      4.089
REMARK  6 active torsions:
REMARK  status: ('A' for Active; 'I' for Inactive)
REMARK    1  A    between atoms: C_2  and  C_3 
REMARK    2  A    between atoms: C_8  and  C_9 
REMARK    3  A    between atoms: C_9  and  N_10 
REMARK    4  A    between atoms: N_10  and  C_12 
REMARK    5  A    between atoms: C_12  and  C_13 
REMARK       I    between atoms: C_13  and  N_14 
REMARK    6  A    between atoms: N_14  and  C_15 
ROOT
HETATM    1  N   UNL     1      41.776 -15.923   1.925  1.00  0.00    -0.063 N 
HETATM    2  H   UNL     1      41.477 -14.950   1.777  1.00  0.00     0.280 HD
HETATM    3  C   UNL     1      41.776 -16.619   0.597  1.00  0.00     0.270 C 
ENDROOT
BRANCH   1   4
HETATM    4  C   UNL     1      40.744 -16.496   2.902  1.00  0.00     0.277 C 
BRANCH   4   5
HETATM    5  C   UNL     1      40.597 -15.655   4.128  1.00  0.00     0.012 A 
HETATM    6  C   UNL     1      40.242 -14.265   4.296  1.00  0.00     0.071 A 
HETATM    7  N   UNL     1      40.203 -13.952   5.600  1.00  0.00    -0.178 NA
HETATM    8  N   UNL     1      40.606 -15.035   6.253  1.00  0.00    -0.288 N 
HETATM    9  H   UNL     1      40.696 -14.981   7.265  1.00  0.00     0.188 HD
HETATM   10  C   UNL     1      40.843 -16.087   5.424  1.00  0.00     0.120 A 
BRANCH   6  11
HETATM   11  C   UNL     1      39.923 -13.113   3.331  1.00  0.00    -0.004 C 
HETATM   12  C   UNL     1      41.242 -12.500   2.804  1.00  0.00     0.021 C 
HETATM   13  C   UNL     1      39.130 -12.013   4.074  1.00  0.00     0.021 C 
HETATM   14  C   UNL     1      39.102 -13.516   2.103  1.00  0.00     0.021 C 
ENDBRANCH   6  11
ENDBRANCH   4   5
ENDBRANCH   1   4
BRANCH   1  15
HETATM   15  C   UNL     1      43.191 -15.884   2.511  1.00  0.00     0.337 C 
BRANCH  15  16
HETATM   16  C   UNL     1      43.929 -17.211   2.343  1.00  0.00     0.248 C 
HETATM   17  N   UNL     1      43.664 -18.108   3.367  1.00  0.00    -0.326 N 
HETATM   18  H   UNL     1      43.274 -17.751   4.233  1.00  0.00     0.169 HD
HETATM   19  O   UNL     1      44.586 -17.420   1.330  1.00  0.00    -0.271 OA
BRANCH  17  20
HETATM   20  C   UNL     1      43.957 -19.490   3.377  1.00  0.00     0.040 A 
HETATM   21  C   UNL     1      44.535 -20.162   4.455  1.00  0.00     0.072 A 
HETATM   22  C   UNL     1      44.848 -21.519   4.344  1.00  0.00     0.121 A 
HETATM   23  F   UNL     1      45.420 -22.141   5.382  1.00  0.00    -0.206 F 
HETATM   24  C   UNL     1      44.595 -22.228   3.182  1.00  0.00     0.084 A 
HETATM   25  C   UNL     1      44.009 -21.560   2.119  1.00  0.00     0.121 A 
HETATM   26  F   UNL     1      43.756 -22.217   0.981  1.00  0.00    -0.206 F 
HETATM   27  C   UNL     1      43.687 -20.206   2.205  1.00  0.00     0.072 A 
ENDBRANCH  17  20
ENDBRANCH  15  16
ENDBRANCH   1  15
TORSDOF 6
ENDMDL
MODEL 8
REMARK VINA RESULT:      -7.4      2.894      5.370
REMARK  6 active torsions:
REMARK  status: ('A' for Active; 'I' for Inactive)
REMARK    1  A    between atoms: C_2  and  C_3 
REMARK    2  A    between atoms: C_8  and  C_9 
REMARK    3  A    between atoms: C_9  and  N_10 
REMARK    4  A    between atoms: N_10  and  C_12 
REMARK    5  A    between atoms: C_12  and  C_13 
REMARK       I    between atoms: C_13  and  N_14 
REMARK    6  A    between atoms: N_14  and  C_15 
ROOT
HETATM    1  N   UNL     1      41.341 -15.508   4.363  1.00  0.00    -0.063 N 
HETATM    2  H   UNL     1      40.667 -16.186   3.984  1.00  0.00     0.280 HD
HETATM    3  C   UNL     1      40.869 -15.090   5.724  1.00  0.00     0.270 C 
ENDROOT
BRANCH   1   4
HETATM    4  C   UNL     1      41.341 -14.359   3.349  1.00  0.00     0.277 C 
BRANCH   4   5
HETATM    5  C   UNL     1      40.077 -14.307   2.554  1.00  0.00     0.012 A 
HETATM    6  C   UNL     1      39.147 -13.230   2.308  1.00  0.00     0.071 A 
HETATM    7  N   UNL     1      38.163 -13.646   1.496  1.00  0.00    -0.178 NA
HETATM    8  N   UNL     1      38.368 -14.941   1.298  1.00  0.00    -0.288 N 
HETATM    9  H   UNL     1      37.689 -15.458   0.743  1.00  0.00     0.188 HD
HETATM   10  C   UNL     1      39.505 -15.388   1.896  1.00  0.00     0.120 A 
BRANCH   6  11
HETATM   11  C   UNL     1      39.047 -11.769   2.772  1.00  0.00    -0.004 C 
HETATM   12  C   UNL     1      40.305 -10.994   2.312  1.00  0.00     0.021 C 
HETATM   13  C   UNL     1      38.970 -11.714   4.316  1.00  0.00     0.021 C 
HETATM   14  C   UNL     1      37.835 -11.007   2.228  1.00  0.00     0.021 C 
ENDBRANCH   6  11
ENDBRANCH   4   5
ENDBRANCH   1   4
BRANCH   1  15
HETATM   15  C   UNL     1      42.698 -16.214   4.460  1.00  0.00     0.337 C 
BRANCH  15  16
HETATM   16  C   UNL     1      42.579 -17.730   4.311  1.00  0.00     0.248 C 
HETATM   17  N   UNL     1      43.663 -18.293   3.655  1.00  0.00    -0.326 N 
HETATM   18  H   UNL     1      44.263 -17.688   3.104  1.00  0.00     0.169 HD
HETATM   19  O   UNL     1      41.642 -18.323   4.833  1.00  0.00    -0.271 OA
BRANCH  17  20
HETATM   20  C   UNL     1      43.995 -19.665   3.596  1.00  0.00     0.040 A 
HETATM   21  C   UNL     1      44.516 -20.394   4.665  1.00  0.00     0.072 A 
HETATM   22  C   UNL     1      44.876 -21.732   4.489  1.00  0.00     0.121 A 
HETATM   23  F   UNL     1      45.392 -22.409   5.522  1.00  0.00    -0.206 F 
HETATM   24  C   UNL     1      44.724 -22.367   3.267  1.00  0.00     0.084 A 
HETATM   25  C   UNL     1      44.194 -21.644   2.212  1.00  0.00     0.121 A 
HETATM   26  F   UNL     1      44.040 -22.229   1.018  1.00  0.00    -0.206 F 
HETATM   27  C   UNL     1      43.828 -20.308   2.363  1.00  0.00     0.072 A 
ENDBRANCH  17  20
ENDBRANCH  15  16
ENDBRANCH   1  15
TORSDOF 6
ENDMDL
MODEL 9
REMARK VINA RESULT:      -7.3      2.509      4.043
REMARK  6 active torsions:
REMARK  status: ('A' for Active; 'I' for Inactive)
REMARK    1  A    between atoms: C_2  and  C_3 
REMARK    2  A    between atoms: C_8  and  C_9 
REMARK    3  A    between atoms: C_9  and  N_10 
REMARK    4  A    between atoms: N_10  and  C_12 
REMARK    5  A    between atoms: C_12  and  C_13 
REMARK       I    between atoms: C_13  and  N_14 
REMARK    6  A    between atoms: N_14  and  C_15 
ROOT
HETATM    1  N   UNL     1      42.058 -14.955   2.973  1.00  0.00    -0.063 N 
HETATM    2  H   UNL     1      42.087 -15.596   3.776  1.00  0.00     0.280 HD
HETATM    3  C   UNL     1      43.165 -13.956   3.132  1.00  0.00     0.270 C 
ENDROOT
BRANCH   1   4
HETATM    4  C   UNL     1      40.664 -14.320   3.040  1.00  0.00     0.277 C 
BRANCH   4   5
HETATM    5  C   UNL     1      40.289 -13.925   4.431  1.00  0.00     0.012 A 
HETATM    6  C   UNL     1      39.836 -12.667   4.977  1.00  0.00     0.071 A 
HETATM    7  N   UNL     1      39.584 -12.797   6.289  1.00  0.00    -0.178 NA
HETATM    8  N   UNL     1      39.944 -14.031   6.615  1.00  0.00    -0.288 N 
HETATM    9  H   UNL     1      39.878 -14.310   7.592  1.00  0.00     0.188 HD
HETATM   10  C   UNL     1      40.361 -14.755   5.542  1.00  0.00     0.120 A 
BRANCH   6  11
HETATM   11  C   UNL     1      39.601 -11.265   4.396  1.00  0.00    -0.004 C 
HETATM   12  C   UNL     1      38.442 -11.317   3.372  1.00  0.00     0.021 C 
HETATM   13  C   UNL     1      40.878 -10.779   3.670  1.00  0.00     0.021 C 
HETATM   14  C   UNL     1      39.230 -10.198   5.429  1.00  0.00     0.021 C 
ENDBRANCH   6  11
ENDBRANCH   4   5
ENDBRANCH   1   4
BRANCH   1  15
HETATM   15  C   UNL     1      42.268 -15.793   1.707  1.00  0.00     0.337 C 
BRANCH  15  16
HETATM   16  C   UNL     1      43.317 -16.886   1.899  1.00  0.00     0.248 C 
HETATM   17  N   UNL     1      42.840 -17.970   2.620  1.00  0.00    -0.326 N 
HETATM   18  H   UNL     1      42.000 -17.848   3.178  1.00  0.00     0.169 HD
HETATM   19  O   UNL     1      44.411 -16.785   1.356  1.00  0.00    -0.271 OA
BRANCH  17  20
HETATM   20  C   UNL     1      43.447 -19.240   2.739  1.00  0.00     0.040 A 
HETATM   21  C   UNL     1      43.413 -20.222   1.749  1.00  0.00     0.072 A 
HETATM   22  C   UNL     1      43.987 -21.473   1.986  1.00  0.00     0.121 A 
HETATM   23  F   UNL     1      43.927 -22.409   1.031  1.00  0.00    -0.206 F 
HETATM   24  C   UNL     1      44.601 -21.770   3.191  1.00  0.00     0.084 A 
HETATM   25  C   UNL     1      44.645 -20.788   4.166  1.00  0.00     0.121 A 
HETATM   26  F   UNL     1      45.228 -21.047   5.343  1.00  0.00    -0.206 F 
HETATM   27  C   UNL     1      44.079 -19.532   3.954  1.00  0.00     0.072 A 
ENDBRANCH  17  20
ENDBRANCH  15  16
ENDBRANCH   1  15
TORSDOF 6
ENDMDL
MODEL 10
REMARK VINA RESULT:      -7.3      2.283      4.723
REMARK  6 active torsions:
REMARK  status: ('A' for Active; 'I' for Inactive)
REMARK    1  A    between atoms: C_2  and  C_3 
REMARK    2  A    between atoms: C_8  and  C_9 
REMARK    3  A    between atoms: C_9  and  N_10 
REMARK    4  A    between atoms: N_10  and  C_12 
REMARK    5  A    between atoms: C_12  and  C_13 
REMARK       I    between atoms: C_13  and  N_14 
REMARK    6  A    between atoms: N_14  and  C_15 
ROOT
HETATM    1  N   UNL     1      41.276 -15.080   5.147  1.00  0.00    -0.063 N 
HETATM    2  H   UNL     1      40.488 -15.662   4.834  1.00  0.00     0.280 HD
HETATM    3  C   UNL     1      40.781 -14.160   6.222  1.00  0.00     0.270 C 
ENDROOT
BRANCH   1   4
HETATM    4  C   UNL     1      41.729 -14.338   3.885  1.00  0.00     0.277 C 
BRANCH   4   5
HETATM    5  C   UNL     1      40.685 -14.353   2.815  1.00  0.00     0.012 A 
HETATM    6  C   UNL     1      40.556 -15.150   1.618  1.00  0.00     0.071 A 
HETATM    7  N   UNL     1      39.424 -14.833   0.971  1.00  0.00    -0.178 NA
HETATM    8  N   UNL     1      38.886 -13.820   1.640  1.00  0.00    -0.288 N 
HETATM    9  H   UNL     1      38.037 -13.397   1.273  1.00  0.00     0.188 HD
HETATM   10  C   UNL     1      39.591 -13.500   2.758  1.00  0.00     0.120 A 
BRANCH   6  11
HETATM   11  C   UNL     1      41.416 -16.233   0.950  1.00  0.00    -0.004 C 
HETATM   12  C   UNL     1      41.359 -16.064  -0.587  1.00  0.00     0.021 C 
HETATM   13  C   UNL     1      40.868 -17.633   1.312  1.00  0.00     0.021 C 
HETATM   14  C   UNL     1      42.896 -16.208   1.342  1.00  0.00     0.021 C 
ENDBRANCH   6  11
ENDBRANCH   4   5
ENDBRANCH   1   4
BRANCH   1  15
HETATM   15  C   UNL     1      42.353 -16.021   5.700  1.00  0.00     0.337 C 
BRANCH  15  16
HETATM   16  C   UNL     1      42.309 -17.403   5.049  1.00  0.00     0.248 C 
HETATM   17  N   UNL     1      43.558 -17.844   4.639  1.00  0.00    -0.326 N 
HETATM   18  H   UNL     1      44.302 -17.162   4.535  1.00  0.00     0.169 HD
HETATM   19  O   UNL     1      41.258 -18.032   5.022  1.00  0.00    -0.271 OA
BRANCH  17  20
HETATM   20  C   UNL     1      43.907 -19.160   4.261  1.00  0.00     0.040 A 
HETATM   21  C   UNL     1      44.469 -20.102   5.122  1.00  0.00     0.072 A 
HETATM   22  C   UNL     1      44.842 -21.358   4.637  1.00  0.00     0.121 A 
HETATM   23  F   UNL     1      45.398 -22.241   5.475  1.00  0.00    -0.206 F 
HETATM   24  C   UNL     1      44.663 -21.702   3.307  1.00  0.00     0.084 A 
HETATM   25  C   UNL     1      44.091 -20.769   2.458  1.00  0.00     0.121 A 
HETATM   26  F   UNL     1      43.909 -21.071   1.167  1.00  0.00    -0.206 F 
HETATM   27  C   UNL     1      43.712 -19.509   2.919  1.00  0.00     0.072 A 
ENDBRANCH  17  20
ENDBRANCH  15  16
ENDBRANCH   1  15
TORSDOF 6
ENDMDL
