MODEL 1
REMARK VINA RESULT:      -8.7      0.000      0.000
REMARK  9 active torsions:
REMARK  status: ('A' for Active; 'I' for Inactive)
REMARK    1  A    between atoms: O_2  and  C_3 
REMARK    2  A    between atoms: C_6  and  C_7 
REMARK    3  A    between atoms: C_13  and  C_14 
REMARK       I    between atoms: C_14  and  N_15 
REMARK    4  A    between atoms: N_15  and  N_16 
REMARK    5  A    between atoms: N_16  and  C_17 
REMARK    6  A    between atoms: C_17  and  N_18 
REMARK    7  A    between atoms: N_18  and  C_19 
REMARK    8  A    between atoms: C_19  and  C_20 
REMARK    9  A    between atoms: C_27  and  C_28 
ROOT
HETATM    1  C   UNL     1      41.063 -17.008   5.068  1.00  0.00     0.118 C 
HETATM    2  N   UNL     1      40.334 -16.289   4.031  1.00  0.00    -0.365 N 
HETATM    3  C   UNL     1      40.684 -15.042   3.634  1.00  0.00     0.138 A 
HETATM    4  N   UNL     1      41.573 -14.296   4.358  1.00  0.00    -0.240 N 
HETATM    5  N   UNL     1      41.715 -13.038   3.906  1.00  0.00    -0.181 NA
HETATM    6  C   UNL     1      40.963 -13.033   2.799  1.00  0.00     0.160 A 
HETATM    7  C   UNL     1      40.306 -14.264   2.557  1.00  0.00     0.098 A 
HETATM    8  C   UNL     1      42.239 -14.755   5.561  1.00  0.00     0.221 C 
HETATM    9  C   UNL     1      41.526 -15.995   6.137  1.00  0.00     0.066 C 
HETATM   10  H   UNL     1      39.721 -16.853   3.437  1.00  0.00     0.161 HD
ENDROOT
BRANCH   7  11
HETATM   11  C   UNL     1      39.388 -14.664   1.506  1.00  0.00     0.275 C 
HETATM   12  N   UNL     1      39.765 -14.531   0.177  1.00  0.00    -0.263 N 
HETATM   13  H   UNL     1      39.089 -14.980  -0.437  1.00  0.00     0.190 HD
HETATM   14  O   UNL     1      38.264 -15.105   1.752  1.00  0.00    -0.266 OA
BRANCH  12  15
HETATM   15  N   UNL     1      41.103 -14.675  -0.245  1.00  0.00    -0.274 N 
HETATM   16  H   UNL     1      41.638 -15.440   0.154  1.00  0.00     0.189 HD
BRANCH  15  17
HETATM   17  C   UNL     1      41.708 -13.738  -1.045  1.00  0.00     0.186 C 
HETATM   18  S   UNL     1      42.149 -12.196  -0.574  1.00  0.00    -0.040 SA
BRANCH  17  19
HETATM   19  N   UNL     1      41.997 -14.116  -2.321  1.00  0.00    -0.360 N 
HETATM   20  H   UNL     1      42.662 -14.879  -2.384  1.00  0.00     0.162 HD
BRANCH  19  21
HETATM   21  C   UNL     1      41.321 -13.735  -3.547  1.00  0.00     0.187 C 
BRANCH  21  22
HETATM   22  C   UNL     1      40.022 -14.435  -3.639  1.00  0.00     0.070 A 
HETATM   23  O   UNL     1      40.049 -15.713  -4.118  1.00  0.00    -0.325 OA
HETATM   24  C   UNL     1      38.767 -16.165  -4.106  1.00  0.00     0.142 A 
HETATM   25  C   UNL     1      37.917 -15.190  -3.642  1.00  0.00     0.027 A 
HETATM   26  C   UNL     1      38.726 -14.068  -3.340  1.00  0.00     0.036 A 
ENDBRANCH  21  22
ENDBRANCH  19  21
ENDBRANCH  17  19
ENDBRANCH  15  17
ENDBRANCH  12  15
ENDBRANCH   7  11
BRANCH   1  27
HETATM   27  C   UNL     1      42.147 -17.916   4.511  1.00  0.00    -0.035 A 
HETATM   28  C   UNL     1      42.354 -18.091   3.133  1.00  0.00     0.012 A 
HETATM   29  C   UNL     1      43.358 -18.940   2.655  1.00  0.00     0.037 A 
HETATM   30  C   UNL     1      44.179 -19.639   3.536  1.00  0.00     0.068 A 
HETATM   31  C   UNL     1      43.967 -19.506   4.907  1.00  0.00     0.037 A 
HETATM   32  C   UNL     1      42.957 -18.661   5.387  1.00  0.00     0.012 A 
BRANCH  30  33
HETATM   33  O   UNL     1      45.128 -20.421   2.942  1.00  0.00    -0.356 OA
HETATM   34  C   UNL     1      44.670 -21.619   2.327  1.00  0.00     0.210 C 
ENDBRANCH  30  33
ENDBRANCH   1  27
BRANCH   8  35
HETATM   35  C   UNL     1      43.713 -14.967   5.294  1.00  0.00     0.409 C 
HETATM   36  F   UNL     1      44.293 -15.882   6.089  1.00  0.00    -0.169 F 
HETATM   37  F   UNL     1      43.946 -15.339   4.012  1.00  0.00    -0.169 F 
HETATM   38  F   UNL     1      44.389 -13.800   5.469  1.00  0.00    -0.169 F 
ENDBRANCH   8  35
TORSDOF 9
ENDMDL
MODEL 2
REMARK VINA RESULT:      -8.5      4.344      7.961
REMARK  9 active torsions:
REMARK  status: ('A' for Active; 'I' for Inactive)
REMARK    1  A    between atoms: O_2  and  C_3 
REMARK    2  A    between atoms: C_6  and  C_7 
REMARK    3  A    between atoms: C_13  and  C_14 
REMARK       I    between atoms: C_14  and  N_15 
REMARK    4  A    between atoms: N_15  and  N_16 
REMARK    5  A    between atoms: N_16  and  C_17 
REMARK    6  A    between atoms: C_17  and  N_18 
REMARK    7  A    between atoms: N_18  and  C_19 
REMARK    8  A    between atoms: C_19  and  C_20 
REMARK    9  A    between atoms: C_27  and  C_28 
ROOT
HETATM    1  C   UNL     1      43.596 -15.880   2.322  1.00  0.00     0.118 C 
HETATM    2  N   UNL     1      43.413 -14.981   3.455  1.00  0.00    -0.365 N 
HETATM    3  C   UNL     1      42.186 -14.657   3.928  1.00  0.00     0.138 A 
HETATM    4  N   UNL     1      41.056 -14.949   3.215  1.00  0.00    -0.240 N 
HETATM    5  N   UNL     1      39.933 -14.449   3.757  1.00  0.00    -0.181 NA
HETATM    6  C   UNL     1      40.369 -13.912   4.903  1.00  0.00     0.160 A 
HETATM    7  C   UNL     1      41.769 -14.028   5.085  1.00  0.00     0.098 A 
HETATM    8  C   UNL     1      41.047 -15.642   1.943  1.00  0.00     0.221 C 
HETATM    9  C   UNL     1      42.455 -15.639   1.313  1.00  0.00     0.066 C 
HETATM   10  H   UNL     1      44.238 -14.815   4.037  1.00  0.00     0.161 HD
ENDROOT
BRANCH   7  11
HETATM   11  C   UNL     1      42.633 -13.559   6.153  1.00  0.00     0.275 C 
HETATM   12  N   UNL     1      42.323 -12.384   6.822  1.00  0.00    -0.263 N 
HETATM   13  H   UNL     1      42.928 -12.259   7.631  1.00  0.00     0.190 HD
HETATM   14  O   UNL     1      43.655 -14.165   6.480  1.00  0.00    -0.266 OA
BRANCH  12  15
HETATM   15  N   UNL     1      40.993 -11.965   7.035  1.00  0.00    -0.274 N 
HETATM   16  H   UNL     1      40.280 -12.346   6.419  1.00  0.00     0.189 HD
BRANCH  15  17
HETATM   17  C   UNL     1      40.688 -10.972   7.932  1.00  0.00     0.186 C 
HETATM   18  S   UNL     1      39.604  -9.726   7.674  1.00  0.00    -0.040 SA
BRANCH  17  19
HETATM   19  N   UNL     1      41.305 -11.033   9.146  1.00  0.00    -0.360 N 
HETATM   20  H   UNL     1      41.289 -11.953   9.570  1.00  0.00     0.162 HD
BRANCH  19  21
HETATM   21  C   UNL     1      42.152 -10.037   9.775  1.00  0.00     0.187 C 
BRANCH  21  22
HETATM   22  C   UNL     1      43.513 -10.585   9.960  1.00  0.00     0.070 A 
HETATM   23  O   UNL     1      44.134 -11.069   8.845  1.00  0.00    -0.325 OA
HETATM   24  C   UNL     1      45.361 -11.504   9.234  1.00  0.00     0.142 A 
HETATM   25  C   UNL     1      45.529 -11.323  10.587  1.00  0.00     0.027 A 
HETATM   26  C   UNL     1      44.335 -10.729  11.059  1.00  0.00     0.036 A 
ENDBRANCH  21  22
ENDBRANCH  19  21
ENDBRANCH  17  19
ENDBRANCH  15  17
ENDBRANCH  12  15
ENDBRANCH   7  11
BRANCH   1  27
HETATM   27  C   UNL     1      43.810 -17.327   2.741  1.00  0.00    -0.035 A 
HETATM   28  C   UNL     1      43.961 -17.712   4.082  1.00  0.00     0.012 A 
HETATM   29  C   UNL     1      44.162 -19.052   4.430  1.00  0.00     0.037 A 
HETATM   30  C   UNL     1      44.219 -20.041   3.452  1.00  0.00     0.068 A 
HETATM   31  C   UNL     1      44.106 -19.675   2.113  1.00  0.00     0.037 A 
HETATM   32  C   UNL     1      43.911 -18.332   1.762  1.00  0.00     0.012 A 
BRANCH  30  33
HETATM   33  O   UNL     1      44.404 -21.310   3.926  1.00  0.00    -0.356 OA
HETATM   34  C   UNL     1      44.727 -21.432   5.305  1.00  0.00     0.210 C 
ENDBRANCH  30  33
ENDBRANCH   1  27
BRANCH   8  35
HETATM   35  C   UNL     1      40.454 -17.024   2.105  1.00  0.00     0.409 C 
HETATM   36  F   UNL     1      40.824 -17.657   3.231  1.00  0.00    -0.169 F 
HETATM   37  F   UNL     1      39.099 -16.999   2.081  1.00  0.00    -0.169 F 
HETATM   38  F   UNL     1      40.827 -17.814   1.062  1.00  0.00    -0.169 F 
ENDBRANCH   8  35
TORSDOF 9
ENDMDL
MODEL 3
REMARK VINA RESULT:      -8.3      1.753      2.319
REMARK  9 active torsions:
REMARK  status: ('A' for Active; 'I' for Inactive)
REMARK    1  A    between atoms: O_2  and  C_3 
REMARK    2  A    between atoms: C_6  and  C_7 
REMARK    3  A    between atoms: C_13  and  C_14 
REMARK       I    between atoms: C_14  and  N_15 
REMARK    4  A    between atoms: N_15  and  N_16 
REMARK    5  A    between atoms: N_16  and  C_17 
REMARK    6  A    between atoms: C_17  and  N_18 
REMARK    7  A    between atoms: N_18  and  C_19 
REMARK    8  A    between atoms: C_19  and  C_20 
REMARK    9  A    between atoms: C_27  and  C_28 
ROOT
HETATM    1  C   UNL     1      41.088 -17.269   4.875  1.00  0.00     0.118 C 
HETATM    2  N   UNL     1      40.908 -16.600   3.592  1.00  0.00    -0.365 N 
HETATM    3  C   UNL     1      41.452 -15.389   3.328  1.00  0.00     0.138 A 
HETATM    4  N   UNL     1      41.979 -14.619   4.328  1.00  0.00    -0.240 N 
HETATM    5  N   UNL     1      42.359 -13.395   3.922  1.00  0.00    -0.181 NA
HETATM    6  C   UNL     1      42.155 -13.443   2.600  1.00  0.00     0.160 A 
HETATM    7  C   UNL     1      41.609 -14.672   2.156  1.00  0.00     0.098 A 
HETATM    8  C   UNL     1      42.043 -15.016   5.720  1.00  0.00     0.221 C 
HETATM    9  C   UNL     1      41.094 -16.202   5.990  1.00  0.00     0.066 C 
HETATM   10  H   UNL     1      40.584 -17.187   2.819  1.00  0.00     0.161 HD
ENDROOT
BRANCH   7  11
HETATM   11  C   UNL     1      41.213 -15.116   0.833  1.00  0.00     0.275 C 
HETATM   12  N   UNL     1      39.895 -15.480   0.596  1.00  0.00    -0.263 N 
HETATM   13  H   UNL     1      39.735 -15.628  -0.399  1.00  0.00     0.190 HD
HETATM   14  O   UNL     1      42.019 -15.202  -0.096  1.00  0.00    -0.266 OA
BRANCH  12  15
HETATM   15  N   UNL     1      38.813 -14.870   1.263  1.00  0.00    -0.274 N 
HETATM   16  H   UNL     1      38.474 -15.319   2.109  1.00  0.00     0.189 HD
BRANCH  15  17
HETATM   17  C   UNL     1      38.144 -13.802   0.718  1.00  0.00     0.186 C 
HETATM   18  S   UNL     1      37.986 -12.293   1.418  1.00  0.00    -0.040 SA
BRANCH  17  19
HETATM   19  N   UNL     1      37.591 -13.990  -0.513  1.00  0.00    -0.360 N 
HETATM   20  H   UNL     1      36.689 -14.452  -0.493  1.00  0.00     0.162 HD
BRANCH  19  21
HETATM   21  C   UNL     1      38.009 -13.425  -1.782  1.00  0.00     0.187 C 
BRANCH  21  22
HETATM   22  C   UNL     1      38.532 -14.496  -2.657  1.00  0.00     0.070 A 
HETATM   23  O   UNL     1      39.827 -14.875  -2.449  1.00  0.00    -0.325 OA
HETATM   24  C   UNL     1      40.095 -15.866  -3.340  1.00  0.00     0.142 A 
HETATM   25  C   UNL     1      38.996 -16.116  -4.127  1.00  0.00     0.027 A 
HETATM   26  C   UNL     1      37.984 -15.230  -3.688  1.00  0.00     0.036 A 
ENDBRANCH  21  22
ENDBRANCH  19  21
ENDBRANCH  17  19
ENDBRANCH  15  17
ENDBRANCH  12  15
ENDBRANCH   7  11
BRANCH   1  27
HETATM   27  C   UNL     1      42.263 -18.234   4.883  1.00  0.00    -0.035 A 
HETATM   28  C   UNL     1      42.766 -18.805   6.062  1.00  0.00     0.012 A 
HETATM   29  C   UNL     1      43.853 -19.684   6.032  1.00  0.00     0.037 A 
HETATM   30  C   UNL     1      44.469 -20.016   4.828  1.00  0.00     0.068 A 
HETATM   31  C   UNL     1      44.007 -19.433   3.650  1.00  0.00     0.037 A 
HETATM   32  C   UNL     1      42.922 -18.546   3.679  1.00  0.00     0.012 A 
BRANCH  30  33
HETATM   33  O   UNL     1      45.509 -20.896   4.935  1.00  0.00    -0.356 OA
HETATM   34  C   UNL     1      45.166 -22.265   5.117  1.00  0.00     0.210 C 
ENDBRANCH  30  33
ENDBRANCH   1  27
BRANCH   8  35
HETATM   35  C   UNL     1      43.477 -15.276   6.124  1.00  0.00     0.409 C 
HETATM   36  F   UNL     1      44.202 -15.929   5.199  1.00  0.00    -0.169 F 
HETATM   37  F   UNL     1      44.135 -14.130   6.420  1.00  0.00    -0.169 F 
HETATM   38  F   UNL     1      43.509 -16.027   7.259  1.00  0.00    -0.169 F 
ENDBRANCH   8  35
TORSDOF 9
ENDMDL
MODEL 4
REMARK VINA RESULT:      -8.2      1.972      2.937
REMARK  9 active torsions:
REMARK  status: ('A' for Active; 'I' for Inactive)
REMARK    1  A    between atoms: O_2  and  C_3 
REMARK    2  A    between atoms: C_6  and  C_7 
REMARK    3  A    between atoms: C_13  and  C_14 
REMARK       I    between atoms: C_14  and  N_15 
REMARK    4  A    between atoms: N_15  and  N_16 
REMARK    5  A    between atoms: N_16  and  C_17 
REMARK    6  A    between atoms: C_17  and  N_18 
REMARK    7  A    between atoms: N_18  and  C_19 
REMARK    8  A    between atoms: C_19  and  C_20 
REMARK    9  A    between atoms: C_27  and  C_28 
ROOT
HETATM    1  C   UNL     1      41.034 -16.911   4.944  1.00  0.00     0.118 C 
HETATM    2  N   UNL     1      40.267 -16.227   3.910  1.00  0.00    -0.365 N 
HETATM    3  C   UNL     1      40.606 -14.997   3.455  1.00  0.00     0.138 A 
HETATM    4  N   UNL     1      41.526 -14.230   4.115  1.00  0.00    -0.240 N 
HETATM    5  N   UNL     1      41.655 -12.991   3.612  1.00  0.00    -0.181 NA
HETATM    6  C   UNL     1      40.859 -13.022   2.536  1.00  0.00     0.160 A 
HETATM    7  C   UNL     1      40.188 -14.258   2.365  1.00  0.00     0.098 A 
HETATM    8  C   UNL     1      42.237 -14.648   5.306  1.00  0.00     0.221 C 
HETATM    9  C   UNL     1      41.542 -15.863   5.955  1.00  0.00     0.066 C 
HETATM   10  H   UNL     1      39.629 -16.809   3.362  1.00  0.00     0.161 HD
ENDROOT
BRANCH   7  11
HETATM   11  C   UNL     1      39.228 -14.690   1.366  1.00  0.00     0.275 C 
HETATM   12  N   UNL     1      39.580 -14.678   0.024  1.00  0.00    -0.263 N 
HETATM   13  H   UNL     1      38.868 -15.138  -0.540  1.00  0.00     0.190 HD
HETATM   14  O   UNL     1      38.091 -15.056   1.668  1.00  0.00    -0.266 OA
BRANCH  12  15
HETATM   15  N   UNL     1      40.899 -14.919  -0.412  1.00  0.00    -0.274 N 
HETATM   16  H   UNL     1      41.546 -15.320   0.259  1.00  0.00     0.189 HD
BRANCH  15  17
HETATM   17  C   UNL     1      41.336 -14.493  -1.642  1.00  0.00     0.186 C 
HETATM   18  S   UNL     1      40.732 -14.995  -3.117  1.00  0.00    -0.040 SA
BRANCH  17  19
HETATM   19  N   UNL     1      42.328 -13.559  -1.649  1.00  0.00    -0.360 N 
HETATM   20  H   UNL     1      42.921 -13.581  -0.827  1.00  0.00     0.162 HD
BRANCH  19  21
HETATM   21  C   UNL     1      42.767 -12.722  -2.750  1.00  0.00     0.187 C 
BRANCH  21  22
HETATM   22  C   UNL     1      42.929 -11.328  -2.283  1.00  0.00     0.070 A 
HETATM   23  O   UNL     1      43.466 -11.159  -1.039  1.00  0.00    -0.325 OA
HETATM   24  C   UNL     1      43.538  -9.820  -0.819  1.00  0.00     0.142 A 
HETATM   25  C   UNL     1      43.039  -9.128  -1.897  1.00  0.00     0.027 A 
HETATM   26  C   UNL     1      42.643 -10.101  -2.845  1.00  0.00     0.036 A 
ENDBRANCH  21  22
ENDBRANCH  19  21
ENDBRANCH  17  19
ENDBRANCH  15  17
ENDBRANCH  12  15
ENDBRANCH   7  11
BRANCH   1  27
HETATM   27  C   UNL     1      42.091 -17.845   4.378  1.00  0.00    -0.035 A 
HETATM   28  C   UNL     1      42.990 -18.553   5.192  1.00  0.00     0.012 A 
HETATM   29  C   UNL     1      43.955 -19.399   4.636  1.00  0.00     0.037 A 
HETATM   30  C   UNL     1      44.051 -19.562   3.257  1.00  0.00     0.068 A 
HETATM   31  C   UNL     1      43.192 -18.841   2.430  1.00  0.00     0.037 A 
HETATM   32  C   UNL     1      42.229 -17.988   2.985  1.00  0.00     0.012 A 
BRANCH  30  33
HETATM   33  O   UNL     1      45.025 -20.428   2.845  1.00  0.00    -0.356 OA
HETATM   34  C   UNL     1      44.586 -21.631   2.227  1.00  0.00     0.210 C 
ENDBRANCH  30  33
ENDBRANCH   1  27
BRANCH   8  35
HETATM   35  C   UNL     1      43.698 -14.878   4.989  1.00  0.00     0.409 C 
HETATM   36  F   UNL     1      43.927 -15.371   3.759  1.00  0.00    -0.169 F 
HETATM   37  F   UNL     1      44.428 -13.744   5.113  1.00  0.00    -0.169 F 
HETATM   38  F   UNL     1      44.232 -15.760   5.877  1.00  0.00    -0.169 F 
ENDBRANCH   8  35
TORSDOF 9
ENDMDL
MODEL 5
REMARK VINA RESULT:      -8.0      2.355      3.436
REMARK  9 active torsions:
REMARK  status: ('A' for Active; 'I' for Inactive)
REMARK    1  A    between atoms: O_2  and  C_3 
REMARK    2  A    between atoms: C_6  and  C_7 
REMARK    3  A    between atoms: C_13  and  C_14 
REMARK       I    between atoms: C_14  and  N_15 
REMARK    4  A    between atoms: N_15  and  N_16 
REMARK    5  A    between atoms: N_16  and  C_17 
REMARK    6  A    between atoms: C_17  and  N_18 
REMARK    7  A    between atoms: N_18  and  C_19 
REMARK    8  A    between atoms: C_19  and  C_20 
REMARK    9  A    between atoms: C_27  and  C_28 
ROOT
HETATM    1  C   UNL     1      40.700 -16.556   2.429  1.00  0.00     0.118 C 
HETATM    2  N   UNL     1      40.506 -16.060   1.072  1.00  0.00    -0.365 N 
HETATM    3  C   UNL     1      41.107 -14.932   0.623  1.00  0.00     0.138 A 
HETATM    4  N   UNL     1      41.716 -14.066   1.488  1.00  0.00    -0.240 N 
HETATM    5  N   UNL     1      42.149 -12.936   0.903  1.00  0.00    -0.181 NA
HETATM    6  C   UNL     1      41.888 -13.152  -0.392  1.00  0.00     0.160 A 
HETATM    7  C   UNL     1      41.256 -14.394  -0.642  1.00  0.00     0.098 A 
HETATM    8  C   UNL     1      41.815 -14.271   2.919  1.00  0.00     0.221 C 
HETATM    9  C   UNL     1      40.812 -15.348   3.383  1.00  0.00     0.066 C 
HETATM   10  H   UNL     1      40.118 -16.726   0.399  1.00  0.00     0.161 HD
ENDROOT
BRANCH   7  11
HETATM   11  C   UNL     1      40.781 -14.991  -1.876  1.00  0.00     0.275 C 
HETATM   12  N   UNL     1      39.418 -15.151  -2.083  1.00  0.00    -0.263 N 
HETATM   13  H   UNL     1      39.230 -15.444  -3.040  1.00  0.00     0.190 HD
HETATM   14  O   UNL     1      41.555 -15.384  -2.752  1.00  0.00    -0.266 OA
BRANCH  12  15
HETATM   15  N   UNL     1      38.466 -14.249  -1.565  1.00  0.00    -0.274 N 
HETATM   16  H   UNL     1      37.941 -14.544  -0.748  1.00  0.00     0.189 HD
BRANCH  15  17
HETATM   17  C   UNL     1      38.150 -13.085  -2.221  1.00  0.00     0.186 C 
HETATM   18  S   UNL     1      37.124 -12.956  -3.535  1.00  0.00    -0.040 SA
BRANCH  17  19
HETATM   19  N   UNL     1      38.700 -11.938  -1.733  1.00  0.00    -0.360 N 
HETATM   20  H   UNL     1      38.985 -11.998  -0.762  1.00  0.00     0.162 HD
BRANCH  19  21
HETATM   21  C   UNL     1      39.127 -10.762  -2.467  1.00  0.00     0.187 C 
BRANCH  21  22
HETATM   22  C   UNL     1      40.496 -10.968  -2.987  1.00  0.00     0.070 A 
HETATM   23  O   UNL     1      41.470 -10.155  -2.482  1.00  0.00    -0.325 OA
HETATM   24  C   UNL     1      42.635 -10.519  -3.079  1.00  0.00     0.142 A 
HETATM   25  C   UNL     1      42.420 -11.542  -3.972  1.00  0.00     0.027 A 
HETATM   26  C   UNL     1      41.036 -11.834  -3.915  1.00  0.00     0.036 A 
ENDBRANCH  21  22
ENDBRANCH  19  21
ENDBRANCH  17  19
ENDBRANCH  15  17
ENDBRANCH  12  15
ENDBRANCH   7  11
BRANCH   1  27
HETATM   27  C   UNL     1      41.818 -17.581   2.532  1.00  0.00    -0.035 A 
HETATM   28  C   UNL     1      42.460 -18.118   1.405  1.00  0.00     0.012 A 
HETATM   29  C   UNL     1      43.480 -19.065   1.538  1.00  0.00     0.037 A 
HETATM   30  C   UNL     1      43.887 -19.503   2.795  1.00  0.00     0.068 A 
HETATM   31  C   UNL     1      43.239 -19.009   3.925  1.00  0.00     0.037 A 
HETATM   32  C   UNL     1      42.212 -18.065   3.793  1.00  0.00     0.012 A 
BRANCH  30  33
HETATM   33  O   UNL     1      44.903 -20.417   2.786  1.00  0.00    -0.356 OA
HETATM   34  C   UNL     1      44.558 -21.747   2.419  1.00  0.00     0.210 C 
ENDBRANCH  30  33
ENDBRANCH   1  27
BRANCH   8  35
HETATM   35  C   UNL     1      43.247 -14.562   3.308  1.00  0.00     0.409 C 
HETATM   36  F   UNL     1      43.924 -15.304   2.414  1.00  0.00    -0.169 F 
HETATM   37  F   UNL     1      43.957 -13.426   3.512  1.00  0.00    -0.169 F 
HETATM   38  F   UNL     1      43.279 -15.235   4.490  1.00  0.00    -0.169 F 
ENDBRANCH   8  35
TORSDOF 9
ENDMDL
MODEL 6
REMARK VINA RESULT:      -7.9      2.174      3.136
REMARK  9 active torsions:
REMARK  status: ('A' for Active; 'I' for Inactive)
REMARK    1  A    between atoms: O_2  and  C_3 
REMARK    2  A    between atoms: C_6  and  C_7 
REMARK    3  A    between atoms: C_13  and  C_14 
REMARK       I    between atoms: C_14  and  N_15 
REMARK    4  A    between atoms: N_15  and  N_16 
REMARK    5  A    between atoms: N_16  and  C_17 
REMARK    6  A    between atoms: C_17  and  N_18 
REMARK    7  A    between atoms: N_18  and  C_19 
REMARK    8  A    between atoms: C_19  and  C_20 
REMARK    9  A    between atoms: C_27  and  C_28 
ROOT
HETATM    1  C   UNL     1      40.562 -16.376   2.135  1.00  0.00     0.118 C 
HETATM    2  N   UNL     1      40.532 -15.944   0.743  1.00  0.00    -0.365 N 
HETATM    3  C   UNL     1      41.168 -14.825   0.320  1.00  0.00     0.138 A 
HETATM    4  N   UNL     1      41.654 -13.911   1.214  1.00  0.00    -0.240 N 
HETATM    5  N   UNL     1      42.140 -12.799   0.636  1.00  0.00    -0.181 NA
HETATM    6  C   UNL     1      42.046 -13.077  -0.670  1.00  0.00     0.160 A 
HETATM    7  C   UNL     1      41.467 -14.341  -0.939  1.00  0.00     0.098 A 
HETATM    8  C   UNL     1      41.575 -14.051   2.654  1.00  0.00     0.221 C 
HETATM    9  C   UNL     1      40.538 -15.126   3.039  1.00  0.00     0.066 C 
HETATM   10  H   UNL     1      40.239 -16.646   0.059  1.00  0.00     0.161 HD
ENDROOT
BRANCH   7  11
HETATM   11  C   UNL     1      41.158 -15.000  -2.195  1.00  0.00     0.275 C 
HETATM   12  N   UNL     1      41.109 -14.258  -3.366  1.00  0.00    -0.263 N 
HETATM   13  H   UNL     1      41.027 -14.868  -4.177  1.00  0.00     0.190 HD
HETATM   14  O   UNL     1      40.916 -16.207  -2.257  1.00  0.00    -0.266 OA
BRANCH  12  15
HETATM   15  N   UNL     1      41.931 -13.132  -3.581  1.00  0.00    -0.274 N 
HETATM   16  H   UNL     1      42.897 -13.195  -3.275  1.00  0.00     0.189 HD
BRANCH  15  17
HETATM   17  C   UNL     1      41.416 -11.947  -4.043  1.00  0.00     0.186 C 
HETATM   18  S   UNL     1      42.304 -10.582  -4.422  1.00  0.00    -0.040 SA
BRANCH  17  19
HETATM   19  N   UNL     1      40.068 -11.898  -4.236  1.00  0.00    -0.360 N 
HETATM   20  H   UNL     1      39.718 -12.595  -4.883  1.00  0.00     0.162 HD
BRANCH  19  21
HETATM   21  C   UNL     1      39.078 -11.152  -3.481  1.00  0.00     0.187 C 
BRANCH  21  22
HETATM   22  C   UNL     1      38.654 -11.937  -2.301  1.00  0.00     0.070 A 
HETATM   23  O   UNL     1      38.211 -13.206  -2.540  1.00  0.00    -0.325 OA
HETATM   24  C   UNL     1      37.890 -13.745  -1.334  1.00  0.00     0.142 A 
HETATM   25  C   UNL     1      38.105 -12.834  -0.328  1.00  0.00     0.027 A 
HETATM   26  C   UNL     1      38.599 -11.663  -0.951  1.00  0.00     0.036 A 
ENDBRANCH  21  22
ENDBRANCH  19  21
ENDBRANCH  17  19
ENDBRANCH  15  17
ENDBRANCH  12  15
ENDBRANCH   7  11
BRANCH   1  27
HETATM   27  C   UNL     1      41.671 -17.374   2.423  1.00  0.00    -0.035 A 
HETATM   28  C   UNL     1      42.454 -17.950   1.409  1.00  0.00     0.012 A 
HETATM   29  C   UNL     1      43.463 -18.870   1.711  1.00  0.00     0.037 A 
HETATM   30  C   UNL     1      43.717 -19.243   3.028  1.00  0.00     0.068 A 
HETATM   31  C   UNL     1      42.929 -18.710   4.046  1.00  0.00     0.037 A 
HETATM   32  C   UNL     1      41.913 -17.792   3.744  1.00  0.00     0.012 A 
BRANCH  30  33
HETATM   33  O   UNL     1      44.738 -20.137   3.187  1.00  0.00    -0.356 OA
HETATM   34  C   UNL     1      44.525 -21.444   2.668  1.00  0.00     0.210 C 
ENDBRANCH  30  33
ENDBRANCH   1  27
BRANCH   8  35
HETATM   35  C   UNL     1      42.952 -14.297   3.231  1.00  0.00     0.409 C 
HETATM   36  F   UNL     1      43.749 -15.055   2.457  1.00  0.00    -0.169 F 
HETATM   37  F   UNL     1      43.610 -13.140   3.479  1.00  0.00    -0.169 F 
HETATM   38  F   UNL     1      42.845 -14.928   4.432  1.00  0.00    -0.169 F 
ENDBRANCH   8  35
TORSDOF 9
ENDMDL
MODEL 7
REMARK VINA RESULT:      -7.8      3.885      8.371
REMARK  9 active torsions:
REMARK  status: ('A' for Active; 'I' for Inactive)
REMARK    1  A    between atoms: O_2  and  C_3 
REMARK    2  A    between atoms: C_6  and  C_7 
REMARK    3  A    between atoms: C_13  and  C_14 
REMARK       I    between atoms: C_14  and  N_15 
REMARK    4  A    between atoms: N_15  and  N_16 
REMARK    5  A    between atoms: N_16  and  C_17 
REMARK    6  A    between atoms: C_17  and  N_18 
REMARK    7  A    between atoms: N_18  and  C_19 
REMARK    8  A    between atoms: C_19  and  C_20 
REMARK    9  A    between atoms: C_27  and  C_28 
ROOT
HETATM    1  C   UNL     1      40.351 -16.499   2.097  1.00  0.00     0.118 C 
HETATM    2  N   UNL     1      40.538 -16.696   3.530  1.00  0.00    -0.365 N 
HETATM    3  C   UNL     1      41.589 -17.386   4.032  1.00  0.00     0.138 A 
HETATM    4  N   UNL     1      42.385 -18.148   3.221  1.00  0.00    -0.240 N 
HETATM    5  N   UNL     1      43.301 -18.869   3.889  1.00  0.00    -0.181 NA
HETATM    6  C   UNL     1      43.135 -18.464   5.154  1.00  0.00     0.160 A 
HETATM    7  C   UNL     1      42.093 -17.517   5.312  1.00  0.00     0.098 A 
HETATM    8  C   UNL     1      42.218 -18.265   1.787  1.00  0.00     0.221 C 
HETATM    9  C   UNL     1      40.820 -17.771   1.360  1.00  0.00     0.066 C 
HETATM   10  H   UNL     1      40.000 -16.079   4.144  1.00  0.00     0.161 HD
ENDROOT
BRANCH   7  11
HETATM   11  C   UNL     1      41.573 -16.861   6.498  1.00  0.00     0.275 C 
HETATM   12  N   UNL     1      42.394 -16.015   7.230  1.00  0.00    -0.263 N 
HETATM   13  H   UNL     1      41.859 -15.520   7.941  1.00  0.00     0.190 HD
HETATM   14  O   UNL     1      40.421 -17.045   6.894  1.00  0.00    -0.266 OA
BRANCH  12  15
HETATM   15  N   UNL     1      43.402 -15.235   6.628  1.00  0.00    -0.274 N 
HETATM   16  H   UNL     1      44.280 -15.695   6.408  1.00  0.00     0.189 HD
BRANCH  15  17
HETATM   17  C   UNL     1      43.266 -13.876   6.482  1.00  0.00     0.186 C 
HETATM   18  S   UNL     1      41.912 -13.091   5.894  1.00  0.00    -0.040 SA
BRANCH  17  19
HETATM   19  N   UNL     1      44.319 -13.109   6.882  1.00  0.00    -0.360 N 
HETATM   20  H   UNL     1      44.438 -12.260   6.342  1.00  0.00     0.162 HD
BRANCH  19  21
HETATM   21  C   UNL     1      45.118 -13.237   8.086  1.00  0.00     0.187 C 
BRANCH  21  22
HETATM   22  C   UNL     1      44.810 -12.123   9.009  1.00  0.00     0.070 A 
HETATM   23  O   UNL     1      43.511 -11.706   9.052  1.00  0.00    -0.325 OA
HETATM   24  C   UNL     1      43.451 -10.698   9.961  1.00  0.00     0.142 A 
HETATM   25  C   UNL     1      44.695 -10.452  10.490  1.00  0.00     0.027 A 
HETATM   26  C   UNL     1      45.577 -11.371   9.875  1.00  0.00     0.036 A 
ENDBRANCH  21  22
ENDBRANCH  19  21
ENDBRANCH  17  19
ENDBRANCH  15  17
ENDBRANCH  12  15
ENDBRANCH   7  11
BRANCH   1  27
HETATM   27  C   UNL     1      40.943 -15.192   1.595  1.00  0.00    -0.035 A 
HETATM   28  C   UNL     1      40.888 -14.805   0.246  1.00  0.00     0.012 A 
HETATM   29  C   UNL     1      41.450 -13.598  -0.181  1.00  0.00     0.037 A 
HETATM   30  C   UNL     1      42.081 -12.746   0.721  1.00  0.00     0.068 A 
HETATM   31  C   UNL     1      42.177 -13.128   2.057  1.00  0.00     0.037 A 
HETATM   32  C   UNL     1      41.620 -14.341   2.487  1.00  0.00     0.012 A 
BRANCH  30  33
HETATM   33  O   UNL     1      42.573 -11.592   0.177  1.00  0.00    -0.356 OA
HETATM   34  C   UNL     1      42.740 -11.577  -1.235  1.00  0.00     0.210 C 
ENDBRANCH  30  33
ENDBRANCH   1  27
BRANCH   8  35
HETATM   35  C   UNL     1      43.355 -17.572   1.070  1.00  0.00     0.409 C 
HETATM   36  F   UNL     1      43.845 -16.500   1.716  1.00  0.00    -0.169 F 
HETATM   37  F   UNL     1      44.392 -18.412   0.835  1.00  0.00    -0.169 F 
HETATM   38  F   UNL     1      42.940 -17.145  -0.154  1.00  0.00    -0.169 F 
ENDBRANCH   8  35
TORSDOF 9
ENDMDL
MODEL 8
REMARK VINA RESULT:      -7.7      2.273      4.043
REMARK  9 active torsions:
REMARK  status: ('A' for Active; 'I' for Inactive)
REMARK    1  A    between atoms: O_2  and  C_3 
REMARK    2  A    between atoms: C_6  and  C_7 
REMARK    3  A    between atoms: C_13  and  C_14 
REMARK       I    between atoms: C_14  and  N_15 
REMARK    4  A    between atoms: N_15  and  N_16 
REMARK    5  A    between atoms: N_16  and  C_17 
REMARK    6  A    between atoms: C_17  and  N_18 
REMARK    7  A    between atoms: N_18  and  C_19 
REMARK    8  A    between atoms: C_19  and  C_20 
REMARK    9  A    between atoms: C_27  and  C_28 
ROOT
HETATM    1  C   UNL     1      40.616 -16.530   2.442  1.00  0.00     0.118 C 
HETATM    2  N   UNL     1      40.456 -16.002   1.093  1.00  0.00    -0.365 N 
HETATM    3  C   UNL     1      41.026 -14.838   0.701  1.00  0.00     0.138 A 
HETATM    4  N   UNL     1      41.564 -13.974   1.614  1.00  0.00    -0.240 N 
HETATM    5  N   UNL     1      41.972 -12.810   1.080  1.00  0.00    -0.181 NA
HETATM    6  C   UNL     1      41.772 -12.998  -0.230  1.00  0.00     0.160 A 
HETATM    7  C   UNL     1      41.202 -14.257  -0.540  1.00  0.00     0.098 A 
HETATM    8  C   UNL     1      41.614 -14.218   3.042  1.00  0.00     0.221 C 
HETATM    9  C   UNL     1      40.640 -15.348   3.434  1.00  0.00     0.066 C 
HETATM   10  H   UNL     1      40.123 -16.663   0.387  1.00  0.00     0.161 HD
ENDROOT
BRANCH   7  11
HETATM   11  C   UNL     1      40.803 -14.836  -1.810  1.00  0.00     0.275 C 
HETATM   12  N   UNL     1      39.469 -15.149  -2.033  1.00  0.00    -0.263 N 
HETATM   13  H   UNL     1      39.317 -15.407  -3.006  1.00  0.00     0.190 HD
HETATM   14  O   UNL     1      41.617 -15.080  -2.703  1.00  0.00    -0.266 OA
BRANCH  12  15
HETATM   15  N   UNL     1      38.415 -14.401  -1.470  1.00  0.00    -0.274 N 
HETATM   16  H   UNL     1      37.835 -14.863  -0.776  1.00  0.00     0.189 HD
BRANCH  15  17
HETATM   17  C   UNL     1      38.086 -13.156  -1.943  1.00  0.00     0.186 C 
HETATM   18  S   UNL     1      37.596 -12.805  -3.503  1.00  0.00    -0.040 SA
BRANCH  17  19
HETATM   19  N   UNL     1      38.136 -12.128  -1.050  1.00  0.00    -0.360 N 
HETATM   20  H   UNL     1      38.651 -11.320  -1.380  1.00  0.00     0.162 HD
BRANCH  19  21
HETATM   21  C   UNL     1      37.377 -11.964   0.176  1.00  0.00     0.187 C 
BRANCH  21  22
HETATM   22  C   UNL     1      38.280 -11.548   1.270  1.00  0.00     0.070 A 
HETATM   23  O   UNL     1      39.007 -10.411   1.063  1.00  0.00    -0.325 OA
HETATM   24  C   UNL     1      39.748 -10.208   2.184  1.00  0.00     0.142 A 
HETATM   25  C   UNL     1      39.520 -11.207   3.100  1.00  0.00     0.027 A 
HETATM   26  C   UNL     1      38.571 -12.076   2.511  1.00  0.00     0.036 A 
ENDBRANCH  21  22
ENDBRANCH  19  21
ENDBRANCH  17  19
ENDBRANCH  15  17
ENDBRANCH  12  15
ENDBRANCH   7  11
BRANCH   1  27
HETATM   27  C   UNL     1      41.771 -17.512   2.563  1.00  0.00    -0.035 A 
HETATM   28  C   UNL     1      42.163 -18.073   3.789  1.00  0.00     0.012 A 
HETATM   29  C   UNL     1      43.234 -18.969   3.863  1.00  0.00     0.037 A 
HETATM   30  C   UNL     1      43.944 -19.327   2.720  1.00  0.00     0.068 A 
HETATM   31  C   UNL     1      43.593 -18.755   1.499  1.00  0.00     0.037 A 
HETATM   32  C   UNL     1      42.524 -17.852   1.424  1.00  0.00     0.012 A 
BRANCH  30  33
HETATM   33  O   UNL     1      44.957 -20.221   2.927  1.00  0.00    -0.356 OA
HETATM   34  C   UNL     1      45.094 -20.731   4.248  1.00  0.00     0.210 C 
ENDBRANCH  30  33
ENDBRANCH   1  27
BRANCH   8  35
HETATM   35  C   UNL     1      43.041 -14.462   3.481  1.00  0.00     0.409 C 
HETATM   36  F   UNL     1      43.157 -15.203   4.597  1.00  0.00    -0.169 F 
HETATM   37  F   UNL     1      43.771 -15.067   2.514  1.00  0.00    -0.169 F 
HETATM   38  F   UNL     1      43.660 -13.275   3.725  1.00  0.00    -0.169 F 
ENDBRANCH   8  35
TORSDOF 9
ENDMDL
MODEL 9
REMARK VINA RESULT:      -7.6      3.060      7.364
REMARK  9 active torsions:
REMARK  status: ('A' for Active; 'I' for Inactive)
REMARK    1  A    between atoms: O_2  and  C_3 
REMARK    2  A    between atoms: C_6  and  C_7 
REMARK    3  A    between atoms: C_13  and  C_14 
REMARK       I    between atoms: C_14  and  N_15 
REMARK    4  A    between atoms: N_15  and  N_16 
REMARK    5  A    between atoms: N_16  and  C_17 
REMARK    6  A    between atoms: C_17  and  N_18 
REMARK    7  A    between atoms: N_18  and  C_19 
REMARK    8  A    between atoms: C_19  and  C_20 
REMARK    9  A    between atoms: C_27  and  C_28 
ROOT
HETATM    1  C   UNL     1      41.743 -11.957   0.112  1.00  0.00     0.118 C 
HETATM    2  N   UNL     1      42.360 -12.462   1.333  1.00  0.00    -0.365 N 
HETATM    3  C   UNL     1      41.644 -12.699   2.458  1.00  0.00     0.138 A 
HETATM    4  N   UNL     1      40.363 -12.238   2.589  1.00  0.00    -0.240 N 
HETATM    5  N   UNL     1      39.838 -12.443   3.809  1.00  0.00    -0.181 NA
HETATM    6  C   UNL     1      40.793 -13.147   4.429  1.00  0.00     0.160 A 
HETATM    7  C   UNL     1      41.944 -13.364   3.632  1.00  0.00     0.098 A 
HETATM    8  C   UNL     1      39.647 -11.507   1.563  1.00  0.00     0.221 C 
HETATM    9  C   UNL     1      40.625 -10.967   0.499  1.00  0.00     0.066 C 
HETATM   10  H   UNL     1      43.290 -12.875   1.231  1.00  0.00     0.161 HD
ENDROOT
BRANCH   7  11
HETATM   11  C   UNL     1      43.195 -14.037   3.928  1.00  0.00     0.275 C 
HETATM   12  N   UNL     1      43.180 -15.250   4.602  1.00  0.00    -0.263 N 
HETATM   13  H   UNL     1      44.108 -15.669   4.611  1.00  0.00     0.190 HD
HETATM   14  O   UNL     1      44.286 -13.556   3.615  1.00  0.00    -0.266 OA
BRANCH  12  15
HETATM   15  N   UNL     1      42.133 -16.182   4.454  1.00  0.00    -0.274 N 
HETATM   16  H   UNL     1      41.568 -16.384   5.273  1.00  0.00     0.189 HD
BRANCH  15  17
HETATM   17  C   UNL     1      41.975 -16.904   3.296  1.00  0.00     0.186 C 
HETATM   18  S   UNL     1      40.652 -16.829   2.277  1.00  0.00    -0.040 SA
BRANCH  17  19
HETATM   19  N   UNL     1      43.002 -17.725   2.941  1.00  0.00    -0.360 N 
HETATM   20  H   UNL     1      43.395 -17.523   2.029  1.00  0.00     0.162 HD
BRANCH  19  21
HETATM   21  C   UNL     1      43.729 -18.667   3.772  1.00  0.00     0.187 C 
BRANCH  21  22
HETATM   22  C   UNL     1      43.867 -19.956   3.061  1.00  0.00     0.070 A 
HETATM   23  O   UNL     1      44.560 -20.939   3.708  1.00  0.00    -0.325 OA
HETATM   24  C   UNL     1      44.554 -22.027   2.893  1.00  0.00     0.142 A 
HETATM   25  C   UNL     1      43.883 -21.750   1.726  1.00  0.00     0.027 A 
HETATM   26  C   UNL     1      43.438 -20.411   1.831  1.00  0.00     0.036 A 
ENDBRANCH  21  22
ENDBRANCH  19  21
ENDBRANCH  17  19
ENDBRANCH  15  17
ENDBRANCH  12  15
ENDBRANCH   7  11
BRANCH   1  27
HETATM   27  C   UNL     1      41.340 -13.062  -0.850  1.00  0.00    -0.035 A 
HETATM   28  C   UNL     1      41.525 -14.424  -0.561  1.00  0.00     0.012 A 
HETATM   29  C   UNL     1      41.147 -15.414  -1.473  1.00  0.00     0.037 A 
HETATM   30  C   UNL     1      40.577 -15.075  -2.697  1.00  0.00     0.068 A 
HETATM   31  C   UNL     1      40.417 -13.729  -3.018  1.00  0.00     0.037 A 
HETATM   32  C   UNL     1      40.801 -12.735  -2.108  1.00  0.00     0.012 A 
BRANCH  30  33
HETATM   33  O   UNL     1      40.240 -16.137  -3.489  1.00  0.00    -0.356 OA
HETATM   34  C   UNL     1      39.034 -16.015  -4.235  1.00  0.00     0.210 C 
ENDBRANCH  30  33
ENDBRANCH   1  27
BRANCH   8  35
HETATM   35  C   UNL     1      38.535 -12.360   0.993  1.00  0.00     0.409 C 
HETATM   36  F   UNL     1      38.246 -12.105  -0.295  1.00  0.00    -0.169 F 
HETATM   37  F   UNL     1      38.809 -13.682   1.093  1.00  0.00    -0.169 F 
HETATM   38  F   UNL     1      37.391 -12.164   1.704  1.00  0.00    -0.169 F 
ENDBRANCH   8  35
TORSDOF 9
ENDMDL
MODEL 10
REMARK VINA RESULT:      -7.3      3.788      8.229
REMARK  9 active torsions:
REMARK  status: ('A' for Active; 'I' for Inactive)
REMARK    1  A    between atoms: O_2  and  C_3 
REMARK    2  A    between atoms: C_6  and  C_7 
REMARK    3  A    between atoms: C_13  and  C_14 
REMARK       I    between atoms: C_14  and  N_15 
REMARK    4  A    between atoms: N_15  and  N_16 
REMARK    5  A    between atoms: N_16  and  C_17 
REMARK    6  A    between atoms: C_17  and  N_18 
REMARK    7  A    between atoms: N_18  and  C_19 
REMARK    8  A    between atoms: C_19  and  C_20 
REMARK    9  A    between atoms: C_27  and  C_28 
ROOT
HETATM    1  C   UNL     1      41.580 -12.482   1.230  1.00  0.00     0.118 C 
HETATM    2  N   UNL     1      42.120 -13.777   1.628  1.00  0.00    -0.365 N 
HETATM    3  C   UNL     1      41.347 -14.886   1.711  1.00  0.00     0.138 A 
HETATM    4  N   UNL     1      39.983 -14.799   1.677  1.00  0.00    -0.240 N 
HETATM    5  N   UNL     1      39.362 -15.970   1.900  1.00  0.00    -0.181 NA
HETATM    6  C   UNL     1      40.380 -16.836   1.976  1.00  0.00     0.160 A 
HETATM    7  C   UNL     1      41.652 -16.228   1.843  1.00  0.00     0.098 A 
HETATM    8  C   UNL     1      39.245 -13.562   1.516  1.00  0.00     0.221 C 
HETATM    9  C   UNL     1      40.153 -12.348   1.801  1.00  0.00     0.066 C 
HETATM   10  H   UNL     1      43.137 -13.873   1.586  1.00  0.00     0.161 HD
ENDROOT
BRANCH   7  11
HETATM   11  C   UNL     1      42.988 -16.791   1.898  1.00  0.00     0.275 C 
HETATM   12  N   UNL     1      43.759 -16.621   3.040  1.00  0.00    -0.263 N 
HETATM   13  H   UNL     1      44.604 -17.186   2.992  1.00  0.00     0.190 HD
HETATM   14  O   UNL     1      43.478 -17.406   0.949  1.00  0.00    -0.266 OA
BRANCH  12  15
HETATM   15  N   UNL     1      43.192 -16.551   4.329  1.00  0.00    -0.274 N 
HETATM   16  H   UNL     1      42.492 -15.833   4.493  1.00  0.00     0.189 HD
BRANCH  15  17
HETATM   17  C   UNL     1      43.668 -17.317   5.364  1.00  0.00     0.186 C 
HETATM   18  S   UNL     1      44.164 -16.740   6.853  1.00  0.00    -0.040 SA
BRANCH  17  19
HETATM   19  N   UNL     1      43.707 -18.664   5.162  1.00  0.00    -0.360 N 
HETATM   20  H   UNL     1      42.812 -19.069   4.914  1.00  0.00     0.162 HD
BRANCH  19  21
HETATM   21  C   UNL     1      44.871 -19.520   5.035  1.00  0.00     0.187 C 
BRANCH  21  22
HETATM   22  C   UNL     1      44.644 -20.514   3.963  1.00  0.00     0.070 A 
HETATM   23  O   UNL     1      44.810 -21.826   4.302  1.00  0.00    -0.325 OA
HETATM   24  C   UNL     1      44.543 -22.557   3.187  1.00  0.00     0.142 A 
HETATM   25  C   UNL     1      44.226 -21.731   2.135  1.00  0.00     0.027 A 
HETATM   26  C   UNL     1      44.291 -20.409   2.634  1.00  0.00     0.036 A 
ENDBRANCH  21  22
ENDBRANCH  19  21
ENDBRANCH  17  19
ENDBRANCH  15  17
ENDBRANCH  12  15
ENDBRANCH   7  11
BRANCH   1  27
HETATM   27  C   UNL     1      41.721 -12.212  -0.259  1.00  0.00    -0.035 A 
HETATM   28  C   UNL     1      41.308 -11.008  -0.853  1.00  0.00     0.012 A 
HETATM   29  C   UNL     1      41.447 -10.797  -2.228  1.00  0.00     0.037 A 
HETATM   30  C   UNL     1      41.998 -11.778  -3.048  1.00  0.00     0.068 A 
HETATM   31  C   UNL     1      42.381 -12.993  -2.485  1.00  0.00     0.037 A 
HETATM   32  C   UNL     1      42.236 -13.209  -1.107  1.00  0.00     0.012 A 
BRANCH  30  33
HETATM   33  O   UNL     1      42.091 -11.440  -4.369  1.00  0.00    -0.356 OA
HETATM   34  C   UNL     1      42.496 -10.107  -4.656  1.00  0.00     0.210 C 
ENDBRANCH  30  33
ENDBRANCH   1  27
BRANCH   8  35
HETATM   35  C   UNL     1      38.579 -13.523   0.159  1.00  0.00     0.409 C 
HETATM   36  F   UNL     1      38.420 -12.286  -0.344  1.00  0.00    -0.169 F 
HETATM   37  F   UNL     1      39.261 -14.248  -0.760  1.00  0.00    -0.169 F 
HETATM   38  F   UNL     1      37.343 -14.086   0.232  1.00  0.00    -0.169 F 
ENDBRANCH   8  35
TORSDOF 9
ENDMDL
