MODEL 1
REMARK VINA RESULT:      -8.9      0.000      0.000
REMARK  5 active torsions:
REMARK  status: ('A' for Active; 'I' for Inactive)
REMARK    1  A    between atoms: C_5  and  C_6 
REMARK    2  A    between atoms: C_9  and  O_10 
REMARK    3  A    between atoms: O_10  and  C_11 
REMARK    4  A    between atoms: C_11  and  C_12 
REMARK       I    between atoms: C_12  and  N_13 
REMARK    5  A    between atoms: N_13  and  C_14 
ROOT
HETATM    1  C   UNL     1      45.048 -14.085   6.966  1.00  0.00     0.278 C 
ENDROOT
BRANCH   1   2
HETATM    2  O   UNL     1      44.204 -15.153   7.388  1.00  0.00    -0.342 OA
BRANCH   2   3
HETATM    3  C   UNL     1      44.187 -16.261   6.581  1.00  0.00     0.069 A 
HETATM    4  C   UNL     1      43.428 -16.414   5.419  1.00  0.00     0.038 A 
HETATM    5  C   UNL     1      43.499 -17.600   4.679  1.00  0.00     0.018 A 
HETATM    6  C   UNL     1      44.330 -18.653   5.085  1.00  0.00     0.015 A 
HETATM    7  C   UNL     1      45.091 -18.492   6.250  1.00  0.00     0.018 A 
HETATM    8  C   UNL     1      45.019 -17.305   6.989  1.00  0.00     0.038 A 
BRANCH   6   9
HETATM    9  C   UNL     1      44.393 -19.881   4.302  1.00  0.00     0.198 A 
HETATM   10  N   UNL     1      44.726 -21.099   4.855  1.00  0.00    -0.136 NA
HETATM   11  N   UNL     1      44.683 -21.993   3.878  1.00  0.00     0.024 NA
HETATM   12  N   UNL     1      44.335 -21.287   2.793  1.00  0.00    -0.196 N 
HETATM   13  C   UNL     1      44.158 -21.906   1.508  1.00  0.00     0.200 C 
HETATM   14  N   UNL     1      44.139 -19.971   2.984  1.00  0.00    -0.137 NA
ENDBRANCH   6   9
ENDBRANCH   2   3
ENDBRANCH   1   2
BRANCH   1  15
HETATM   15  C   UNL     1      45.138 -12.950   7.990  1.00  0.00     0.246 C 
HETATM   16  N   UNL     1      43.919 -12.627   8.559  1.00  0.00    -0.325 N 
HETATM   17  H   UNL     1      43.129 -13.164   8.214  1.00  0.00     0.169 HD
HETATM   18  O   UNL     1      46.226 -12.441   8.246  1.00  0.00    -0.271 OA
BRANCH  16  19
HETATM   19  C   UNL     1      43.654 -11.651   9.541  1.00  0.00     0.036 A 
HETATM   20  C   UNL     1      42.673 -10.663   9.396  1.00  0.00     0.059 A 
HETATM   21  C   UNL     1      42.498  -9.743  10.441  1.00  0.00     0.044 A 
HETATM   22  C   UNL     1      43.258  -9.773  11.609  1.00  0.00    -0.008 A 
HETATM   23  N   UNL     1      41.617  -8.690  10.555  1.00  0.00    -0.365 N 
HETATM   24  C   UNL     1      44.242 -10.768  11.744  1.00  0.00     0.016 A 
HETATM   25  C   UNL     1      42.807  -8.701  12.428  1.00  0.00     0.030 A 
HETATM   26  C   UNL     1      44.426 -11.696  10.707  1.00  0.00     0.030 A 
HETATM   27  C   UNL     1      41.796  -8.053  11.755  1.00  0.00     0.089 A 
HETATM   28  H   UNL     1      40.941  -8.433   9.849  1.00  0.00     0.165 HD
ENDBRANCH  16  19
ENDBRANCH   1  15
TORSDOF 5
ENDMDL
MODEL 2
REMARK VINA RESULT:      -8.5      3.015     10.561
REMARK  5 active torsions:
REMARK  status: ('A' for Active; 'I' for Inactive)
REMARK    1  A    between atoms: C_5  and  C_6 
REMARK    2  A    between atoms: C_9  and  O_10 
REMARK    3  A    between atoms: O_10  and  C_11 
REMARK    4  A    between atoms: C_11  and  C_12 
REMARK       I    between atoms: C_12  and  N_13 
REMARK    5  A    between atoms: N_13  and  C_14 
ROOT
HETATM    1  C   UNL     1      45.715 -12.413   8.609  1.00  0.00     0.278 C 
ENDROOT
BRANCH   1   2
HETATM    2  O   UNL     1      45.267 -12.930   9.859  1.00  0.00    -0.342 OA
BRANCH   2   3
HETATM    3  C   UNL     1      44.592 -12.051  10.666  1.00  0.00     0.069 A 
HETATM    4  C   UNL     1      44.514 -10.670  10.485  1.00  0.00     0.038 A 
HETATM    5  C   UNL     1      43.788  -9.879  11.384  1.00  0.00     0.018 A 
HETATM    6  C   UNL     1      43.127 -10.453  12.478  1.00  0.00     0.015 A 
HETATM    7  C   UNL     1      43.206 -11.841  12.652  1.00  0.00     0.018 A 
HETATM    8  C   UNL     1      43.932 -12.631  11.752  1.00  0.00     0.038 A 
BRANCH   6   9
HETATM    9  C   UNL     1      42.375  -9.615  13.403  1.00  0.00     0.198 A 
HETATM   10  N   UNL     1      42.845  -9.282  14.655  1.00  0.00    -0.136 NA
HETATM   11  N   UNL     1      41.927  -8.515  15.223  1.00  0.00     0.024 NA
HETATM   12  N   UNL     1      40.954  -8.421  14.306  1.00  0.00    -0.196 N 
HETATM   13  C   UNL     1      39.767  -7.643  14.532  1.00  0.00     0.200 C 
HETATM   14  N   UNL     1      41.166  -9.079  13.152  1.00  0.00    -0.137 NA
ENDBRANCH   6   9
ENDBRANCH   2   3
ENDBRANCH   1   2
BRANCH   1  15
HETATM   15  C   UNL     1      45.455 -13.364   7.438  1.00  0.00     0.246 C 
HETATM   16  N   UNL     1      44.346 -14.170   7.622  1.00  0.00    -0.325 N 
HETATM   17  H   UNL     1      43.866 -14.042   8.508  1.00  0.00     0.169 HD
HETATM   18  O   UNL     1      46.190 -13.340   6.454  1.00  0.00    -0.271 OA
BRANCH  16  19
HETATM   19  C   UNL     1      43.821 -15.135   6.738  1.00  0.00     0.036 A 
HETATM   20  C   UNL     1      42.796 -14.862   5.824  1.00  0.00     0.059 A 
HETATM   21  C   UNL     1      42.353 -15.902   4.993  1.00  0.00     0.044 A 
HETATM   22  C   UNL     1      42.888 -17.187   5.042  1.00  0.00    -0.008 A 
HETATM   23  N   UNL     1      41.377 -15.903   4.022  1.00  0.00    -0.365 N 
HETATM   24  C   UNL     1      43.916 -17.453   5.964  1.00  0.00     0.016 A 
HETATM   25  C   UNL     1      42.199 -17.963   4.069  1.00  0.00     0.030 A 
HETATM   26  C   UNL     1      44.370 -16.421   6.801  1.00  0.00     0.030 A 
HETATM   27  C   UNL     1      41.276 -17.147   3.456  1.00  0.00     0.089 A 
HETATM   28  H   UNL     1      40.821 -15.097   3.771  1.00  0.00     0.165 HD
ENDBRANCH  16  19
ENDBRANCH   1  15
TORSDOF 5
ENDMDL
MODEL 3
REMARK VINA RESULT:      -8.3      7.705     11.637
REMARK  5 active torsions:
REMARK  status: ('A' for Active; 'I' for Inactive)
REMARK    1  A    between atoms: C_5  and  C_6 
REMARK    2  A    between atoms: C_9  and  O_10 
REMARK    3  A    between atoms: O_10  and  C_11 
REMARK    4  A    between atoms: C_11  and  C_12 
REMARK       I    between atoms: C_12  and  N_13 
REMARK    5  A    between atoms: N_13  and  C_14 
ROOT
HETATM    1  C   UNL     1      41.378 -14.885   1.198  1.00  0.00     0.278 C 
ENDROOT
BRANCH   1   2
HETATM    2  O   UNL     1      41.777 -14.819  -0.169  1.00  0.00    -0.342 OA
BRANCH   2   3
HETATM    3  C   UNL     1      40.766 -14.683  -1.084  1.00  0.00     0.069 A 
HETATM    4  C   UNL     1      40.763 -15.199  -2.381  1.00  0.00     0.038 A 
HETATM    5  C   UNL     1      39.664 -14.989  -3.223  1.00  0.00     0.018 A 
HETATM    6  C   UNL     1      38.549 -14.262  -2.784  1.00  0.00     0.015 A 
HETATM    7  C   UNL     1      38.557 -13.750  -1.480  1.00  0.00     0.018 A 
HETATM    8  C   UNL     1      39.657 -13.960  -0.639  1.00  0.00     0.038 A 
BRANCH   6   9
HETATM    9  C   UNL     1      37.412 -14.055  -3.673  1.00  0.00     0.198 A 
HETATM   10  N   UNL     1      36.935 -15.038  -4.512  1.00  0.00    -0.136 NA
HETATM   11  N   UNL     1      35.906 -14.523  -5.167  1.00  0.00     0.024 NA
HETATM   12  N   UNL     1      35.808 -13.269  -4.705  1.00  0.00    -0.196 N 
HETATM   13  C   UNL     1      34.783 -12.368  -5.158  1.00  0.00     0.200 C 
HETATM   14  N   UNL     1      36.711 -12.911  -3.775  1.00  0.00    -0.137 NA
ENDBRANCH   6   9
ENDBRANCH   2   3
ENDBRANCH   1   2
BRANCH   1  15
HETATM   15  C   UNL     1      41.538 -16.282   1.804  1.00  0.00     0.246 C 
HETATM   16  N   UNL     1      42.857 -16.639   2.018  1.00  0.00    -0.325 N 
HETATM   17  H   UNL     1      43.541 -15.945   1.732  1.00  0.00     0.169 HD
HETATM   18  O   UNL     1      40.544 -16.953   2.067  1.00  0.00    -0.271 OA
BRANCH  16  19
HETATM   19  C   UNL     1      43.350 -17.837   2.574  1.00  0.00     0.036 A 
HETATM   20  C   UNL     1      43.357 -19.057   1.885  1.00  0.00     0.059 A 
HETATM   21  C   UNL     1      43.873 -20.185   2.540  1.00  0.00     0.044 A 
HETATM   22  C   UNL     1      44.373 -20.142   3.839  1.00  0.00    -0.008 A 
HETATM   23  N   UNL     1      43.998 -21.484   2.098  1.00  0.00    -0.365 N 
HETATM   24  C   UNL     1      44.360 -18.913   4.523  1.00  0.00     0.016 A 
HETATM   25  C   UNL     1      44.802 -21.458   4.167  1.00  0.00     0.030 A 
HETATM   26  C   UNL     1      43.849 -17.775   3.879  1.00  0.00     0.030 A 
HETATM   27  C   UNL     1      44.560 -22.262   3.076  1.00  0.00     0.089 A 
HETATM   28  H   UNL     1      43.713 -21.805   1.184  1.00  0.00     0.165 HD
ENDBRANCH  16  19
ENDBRANCH   1  15
TORSDOF 5
ENDMDL
MODEL 4
REMARK VINA RESULT:      -8.3      2.222      2.670
REMARK  5 active torsions:
REMARK  status: ('A' for Active; 'I' for Inactive)
REMARK    1  A    between atoms: C_5  and  C_6 
REMARK    2  A    between atoms: C_9  and  O_10 
REMARK    3  A    between atoms: O_10  and  C_11 
REMARK    4  A    between atoms: C_11  and  C_12 
REMARK       I    between atoms: C_12  and  N_13 
REMARK    5  A    between atoms: N_13  and  C_14 
ROOT
HETATM    1  C   UNL     1      45.475 -12.781   8.142  1.00  0.00     0.278 C 
ENDROOT
BRANCH   1   2
HETATM    2  O   UNL     1      44.715 -13.973   8.326  1.00  0.00    -0.342 OA
BRANCH   2   3
HETATM    3  C   UNL     1      44.255 -14.576   7.183  1.00  0.00     0.069 A 
HETATM    4  C   UNL     1      43.979 -13.934   5.975  1.00  0.00     0.038 A 
HETATM    5  C   UNL     1      43.513 -14.666   4.877  1.00  0.00     0.018 A 
HETATM    6  C   UNL     1      43.315 -16.050   4.965  1.00  0.00     0.015 A 
HETATM    7  C   UNL     1      43.597 -16.689   6.179  1.00  0.00     0.018 A 
HETATM    8  C   UNL     1      44.064 -15.956   7.277  1.00  0.00     0.038 A 
BRANCH   6   9
HETATM    9  C   UNL     1      42.830 -16.797   3.811  1.00  0.00     0.198 A 
HETATM   10  N   UNL     1      43.191 -18.105   3.565  1.00  0.00    -0.136 NA
HETATM   11  N   UNL     1      42.575 -18.474   2.453  1.00  0.00     0.024 NA
HETATM   12  N   UNL     1      41.880 -17.391   2.078  1.00  0.00    -0.196 N 
HETATM   13  C   UNL     1      41.046 -17.390   0.907  1.00  0.00     0.200 C 
HETATM   14  N   UNL     1      41.992 -16.314   2.874  1.00  0.00    -0.137 NA
ENDBRANCH   6   9
ENDBRANCH   2   3
ENDBRANCH   1   2
BRANCH   1  15
HETATM   15  C   UNL     1      45.080 -11.663   9.110  1.00  0.00     0.246 C 
HETATM   16  N   UNL     1      43.891 -11.905   9.772  1.00  0.00    -0.325 N 
HETATM   17  H   UNL     1      43.429 -12.774   9.521  1.00  0.00     0.169 HD
HETATM   18  O   UNL     1      45.810 -10.685   9.247  1.00  0.00    -0.271 OA
BRANCH  16  19
HETATM   19  C   UNL     1      43.256 -11.095  10.736  1.00  0.00     0.036 A 
HETATM   20  C   UNL     1      42.463  -9.989  10.408  1.00  0.00     0.059 A 
HETATM   21  C   UNL     1      41.881  -9.255  11.453  1.00  0.00     0.044 A 
HETATM   22  C   UNL     1      42.061  -9.580  12.795  1.00  0.00    -0.008 A 
HETATM   23  N   UNL     1      41.069  -8.143  11.408  1.00  0.00    -0.365 N 
HETATM   24  C   UNL     1      42.860 -10.692  13.116  1.00  0.00     0.016 A 
HETATM   25  C   UNL     1      41.332  -8.626  13.558  1.00  0.00     0.030 A 
HETATM   26  C   UNL     1      43.447 -11.436  12.080  1.00  0.00     0.030 A 
HETATM   27  C   UNL     1      40.731  -7.755  12.678  1.00  0.00     0.089 A 
HETATM   28  H   UNL     1      40.772  -7.688  10.556  1.00  0.00     0.165 HD
ENDBRANCH  16  19
ENDBRANCH   1  15
TORSDOF 5
ENDMDL
MODEL 5
REMARK VINA RESULT:      -8.2      5.036      9.813
REMARK  5 active torsions:
REMARK  status: ('A' for Active; 'I' for Inactive)
REMARK    1  A    between atoms: C_5  and  C_6 
REMARK    2  A    between atoms: C_9  and  O_10 
REMARK    3  A    between atoms: O_10  and  C_11 
REMARK    4  A    between atoms: C_11  and  C_12 
REMARK       I    between atoms: C_12  and  N_13 
REMARK    5  A    between atoms: N_13  and  C_14 
ROOT
HETATM    1  C   UNL     1      42.785 -14.988   5.843  1.00  0.00     0.278 C 
ENDROOT
BRANCH   1   2
HETATM    2  O   UNL     1      41.686 -14.175   5.442  1.00  0.00    -0.342 OA
BRANCH   2   3
HETATM    3  C   UNL     1      41.449 -14.107   4.093  1.00  0.00     0.069 A 
HETATM    4  C   UNL     1      42.338 -13.628   3.130  1.00  0.00     0.038 A 
HETATM    5  C   UNL     1      41.974 -13.612   1.778  1.00  0.00     0.018 A 
HETATM    6  C   UNL     1      40.717 -14.074   1.364  1.00  0.00     0.015 A 
HETATM    7  C   UNL     1      39.831 -14.556   2.336  1.00  0.00     0.018 A 
HETATM    8  C   UNL     1      40.196 -14.572   3.688  1.00  0.00     0.038 A 
BRANCH   6   9
HETATM    9  C   UNL     1      40.355 -14.051  -0.047  1.00  0.00     0.198 A 
HETATM   10  N   UNL     1      39.049 -13.959  -0.479  1.00  0.00    -0.136 NA
HETATM   11  N   UNL     1      39.078 -13.958  -1.803  1.00  0.00     0.024 NA
HETATM   12  N   UNL     1      40.379 -14.051  -2.110  1.00  0.00    -0.196 N 
HETATM   13  C   UNL     1      40.840 -14.059  -3.472  1.00  0.00     0.200 C 
HETATM   14  N   UNL     1      41.228 -14.112  -1.070  1.00  0.00    -0.137 NA
ENDBRANCH   6   9
ENDBRANCH   2   3
ENDBRANCH   1   2
BRANCH   1  15
HETATM   15  C   UNL     1      42.647 -16.446   5.397  1.00  0.00     0.246 C 
HETATM   16  N   UNL     1      43.558 -16.810   4.423  1.00  0.00    -0.325 N 
HETATM   17  H   UNL     1      44.181 -16.068   4.119  1.00  0.00     0.169 HD
HETATM   18  O   UNL     1      41.800 -17.168   5.917  1.00  0.00    -0.271 OA
BRANCH  16  19
HETATM   19  C   UNL     1      43.714 -18.071   3.812  1.00  0.00     0.036 A 
HETATM   20  C   UNL     1      44.218 -19.193   4.483  1.00  0.00     0.059 A 
HETATM   21  C   UNL     1      44.329 -20.397   3.772  1.00  0.00     0.044 A 
HETATM   22  C   UNL     1      43.961 -20.521   2.434  1.00  0.00    -0.008 A 
HETATM   23  N   UNL     1      44.783 -21.630   4.186  1.00  0.00    -0.365 N 
HETATM   24  C   UNL     1      43.458 -19.390   1.768  1.00  0.00     0.016 A 
HETATM   25  C   UNL     1      44.212 -21.869   2.055  1.00  0.00     0.030 A 
HETATM   26  C   UNL     1      43.340 -18.178   2.468  1.00  0.00     0.030 A 
HETATM   27  C   UNL     1      44.716 -22.528   3.153  1.00  0.00     0.089 A 
HETATM   28  H   UNL     1      45.116 -21.832   5.118  1.00  0.00     0.165 HD
ENDBRANCH  16  19
ENDBRANCH   1  15
TORSDOF 5
ENDMDL
MODEL 6
REMARK VINA RESULT:      -8.2      8.010     11.467
REMARK  5 active torsions:
REMARK  status: ('A' for Active; 'I' for Inactive)
REMARK    1  A    between atoms: C_5  and  C_6 
REMARK    2  A    between atoms: C_9  and  O_10 
REMARK    3  A    between atoms: O_10  and  C_11 
REMARK    4  A    between atoms: C_11  and  C_12 
REMARK       I    between atoms: C_12  and  N_13 
REMARK    5  A    between atoms: N_13  and  C_14 
ROOT
HETATM    1  C   UNL     1      41.448 -15.106   0.585  1.00  0.00     0.278 C 
ENDROOT
BRANCH   1   2
HETATM    2  O   UNL     1      41.741 -15.068  -0.809  1.00  0.00    -0.342 OA
BRANCH   2   3
HETATM    3  C   UNL     1      40.672 -14.867  -1.643  1.00  0.00     0.069 A 
HETATM    4  C   UNL     1      40.546 -15.360  -2.943  1.00  0.00     0.038 A 
HETATM    5  C   UNL     1      39.399 -15.083  -3.696  1.00  0.00     0.018 A 
HETATM    6  C   UNL     1      38.357 -14.310  -3.164  1.00  0.00     0.015 A 
HETATM    7  C   UNL     1      38.489 -13.822  -1.858  1.00  0.00     0.018 A 
HETATM    8  C   UNL     1      39.637 -14.100  -1.106  1.00  0.00     0.038 A 
BRANCH   6   9
HETATM    9  C   UNL     1      37.169 -14.033  -3.961  1.00  0.00     0.198 A 
HETATM   10  N   UNL     1      36.590 -14.972  -4.787  1.00  0.00    -0.136 NA
HETATM   11  N   UNL     1      35.539 -14.398  -5.351  1.00  0.00     0.024 NA
HETATM   12  N   UNL     1      35.528 -13.154  -4.851  1.00  0.00    -0.196 N 
HETATM   13  C   UNL     1      34.511 -12.201  -5.205  1.00  0.00     0.200 C 
HETATM   14  N   UNL     1      36.510 -12.859  -3.982  1.00  0.00    -0.137 NA
ENDBRANCH   6   9
ENDBRANCH   2   3
ENDBRANCH   1   2
BRANCH   1  15
HETATM   15  C   UNL     1      41.670 -16.487   1.208  1.00  0.00     0.246 C 
HETATM   16  N   UNL     1      42.805 -16.557   1.995  1.00  0.00    -0.325 N 
HETATM   17  H   UNL     1      43.348 -15.701   2.042  1.00  0.00     0.169 HD
HETATM   18  O   UNL     1      40.863 -17.389   1.001  1.00  0.00    -0.271 OA
BRANCH  16  19
HETATM   19  C   UNL     1      43.287 -17.666   2.721  1.00  0.00     0.036 A 
HETATM   20  C   UNL     1      43.114 -17.812   4.103  1.00  0.00     0.059 A 
HETATM   21  C   UNL     1      43.638 -18.958   4.720  1.00  0.00     0.044 A 
HETATM   22  C   UNL     1      44.318 -19.950   4.017  1.00  0.00    -0.008 A 
HETATM   23  N   UNL     1      43.607 -19.343   6.042  1.00  0.00    -0.365 N 
HETATM   24  C   UNL     1      44.488 -19.794   2.630  1.00  0.00     0.016 A 
HETATM   25  C   UNL     1      44.698 -20.944   4.960  1.00  0.00     0.030 A 
HETATM   26  C   UNL     1      43.967 -18.652   1.999  1.00  0.00     0.030 A 
HETATM   27  C   UNL     1      44.247 -20.545   6.198  1.00  0.00     0.089 A 
HETATM   28  H   UNL     1      43.173 -18.809   6.782  1.00  0.00     0.165 HD
ENDBRANCH  16  19
ENDBRANCH   1  15
TORSDOF 5
ENDMDL
MODEL 7
REMARK VINA RESULT:      -8.1      4.683      9.791
REMARK  5 active torsions:
REMARK  status: ('A' for Active; 'I' for Inactive)
REMARK    1  A    between atoms: C_5  and  C_6 
REMARK    2  A    between atoms: C_9  and  O_10 
REMARK    3  A    between atoms: O_10  and  C_11 
REMARK    4  A    between atoms: C_11  and  C_12 
REMARK       I    between atoms: C_12  and  N_13 
REMARK    5  A    between atoms: N_13  and  C_14 
ROOT
HETATM    1  C   UNL     1      43.451 -15.597   6.960  1.00  0.00     0.278 C 
ENDROOT
BRANCH   1   2
HETATM    2  O   UNL     1      43.494 -14.490   6.063  1.00  0.00    -0.342 OA
BRANCH   2   3
HETATM    3  C   UNL     1      42.401 -14.329   5.252  1.00  0.00     0.069 A 
HETATM    4  C   UNL     1      41.067 -14.377   5.660  1.00  0.00     0.038 A 
HETATM    5  C   UNL     1      40.036 -14.197   4.730  1.00  0.00     0.018 A 
HETATM    6  C   UNL     1      40.319 -13.964   3.377  1.00  0.00     0.015 A 
HETATM    7  C   UNL     1      41.660 -13.914   2.975  1.00  0.00     0.018 A 
HETATM    8  C   UNL     1      42.690 -14.094   3.907  1.00  0.00     0.038 A 
BRANCH   6   9
HETATM    9  C   UNL     1      39.234 -13.777   2.422  1.00  0.00     0.198 A 
HETATM   10  N   UNL     1      38.679 -14.820   1.713  1.00  0.00    -0.136 NA
HETATM   11  N   UNL     1      37.727 -14.307   0.949  1.00  0.00     0.024 NA
HETATM   12  N   UNL     1      37.748 -12.995   1.224  1.00  0.00    -0.196 N 
HETATM   13  C   UNL     1      36.834 -12.074   0.605  1.00  0.00     0.200 C 
HETATM   14  N   UNL     1      38.658 -12.596   2.129  1.00  0.00    -0.137 NA
ENDBRANCH   6   9
ENDBRANCH   2   3
ENDBRANCH   1   2
BRANCH   1  15
HETATM   15  C   UNL     1      43.187 -16.930   6.255  1.00  0.00     0.246 C 
HETATM   16  N   UNL     1      44.041 -17.168   5.194  1.00  0.00    -0.325 N 
HETATM   17  H   UNL     1      44.711 -16.428   5.009  1.00  0.00     0.169 HD
HETATM   18  O   UNL     1      42.300 -17.674   6.664  1.00  0.00    -0.271 OA
BRANCH  16  19
HETATM   19  C   UNL     1      44.081 -18.298   4.352  1.00  0.00     0.036 A 
HETATM   20  C   UNL     1      44.460 -19.572   4.794  1.00  0.00     0.059 A 
HETATM   21  C   UNL     1      44.462 -20.623   3.864  1.00  0.00     0.044 A 
HETATM   22  C   UNL     1      44.107 -20.451   2.529  1.00  0.00    -0.008 A 
HETATM   23  N   UNL     1      44.786 -21.951   4.033  1.00  0.00    -0.365 N 
HETATM   24  C   UNL     1      43.729 -19.169   2.094  1.00  0.00     0.016 A 
HETATM   25  C   UNL     1      44.229 -21.720   1.897  1.00  0.00     0.030 A 
HETATM   26  C   UNL     1      43.720 -18.107   3.013  1.00  0.00     0.030 A 
HETATM   27  C   UNL     1      44.647 -22.624   2.847  1.00  0.00     0.089 A 
HETATM   28  H   UNL     1      45.081 -22.360   4.909  1.00  0.00     0.165 HD
ENDBRANCH  16  19
ENDBRANCH   1  15
TORSDOF 5
ENDMDL
MODEL 8
REMARK VINA RESULT:      -8.0      5.668      8.662
REMARK  5 active torsions:
REMARK  status: ('A' for Active; 'I' for Inactive)
REMARK    1  A    between atoms: C_5  and  C_6 
REMARK    2  A    between atoms: C_9  and  O_10 
REMARK    3  A    between atoms: O_10  and  C_11 
REMARK    4  A    between atoms: C_11  and  C_12 
REMARK       I    between atoms: C_12  and  N_13 
REMARK    5  A    between atoms: N_13  and  C_14 
ROOT
HETATM    1  C   UNL     1      39.843 -14.152   4.827  1.00  0.00     0.278 C 
ENDROOT
BRANCH   1   2
HETATM    2  O   UNL     1      41.123 -14.460   5.375  1.00  0.00    -0.342 OA
BRANCH   2   3
HETATM    3  C   UNL     1      41.661 -15.665   5.007  1.00  0.00     0.069 A 
HETATM    4  C   UNL     1      41.194 -16.922   5.394  1.00  0.00     0.038 A 
HETATM    5  C   UNL     1      41.835 -18.083   4.947  1.00  0.00     0.018 A 
HETATM    6  C   UNL     1      42.953 -18.010   4.105  1.00  0.00     0.015 A 
HETATM    7  C   UNL     1      43.416 -16.745   3.717  1.00  0.00     0.018 A 
HETATM    8  C   UNL     1      42.773 -15.584   4.165  1.00  0.00     0.038 A 
BRANCH   6   9
HETATM    9  C   UNL     1      43.609 -19.229   3.647  1.00  0.00     0.198 A 
HETATM   10  N   UNL     1      44.604 -19.853   4.367  1.00  0.00    -0.136 NA
HETATM   11  N   UNL     1      44.970 -20.922   3.676  1.00  0.00     0.024 NA
HETATM   12  N   UNL     1      44.194 -20.898   2.584  1.00  0.00    -0.196 N 
HETATM   13  C   UNL     1      44.269 -21.918   1.574  1.00  0.00     0.200 C 
HETATM   14  N   UNL     1      43.326 -19.875   2.501  1.00  0.00    -0.137 NA
ENDBRANCH   6   9
ENDBRANCH   2   3
ENDBRANCH   1   2
BRANCH   1  15
HETATM   15  C   UNL     1      39.916 -13.628   3.391  1.00  0.00     0.246 C 
HETATM   16  N   UNL     1      39.632 -14.591   2.440  1.00  0.00    -0.325 N 
HETATM   17  H   UNL     1      39.433 -15.514   2.811  1.00  0.00     0.169 HD
HETATM   18  O   UNL     1      40.187 -12.448   3.183  1.00  0.00    -0.271 OA
BRANCH  16  19
HETATM   19  C   UNL     1      39.593 -14.438   1.039  1.00  0.00     0.036 A 
HETATM   20  C   UNL     1      40.673 -14.747   0.202  1.00  0.00     0.059 A 
HETATM   21  C   UNL     1      40.519 -14.554  -1.179  1.00  0.00     0.044 A 
HETATM   22  C   UNL     1      39.343 -14.072  -1.748  1.00  0.00    -0.008 A 
HETATM   23  N   UNL     1      41.409 -14.776  -2.207  1.00  0.00    -0.365 N 
HETATM   24  C   UNL     1      38.264 -13.764  -0.900  1.00  0.00     0.016 A 
HETATM   25  C   UNL     1      39.554 -14.008  -3.153  1.00  0.00     0.030 A 
HETATM   26  C   UNL     1      38.404 -13.953   0.484  1.00  0.00     0.030 A 
HETATM   27  C   UNL     1      40.833 -14.449  -3.407  1.00  0.00     0.089 A 
HETATM   28  H   UNL     1      42.347 -15.130  -2.083  1.00  0.00     0.165 HD
ENDBRANCH  16  19
ENDBRANCH   1  15
TORSDOF 5
ENDMDL
MODEL 9
REMARK VINA RESULT:      -7.9      8.153     10.202
REMARK  5 active torsions:
REMARK  status: ('A' for Active; 'I' for Inactive)
REMARK    1  A    between atoms: C_5  and  C_6 
REMARK    2  A    between atoms: C_9  and  O_10 
REMARK    3  A    between atoms: O_10  and  C_11 
REMARK    4  A    between atoms: C_11  and  C_12 
REMARK       I    between atoms: C_12  and  N_13 
REMARK    5  A    between atoms: N_13  and  C_14 
ROOT
HETATM    1  C   UNL     1      41.249 -15.778  -0.512  1.00  0.00     0.278 C 
ENDROOT
BRANCH   1   2
HETATM    2  O   UNL     1      42.085 -15.600   0.628  1.00  0.00    -0.342 OA
BRANCH   2   3
HETATM    3  C   UNL     1      42.637 -16.740   1.154  1.00  0.00     0.069 A 
HETATM    4  C   UNL     1      43.981 -16.921   1.482  1.00  0.00     0.038 A 
HETATM    5  C   UNL     1      44.421 -18.138   2.014  1.00  0.00     0.018 A 
HETATM    6  C   UNL     1      43.527 -19.196   2.230  1.00  0.00     0.015 A 
HETATM    7  C   UNL     1      42.178 -19.006   1.901  1.00  0.00     0.018 A 
HETATM    8  C   UNL     1      41.739 -17.788   1.369  1.00  0.00     0.038 A 
BRANCH   6   9
HETATM    9  C   UNL     1      44.001 -20.456   2.786  1.00  0.00     0.198 A 
HETATM   10  N   UNL     1      44.005 -21.632   2.068  1.00  0.00    -0.136 NA
HETATM   11  N   UNL     1      44.499 -22.570   2.862  1.00  0.00     0.024 NA
HETATM   12  N   UNL     1      44.766 -21.932   4.009  1.00  0.00    -0.196 N 
HETATM   13  C   UNL     1      45.345 -22.607   5.138  1.00  0.00     0.200 C 
HETATM   14  N   UNL     1      44.482 -20.618   4.033  1.00  0.00    -0.137 NA
ENDBRANCH   6   9
ENDBRANCH   2   3
ENDBRANCH   1   2
BRANCH   1  15
HETATM   15  C   UNL     1      40.859 -14.458  -1.183  1.00  0.00     0.246 C 
HETATM   16  N   UNL     1      41.894 -13.878  -1.892  1.00  0.00    -0.325 N 
HETATM   17  H   UNL     1      42.773 -14.385  -1.862  1.00  0.00     0.169 HD
HETATM   18  O   UNL     1      39.712 -14.031  -1.074  1.00  0.00    -0.271 OA
BRANCH  16  19
HETATM   19  C   UNL     1      41.868 -12.680  -2.636  1.00  0.00     0.036 A 
HETATM   20  C   UNL     1      41.003 -12.465  -3.716  1.00  0.00     0.059 A 
HETATM   21  C   UNL     1      41.067 -11.232  -4.382  1.00  0.00     0.044 A 
HETATM   22  C   UNL     1      41.950 -10.220  -4.015  1.00  0.00    -0.008 A 
HETATM   23  N   UNL     1      40.341 -10.769  -5.457  1.00  0.00    -0.365 N 
HETATM   24  C   UNL     1      42.816 -10.444  -2.929  1.00  0.00     0.016 A 
HETATM   25  C   UNL     1      41.734  -9.132  -4.905  1.00  0.00     0.030 A 
HETATM   26  C   UNL     1      42.762 -11.673  -2.252  1.00  0.00     0.030 A 
HETATM   27  C   UNL     1      40.737  -9.498  -5.781  1.00  0.00     0.089 A 
HETATM   28  H   UNL     1      39.622 -11.298  -5.931  1.00  0.00     0.165 HD
ENDBRANCH  16  19
ENDBRANCH   1  15
TORSDOF 5
ENDMDL
MODEL 10
REMARK VINA RESULT:      -7.8      3.623     10.607
REMARK  5 active torsions:
REMARK  status: ('A' for Active; 'I' for Inactive)
REMARK    1  A    between atoms: C_5  and  C_6 
REMARK    2  A    between atoms: C_9  and  O_10 
REMARK    3  A    between atoms: O_10  and  C_11 
REMARK    4  A    between atoms: C_11  and  C_12 
REMARK       I    between atoms: C_12  and  N_13 
REMARK    5  A    between atoms: N_13  and  C_14 
ROOT
HETATM    1  C   UNL     1      42.071 -12.649   2.765  1.00  0.00     0.278 C 
ENDROOT
BRANCH   1   2
HETATM    2  O   UNL     1      40.764 -12.826   3.305  1.00  0.00    -0.342 OA
BRANCH   2   3
HETATM    3  C   UNL     1      40.538 -12.258   4.532  1.00  0.00     0.069 A 
HETATM    4  C   UNL     1      41.128 -11.087   5.012  1.00  0.00     0.038 A 
HETATM    5  C   UNL     1      40.812 -10.609   6.289  1.00  0.00     0.018 A 
HETATM    6  C   UNL     1      39.900 -11.289   7.108  1.00  0.00     0.015 A 
HETATM    7  C   UNL     1      39.309 -12.461   6.619  1.00  0.00     0.018 A 
HETATM    8  C   UNL     1      39.626 -12.939   5.341  1.00  0.00     0.038 A 
BRANCH   6   9
HETATM    9  C   UNL     1      39.581 -10.776   8.434  1.00  0.00     0.198 A 
HETATM   10  N   UNL     1      38.505  -9.947   8.673  1.00  0.00    -0.136 NA
HETATM   11  N   UNL     1      38.504  -9.678   9.970  1.00  0.00     0.024 NA
HETATM   12  N   UNL     1      39.564 -10.342  10.452  1.00  0.00    -0.196 N 
HETATM   13  C   UNL     1      39.902 -10.324  11.849  1.00  0.00     0.200 C 
HETATM   14  N   UNL     1      40.277 -11.045   9.555  1.00  0.00    -0.137 NA
ENDBRANCH   6   9
ENDBRANCH   2   3
ENDBRANCH   1   2
BRANCH   1  15
HETATM   15  C   UNL     1      42.978 -13.864   2.976  1.00  0.00     0.246 C 
HETATM   16  N   UNL     1      42.405 -15.053   2.566  1.00  0.00    -0.325 N 
HETATM   17  H   UNL     1      41.461 -14.971   2.199  1.00  0.00     0.169 HD
HETATM   18  O   UNL     1      44.102 -13.715   3.450  1.00  0.00    -0.271 OA
BRANCH  16  19
HETATM   19  C   UNL     1      42.971 -16.345   2.602  1.00  0.00     0.036 A 
HETATM   20  C   UNL     1      43.300 -17.005   3.792  1.00  0.00     0.059 A 
HETATM   21  C   UNL     1      43.859 -18.289   3.705  1.00  0.00     0.044 A 
HETATM   22  C   UNL     1      44.098 -18.929   2.491  1.00  0.00    -0.008 A 
HETATM   23  N   UNL     1      44.266 -19.146   4.704  1.00  0.00    -0.365 N 
HETATM   24  C   UNL     1      43.765 -18.257   1.302  1.00  0.00     0.016 A 
HETATM   25  C   UNL     1      44.665 -20.198   2.791  1.00  0.00     0.030 A 
HETATM   26  C   UNL     1      43.204 -16.972   1.373  1.00  0.00     0.030 A 
HETATM   27  C   UNL     1      44.755 -20.305   4.161  1.00  0.00     0.089 A 
HETATM   28  H   UNL     1      44.208 -18.940   5.692  1.00  0.00     0.165 HD
ENDBRANCH  16  19
ENDBRANCH   1  15
TORSDOF 5
ENDMDL
