MODEL 1
REMARK VINA RESULT:      -7.8      0.000      0.000
REMARK  7 active torsions:
REMARK  status: ('A' for Active; 'I' for Inactive)
REMARK    1  A    between atoms: C_2  and  N_3 
REMARK    2  A    between atoms: N_3  and  C_4 
REMARK    3  A    between atoms: C_6  and  N_7 
REMARK    4  A    between atoms: N_7  and  C_8 
REMARK    5  A    between atoms: C_8  and  C_9 
REMARK    6  A    between atoms: C_9  and  C_10 
REMARK    7  A    between atoms: C_11  and  O_12 
ROOT
HETATM    1  C   UNL     1      43.891 -18.397   3.174  1.00  0.00     0.119 A 
HETATM    2  N   UNL     1      44.247 -17.853   4.353  1.00  0.00    -0.207 NA
HETATM    3  C   UNL     1      44.733 -18.668   5.297  1.00  0.00     0.181 A 
HETATM    4  N   UNL     1      44.863 -19.979   5.131  1.00  0.00    -0.330 N 
HETATM    5  H   UNL     1      45.169 -20.517   5.931  1.00  0.00     0.168 HD
HETATM    6  C   UNL     1      44.560 -20.564   3.969  1.00  0.00     0.048 A 
HETATM    7  C   UNL     1      44.061 -19.775   2.914  1.00  0.00     0.031 A 
HETATM    8  C   UNL     1      44.742 -21.947   3.810  1.00  0.00     0.030 A 
HETATM    9  C   UNL     1      44.444 -22.556   2.592  1.00  0.00     0.002 A 
HETATM   10  C   UNL     1      43.966 -21.793   1.532  1.00  0.00     0.001 A 
HETATM   11  C   UNL     1      43.776 -20.417   1.687  1.00  0.00     0.017 A 
ENDROOT
BRANCH   3  12
HETATM   12  N   UNL     1      45.026 -18.112   6.527  1.00  0.00    -0.262 NA
HETATM   13  H   UNL     1      46.028 -18.273   6.677  1.00  0.00     0.130 HD
BRANCH  12  14
HETATM   14  C   UNL     1      44.219 -18.500   7.686  1.00  0.00     0.100 C 
BRANCH  14  15
HETATM   15  C   UNL     1      43.326 -17.354   8.187  1.00  0.00     0.056 C 
BRANCH  15  16
HETATM   16  C   UNL     1      42.608 -16.484   7.172  1.00  0.00    -0.024 A 
HETATM   17  C   UNL     1      43.263 -15.325   6.698  1.00  0.00     0.074 A 
HETATM   18  C   UNL     1      42.645 -14.507   5.747  1.00  0.00     0.037 A 
HETATM   19  C   UNL     1      41.372 -14.819   5.272  1.00  0.00     0.003 A 
HETATM   20  C   UNL     1      40.708 -15.944   5.747  1.00  0.00     0.001 A 
HETATM   21  C   UNL     1      41.319 -16.769   6.693  1.00  0.00     0.010 A 
BRANCH  17  22
HETATM   22  O   UNL     1      44.510 -15.092   7.226  1.00  0.00    -0.355 OA
HETATM   23  C   UNL     1      45.143 -13.865   6.879  1.00  0.00     0.210 C 
ENDBRANCH  17  22
ENDBRANCH  15  16
ENDBRANCH  14  15
ENDBRANCH  12  14
ENDBRANCH   3  12
BRANCH   1  24
HETATM   24  N   UNL     1      43.392 -17.563   2.169  1.00  0.00    -0.273 NA
HETATM   25  H   UNL     1      43.220 -18.073   1.305  1.00  0.00     0.129 HD
BRANCH  24  26
HETATM   26  C   UNL     1      42.279 -16.657   2.485  1.00  0.00     0.053 C 
HETATM   27  C   UNL     1      40.934 -17.354   2.277  1.00  0.00     0.026 C 
HETATM   28  C   UNL     1      42.384 -15.445   1.557  1.00  0.00     0.026 C 
ENDBRANCH  24  26
ENDBRANCH   1  24
TORSDOF 7
ENDMDL
MODEL 2
REMARK VINA RESULT:      -7.7      1.949      6.276
REMARK  7 active torsions:
REMARK  status: ('A' for Active; 'I' for Inactive)
REMARK    1  A    between atoms: C_2  and  N_3 
REMARK    2  A    between atoms: N_3  and  C_4 
REMARK    3  A    between atoms: C_6  and  N_7 
REMARK    4  A    between atoms: N_7  and  C_8 
REMARK    5  A    between atoms: C_8  and  C_9 
REMARK    6  A    between atoms: C_9  and  C_10 
REMARK    7  A    between atoms: C_11  and  O_12 
ROOT
HETATM    1  C   UNL     1      44.030 -14.702   6.659  1.00  0.00     0.119 A 
HETATM    2  N   UNL     1      44.356 -15.905   7.170  1.00  0.00    -0.207 NA
HETATM    3  C   UNL     1      43.437 -16.877   7.116  1.00  0.00     0.181 A 
HETATM    4  N   UNL     1      42.225 -16.706   6.602  1.00  0.00    -0.330 N 
HETATM    5  H   UNL     1      41.579 -17.480   6.677  1.00  0.00     0.168 HD
HETATM    6  C   UNL     1      41.864 -15.545   6.048  1.00  0.00     0.048 A 
HETATM    7  C   UNL     1      42.779 -14.475   6.043  1.00  0.00     0.031 A 
HETATM    8  C   UNL     1      40.588 -15.405   5.479  1.00  0.00     0.030 A 
HETATM    9  C   UNL     1      40.217 -14.200   4.884  1.00  0.00     0.002 A 
HETATM   10  C   UNL     1      41.112 -13.135   4.854  1.00  0.00     0.001 A 
HETATM   11  C   UNL     1      42.380 -13.267   5.425  1.00  0.00     0.017 A 
ENDROOT
BRANCH   3  12
HETATM   12  N   UNL     1      43.754 -18.084   7.709  1.00  0.00    -0.262 NA
HETATM   13  H   UNL     1      44.596 -17.911   8.268  1.00  0.00     0.130 HD
BRANCH  12  14
HETATM   14  C   UNL     1      43.882 -19.273   6.862  1.00  0.00     0.100 C 
BRANCH  14  15
HETATM   15  C   UNL     1      44.769 -19.024   5.633  1.00  0.00     0.056 C 
BRANCH  15  16
HETATM   16  C   UNL     1      44.400 -19.678   4.314  1.00  0.00    -0.024 A 
HETATM   17  C   UNL     1      43.632 -18.936   3.388  1.00  0.00     0.074 A 
HETATM   18  C   UNL     1      43.287 -19.494   2.153  1.00  0.00     0.037 A 
HETATM   19  C   UNL     1      43.684 -20.792   1.832  1.00  0.00     0.003 A 
HETATM   20  C   UNL     1      44.420 -21.540   2.744  1.00  0.00     0.001 A 
HETATM   21  C   UNL     1      44.773 -20.989   3.978  1.00  0.00     0.010 A 
BRANCH  17  22
HETATM   22  O   UNL     1      43.280 -17.671   3.791  1.00  0.00    -0.355 OA
HETATM   23  C   UNL     1      43.445 -16.619   2.844  1.00  0.00     0.210 C 
ENDBRANCH  17  22
ENDBRANCH  15  16
ENDBRANCH  14  15
ENDBRANCH  12  14
ENDBRANCH   3  12
BRANCH   1  24
HETATM   24  N   UNL     1      44.978 -13.676   6.693  1.00  0.00    -0.273 NA
HETATM   25  H   UNL     1      44.744 -12.923   6.050  1.00  0.00     0.129 HD
BRANCH  24  26
HETATM   26  C   UNL     1      45.411 -13.150   7.996  1.00  0.00     0.053 C 
HETATM   27  C   UNL     1      44.344 -12.232   8.593  1.00  0.00     0.026 C 
HETATM   28  C   UNL     1      46.707 -12.368   7.779  1.00  0.00     0.026 C 
ENDBRANCH  24  26
ENDBRANCH   1  24
TORSDOF 7
ENDMDL
MODEL 3
REMARK VINA RESULT:      -7.6      2.039      4.530
REMARK  7 active torsions:
REMARK  status: ('A' for Active; 'I' for Inactive)
REMARK    1  A    between atoms: C_2  and  N_3 
REMARK    2  A    between atoms: N_3  and  C_4 
REMARK    3  A    between atoms: C_6  and  N_7 
REMARK    4  A    between atoms: N_7  and  C_8 
REMARK    5  A    between atoms: C_8  and  C_9 
REMARK    6  A    between atoms: C_9  and  C_10 
REMARK    7  A    between atoms: C_11  and  O_12 
ROOT
HETATM    1  C   UNL     1      44.236 -18.499   4.306  1.00  0.00     0.119 A 
HETATM    2  N   UNL     1      43.949 -17.686   3.272  1.00  0.00    -0.207 NA
HETATM    3  C   UNL     1      43.842 -18.234   2.055  1.00  0.00     0.181 A 
HETATM    4  N   UNL     1      44.020 -19.529   1.822  1.00  0.00    -0.330 N 
HETATM    5  H   UNL     1      43.992 -19.833   0.858  1.00  0.00     0.168 HD
HETATM    6  C   UNL     1      44.268 -20.386   2.817  1.00  0.00     0.048 A 
HETATM    7  C   UNL     1      44.377 -19.894   4.133  1.00  0.00     0.031 A 
HETATM    8  C   UNL     1      44.415 -21.755   2.546  1.00  0.00     0.030 A 
HETATM    9  C   UNL     1      44.657 -22.652   3.585  1.00  0.00     0.002 A 
HETATM   10  C   UNL     1      44.750 -22.190   4.894  1.00  0.00     0.001 A 
HETATM   11  C   UNL     1      44.612 -20.828   5.169  1.00  0.00     0.017 A 
ENDROOT
BRANCH   3  12
HETATM   12  N   UNL     1      43.621 -17.382   0.992  1.00  0.00    -0.262 NA
HETATM   13  H   UNL     1      44.206 -16.558   1.165  1.00  0.00     0.130 HD
BRANCH  12  14
HETATM   14  C   UNL     1      42.242 -17.026   0.648  1.00  0.00     0.100 C 
BRANCH  14  15
HETATM   15  C   UNL     1      41.982 -15.517   0.760  1.00  0.00     0.056 C 
BRANCH  15  16
HETATM   16  C   UNL     1      41.890 -14.887   2.138  1.00  0.00    -0.024 A 
HETATM   17  C   UNL     1      40.652 -14.939   2.818  1.00  0.00     0.074 A 
HETATM   18  C   UNL     1      40.529 -14.389   4.098  1.00  0.00     0.037 A 
HETATM   19  C   UNL     1      41.622 -13.771   4.706  1.00  0.00     0.003 A 
HETATM   20  C   UNL     1      42.838 -13.694   4.038  1.00  0.00     0.001 A 
HETATM   21  C   UNL     1      42.972 -14.244   2.762  1.00  0.00     0.010 A 
BRANCH  17  22
HETATM   22  O   UNL     1      39.631 -15.560   2.142  1.00  0.00    -0.355 OA
HETATM   23  C   UNL     1      38.591 -14.731   1.632  1.00  0.00     0.210 C 
ENDBRANCH  17  22
ENDBRANCH  15  16
ENDBRANCH  14  15
ENDBRANCH  12  14
ENDBRANCH   3  12
BRANCH   1  24
HETATM   24  N   UNL     1      44.341 -17.950   5.587  1.00  0.00    -0.273 NA
HETATM   25  H   UNL     1      45.311 -17.831   5.869  1.00  0.00     0.129 HD
BRANCH  24  26
HETATM   26  C   UNL     1      43.537 -16.765   5.921  1.00  0.00     0.053 C 
HETATM   27  C   UNL     1      44.316 -15.821   6.837  1.00  0.00     0.026 C 
HETATM   28  C   UNL     1      42.268 -17.244   6.627  1.00  0.00     0.026 C 
ENDBRANCH  24  26
ENDBRANCH   1  24
TORSDOF 7
ENDMDL
MODEL 4
REMARK VINA RESULT:      -7.3      2.116      4.410
REMARK  7 active torsions:
REMARK  status: ('A' for Active; 'I' for Inactive)
REMARK    1  A    between atoms: C_2  and  N_3 
REMARK    2  A    between atoms: N_3  and  C_4 
REMARK    3  A    between atoms: C_6  and  N_7 
REMARK    4  A    between atoms: N_7  and  C_8 
REMARK    5  A    between atoms: C_8  and  C_9 
REMARK    6  A    between atoms: C_9  and  C_10 
REMARK    7  A    between atoms: C_11  and  O_12 
ROOT
HETATM    1  C   UNL     1      44.264 -18.448   4.434  1.00  0.00     0.119 A 
HETATM    2  N   UNL     1      43.833 -17.534   3.544  1.00  0.00    -0.207 NA
HETATM    3  C   UNL     1      43.546 -17.952   2.306  1.00  0.00     0.181 A 
HETATM    4  N   UNL     1      43.682 -19.213   1.913  1.00  0.00    -0.330 N 
HETATM    5  H   UNL     1      43.511 -19.413   0.937  1.00  0.00     0.168 HD
HETATM    6  C   UNL     1      44.069 -20.167   2.764  1.00  0.00     0.048 A 
HETATM    7  C   UNL     1      44.371 -19.815   4.095  1.00  0.00     0.031 A 
HETATM    8  C   UNL     1      44.169 -21.498   2.331  1.00  0.00     0.030 A 
HETATM    9  C   UNL     1      44.556 -22.497   3.223  1.00  0.00     0.002 A 
HETATM   10  C   UNL     1      44.842 -22.175   4.546  1.00  0.00     0.001 A 
HETATM   11  C   UNL     1      44.752 -20.850   4.981  1.00  0.00     0.017 A 
ENDROOT
BRANCH   3  12
HETATM   12  N   UNL     1      43.176 -16.995   1.382  1.00  0.00    -0.262 NA
HETATM   13  H   UNL     1      43.431 -16.091   1.794  1.00  0.00     0.130 HD
BRANCH  12  14
HETATM   14  C   UNL     1      41.804 -17.005   0.867  1.00  0.00     0.100 C 
BRANCH  14  15
HETATM   15  C   UNL     1      40.766 -16.711   1.961  1.00  0.00     0.056 C 
BRANCH  15  16
HETATM   16  C   UNL     1      40.179 -15.315   2.061  1.00  0.00    -0.024 A 
HETATM   17  C   UNL     1      40.891 -14.338   2.793  1.00  0.00     0.074 A 
HETATM   18  C   UNL     1      40.395 -13.034   2.893  1.00  0.00     0.037 A 
HETATM   19  C   UNL     1      39.187 -12.692   2.285  1.00  0.00     0.003 A 
HETATM   20  C   UNL     1      38.467 -13.651   1.582  1.00  0.00     0.001 A 
HETATM   21  C   UNL     1      38.956 -14.954   1.473  1.00  0.00     0.010 A 
BRANCH  17  22
HETATM   22  O   UNL     1      42.066 -14.764   3.361  1.00  0.00    -0.355 OA
HETATM   23  C   UNL     1      43.201 -13.915   3.223  1.00  0.00     0.210 C 
ENDBRANCH  17  22
ENDBRANCH  15  16
ENDBRANCH  14  15
ENDBRANCH  12  14
ENDBRANCH   3  12
BRANCH   1  24
HETATM   24  N   UNL     1      44.558 -18.036   5.737  1.00  0.00    -0.273 NA
HETATM   25  H   UNL     1      45.516 -17.703   5.821  1.00  0.00     0.129 HD
BRANCH  24  26
HETATM   26  C   UNL     1      43.619 -17.142   6.428  1.00  0.00     0.053 C 
HETATM   27  C   UNL     1      44.261 -15.780   6.695  1.00  0.00     0.026 C 
HETATM   28  C   UNL     1      43.233 -17.802   7.753  1.00  0.00     0.026 C 
ENDBRANCH  24  26
ENDBRANCH   1  24
TORSDOF 7
ENDMDL
MODEL 5
REMARK VINA RESULT:      -7.3      1.258      2.156
REMARK  7 active torsions:
REMARK  status: ('A' for Active; 'I' for Inactive)
REMARK    1  A    between atoms: C_2  and  N_3 
REMARK    2  A    between atoms: N_3  and  C_4 
REMARK    3  A    between atoms: C_6  and  N_7 
REMARK    4  A    between atoms: N_7  and  C_8 
REMARK    5  A    between atoms: C_8  and  C_9 
REMARK    6  A    between atoms: C_9  and  C_10 
REMARK    7  A    between atoms: C_11  and  O_12 
ROOT
HETATM    1  C   UNL     1      43.751 -18.488   3.232  1.00  0.00     0.119 A 
HETATM    2  N   UNL     1      43.848 -17.717   4.333  1.00  0.00    -0.207 NA
HETATM    3  C   UNL     1      44.218 -18.303   5.477  1.00  0.00     0.181 A 
HETATM    4  N   UNL     1      44.476 -19.602   5.580  1.00  0.00    -0.330 N 
HETATM    5  H   UNL     1      44.675 -19.961   6.504  1.00  0.00     0.168 HD
HETATM    6  C   UNL     1      44.433 -20.405   4.513  1.00  0.00     0.048 A 
HETATM    7  C   UNL     1      44.071 -19.863   3.264  1.00  0.00     0.031 A 
HETATM    8  C   UNL     1      44.746 -21.766   4.644  1.00  0.00     0.030 A 
HETATM    9  C   UNL     1      44.719 -22.601   3.528  1.00  0.00     0.002 A 
HETATM   10  C   UNL     1      44.381 -22.084   2.281  1.00  0.00     0.001 A 
HETATM   11  C   UNL     1      44.061 -20.731   2.146  1.00  0.00     0.017 A 
ENDROOT
BRANCH   3  12
HETATM   12  N   UNL     1      44.243 -17.520   6.614  1.00  0.00    -0.262 NA
HETATM   13  H   UNL     1      43.278 -17.495   6.960  1.00  0.00     0.130 HD
BRANCH  12  14
HETATM   14  C   UNL     1      44.842 -16.184   6.537  1.00  0.00     0.100 C 
BRANCH  14  15
HETATM   15  C   UNL     1      43.834 -15.072   6.862  1.00  0.00     0.056 C 
BRANCH  15  16
HETATM   16  C   UNL     1      42.931 -14.551   5.759  1.00  0.00    -0.024 A 
HETATM   17  C   UNL     1      41.640 -15.110   5.628  1.00  0.00     0.074 A 
HETATM   18  C   UNL     1      40.769 -14.645   4.638  1.00  0.00     0.037 A 
HETATM   19  C   UNL     1      41.173 -13.638   3.761  1.00  0.00     0.003 A 
HETATM   20  C   UNL     1      42.449 -13.097   3.866  1.00  0.00     0.001 A 
HETATM   21  C   UNL     1      43.324 -13.551   4.854  1.00  0.00     0.010 A 
BRANCH  17  22
HETATM   22  O   UNL     1      41.329 -16.100   6.529  1.00  0.00    -0.355 OA
HETATM   23  C   UNL     1      40.635 -17.238   6.030  1.00  0.00     0.210 C 
ENDBRANCH  17  22
ENDBRANCH  15  16
ENDBRANCH  14  15
ENDBRANCH  12  14
ENDBRANCH   3  12
BRANCH   1  24
HETATM   24  N   UNL     1      43.378 -17.894   2.023  1.00  0.00    -0.273 NA
HETATM   25  H   UNL     1      43.359 -18.568   1.261  1.00  0.00     0.129 HD
BRANCH  24  26
HETATM   26  C   UNL     1      42.195 -17.023   1.995  1.00  0.00     0.053 C 
HETATM   27  C   UNL     1      41.009 -17.737   1.347  1.00  0.00     0.026 C 
HETATM   28  C   UNL     1      42.553 -15.774   1.188  1.00  0.00     0.026 C 
ENDBRANCH  24  26
ENDBRANCH   1  24
TORSDOF 7
ENDMDL
MODEL 6
REMARK VINA RESULT:      -7.2      3.005      5.620
REMARK  7 active torsions:
REMARK  status: ('A' for Active; 'I' for Inactive)
REMARK    1  A    between atoms: C_2  and  N_3 
REMARK    2  A    between atoms: N_3  and  C_4 
REMARK    3  A    between atoms: C_6  and  N_7 
REMARK    4  A    between atoms: N_7  and  C_8 
REMARK    5  A    between atoms: C_8  and  C_9 
REMARK    6  A    between atoms: C_9  and  C_10 
REMARK    7  A    between atoms: C_11  and  O_12 
ROOT
HETATM    1  C   UNL     1      44.176 -18.388   4.265  1.00  0.00     0.119 A 
HETATM    2  N   UNL     1      43.831 -17.600   3.229  1.00  0.00    -0.207 NA
HETATM    3  C   UNL     1      43.696 -18.171   2.026  1.00  0.00     0.181 A 
HETATM    4  N   UNL     1      43.901 -19.464   1.807  1.00  0.00    -0.330 N 
HETATM    5  H   UNL     1      43.846 -19.784   0.849  1.00  0.00     0.168 HD
HETATM    6  C   UNL     1      44.206 -20.298   2.805  1.00  0.00     0.048 A 
HETATM    7  C   UNL     1      44.347 -19.782   4.108  1.00  0.00     0.031 A 
HETATM    8  C   UNL     1      44.380 -21.667   2.550  1.00  0.00     0.030 A 
HETATM    9  C   UNL     1      44.682 -22.541   3.593  1.00  0.00     0.002 A 
HETATM   10  C   UNL     1      44.809 -22.055   4.892  1.00  0.00     0.001 A 
HETATM   11  C   UNL     1      44.644 -20.692   5.150  1.00  0.00     0.017 A 
ENDROOT
BRANCH   3  12
HETATM   12  N   UNL     1      43.416 -17.343   0.957  1.00  0.00    -0.262 NA
HETATM   13  H   UNL     1      44.029 -16.528   1.064  1.00  0.00     0.130 HD
BRANCH  12  14
HETATM   14  C   UNL     1      42.023 -16.963   0.706  1.00  0.00     0.100 C 
BRANCH  14  15
HETATM   15  C   UNL     1      41.780 -15.461   0.909  1.00  0.00     0.056 C 
BRANCH  15  16
HETATM   16  C   UNL     1      40.424 -14.880   0.551  1.00  0.00    -0.024 A 
HETATM   17  C   UNL     1      40.243 -14.344  -0.744  1.00  0.00     0.074 A 
HETATM   18  C   UNL     1      39.003 -13.818  -1.121  1.00  0.00     0.037 A 
HETATM   19  C   UNL     1      37.941 -13.803  -0.217  1.00  0.00     0.003 A 
HETATM   20  C   UNL     1      38.114 -14.306   1.067  1.00  0.00     0.001 A 
HETATM   21  C   UNL     1      39.346 -14.837   1.451  1.00  0.00     0.010 A 
BRANCH  17  22
HETATM   22  O   UNL     1      41.344 -14.395  -1.565  1.00  0.00    -0.355 OA
HETATM   23  C   UNL     1      41.110 -14.342  -2.968  1.00  0.00     0.210 C 
ENDBRANCH  17  22
ENDBRANCH  15  16
ENDBRANCH  14  15
ENDBRANCH  12  14
ENDBRANCH   3  12
BRANCH   1  24
HETATM   24  N   UNL     1      44.311 -17.816   5.533  1.00  0.00    -0.273 NA
HETATM   25  H   UNL     1      44.927 -17.007   5.519  1.00  0.00     0.129 HD
BRANCH  24  26
HETATM   26  C   UNL     1      43.102 -17.553   6.326  1.00  0.00     0.053 C 
HETATM   27  C   UNL     1      42.695 -16.083   6.227  1.00  0.00     0.026 C 
HETATM   28  C   UNL     1      43.409 -17.910   7.781  1.00  0.00     0.026 C 
ENDBRANCH  24  26
ENDBRANCH   1  24
TORSDOF 7
ENDMDL
MODEL 7
REMARK VINA RESULT:      -7.2      2.960      5.909
REMARK  7 active torsions:
REMARK  status: ('A' for Active; 'I' for Inactive)
REMARK    1  A    between atoms: C_2  and  N_3 
REMARK    2  A    between atoms: N_3  and  C_4 
REMARK    3  A    between atoms: C_6  and  N_7 
REMARK    4  A    between atoms: N_7  and  C_8 
REMARK    5  A    between atoms: C_8  and  C_9 
REMARK    6  A    between atoms: C_9  and  C_10 
REMARK    7  A    between atoms: C_11  and  O_12 
ROOT
HETATM    1  C   UNL     1      44.153 -18.384   4.115  1.00  0.00     0.119 A 
HETATM    2  N   UNL     1      43.764 -17.592   3.098  1.00  0.00    -0.207 NA
HETATM    3  C   UNL     1      43.575 -18.157   1.900  1.00  0.00     0.181 A 
HETATM    4  N   UNL     1      43.768 -19.450   1.667  1.00  0.00    -0.330 N 
HETATM    5  H   UNL     1      43.670 -19.766   0.711  1.00  0.00     0.168 HD
HETATM    6  C   UNL     1      44.116 -20.288   2.648  1.00  0.00     0.048 A 
HETATM    7  C   UNL     1      44.315 -19.777   3.946  1.00  0.00     0.031 A 
HETATM    8  C   UNL     1      44.277 -21.656   2.380  1.00  0.00     0.030 A 
HETATM    9  C   UNL     1      44.623 -22.534   3.406  1.00  0.00     0.002 A 
HETATM   10  C   UNL     1      44.808 -22.053   4.699  1.00  0.00     0.001 A 
HETATM   11  C   UNL     1      44.656 -20.691   4.970  1.00  0.00     0.017 A 
ENDROOT
BRANCH   3  12
HETATM   12  N   UNL     1      43.248 -17.324   0.849  1.00  0.00    -0.262 NA
HETATM   13  H   UNL     1      43.887 -16.525   0.913  1.00  0.00     0.130 HD
BRANCH  12  14
HETATM   14  C   UNL     1      41.852 -16.911   0.684  1.00  0.00     0.100 C 
BRANCH  14  15
HETATM   15  C   UNL     1      41.712 -15.395   0.477  1.00  0.00     0.056 C 
BRANCH  15  16
HETATM   16  C   UNL     1      41.450 -14.865  -0.921  1.00  0.00    -0.024 A 
HETATM   17  C   UNL     1      41.698 -13.498  -1.178  1.00  0.00     0.074 A 
HETATM   18  C   UNL     1      41.489 -12.973  -2.457  1.00  0.00     0.037 A 
HETATM   19  C   UNL     1      41.019 -13.791  -3.485  1.00  0.00     0.003 A 
HETATM   20  C   UNL     1      40.750 -15.132  -3.238  1.00  0.00     0.001 A 
HETATM   21  C   UNL     1      40.959 -15.666  -1.965  1.00  0.00     0.010 A 
BRANCH  17  22
HETATM   22  O   UNL     1      42.152 -12.767  -0.107  1.00  0.00    -0.355 OA
HETATM   23  C   UNL     1      41.394 -11.620   0.265  1.00  0.00     0.210 C 
ENDBRANCH  17  22
ENDBRANCH  15  16
ENDBRANCH  14  15
ENDBRANCH  12  14
ENDBRANCH   3  12
BRANCH   1  24
HETATM   24  N   UNL     1      44.345 -17.817   5.378  1.00  0.00    -0.273 NA
HETATM   25  H   UNL     1      45.326 -17.617   5.558  1.00  0.00     0.129 HD
BRANCH  24  26
HETATM   26  C   UNL     1      43.488 -16.697   5.792  1.00  0.00     0.053 C 
HETATM   27  C   UNL     1      44.213 -15.798   6.793  1.00  0.00     0.026 C 
HETATM   28  C   UNL     1      42.230 -17.283   6.437  1.00  0.00     0.026 C 
ENDBRANCH  24  26
ENDBRANCH   1  24
TORSDOF 7
ENDMDL
MODEL 8
REMARK VINA RESULT:      -7.2      3.128      6.979
REMARK  7 active torsions:
REMARK  status: ('A' for Active; 'I' for Inactive)
REMARK    1  A    between atoms: C_2  and  N_3 
REMARK    2  A    between atoms: N_3  and  C_4 
REMARK    3  A    between atoms: C_6  and  N_7 
REMARK    4  A    between atoms: N_7  and  C_8 
REMARK    5  A    between atoms: C_8  and  C_9 
REMARK    6  A    between atoms: C_9  and  C_10 
REMARK    7  A    between atoms: C_11  and  O_12 
ROOT
HETATM    1  C   UNL     1      40.138 -15.331   2.202  1.00  0.00     0.119 A 
HETATM    2  N   UNL     1      41.244 -16.028   1.878  1.00  0.00    -0.207 NA
HETATM    3  C   UNL     1      41.620 -16.046   0.594  1.00  0.00     0.181 A 
HETATM    4  N   UNL     1      40.949 -15.427  -0.369  1.00  0.00    -0.330 N 
HETATM    5  H   UNL     1      41.272 -15.563  -1.318  1.00  0.00     0.168 HD
HETATM    6  C   UNL     1      39.868 -14.690  -0.099  1.00  0.00     0.048 A 
HETATM    7  C   UNL     1      39.415 -14.601   1.232  1.00  0.00     0.031 A 
HETATM    8  C   UNL     1      39.199 -14.016  -1.133  1.00  0.00     0.030 A 
HETATM    9  C   UNL     1      38.082 -13.232  -0.850  1.00  0.00     0.002 A 
HETATM   10  C   UNL     1      37.628 -13.117   0.461  1.00  0.00     0.001 A 
HETATM   11  C   UNL     1      38.285 -13.791   1.493  1.00  0.00     0.017 A 
ENDROOT
BRANCH   3  12
HETATM   12  N   UNL     1      42.711 -16.824   0.262  1.00  0.00    -0.262 NA
HETATM   13  H   UNL     1      42.331 -17.698  -0.116  1.00  0.00     0.130 HD
BRANCH  12  14
HETATM   14  C   UNL     1      43.745 -17.058   1.275  1.00  0.00     0.100 C 
BRANCH  14  15
HETATM   15  C   UNL     1      43.761 -18.513   1.768  1.00  0.00     0.056 C 
BRANCH  15  16
HETATM   16  C   UNL     1      43.978 -18.787   3.245  1.00  0.00    -0.024 A 
HETATM   17  C   UNL     1      44.447 -20.063   3.630  1.00  0.00     0.074 A 
HETATM   18  C   UNL     1      44.680 -20.350   4.978  1.00  0.00     0.037 A 
HETATM   19  C   UNL     1      44.435 -19.385   5.955  1.00  0.00     0.003 A 
HETATM   20  C   UNL     1      43.951 -18.134   5.591  1.00  0.00     0.001 A 
HETATM   21  C   UNL     1      43.721 -17.837   4.247  1.00  0.00     0.010 A 
BRANCH  17  22
HETATM   22  O   UNL     1      44.655 -20.951   2.602  1.00  0.00    -0.355 OA
HETATM   23  C   UNL     1      44.486 -22.334   2.896  1.00  0.00     0.210 C 
ENDBRANCH  17  22
ENDBRANCH  15  16
ENDBRANCH  14  15
ENDBRANCH  12  14
ENDBRANCH   3  12
BRANCH   1  24
HETATM   24  N   UNL     1      39.733 -15.289   3.539  1.00  0.00    -0.273 NA
HETATM   25  H   UNL     1      39.373 -16.187   3.854  1.00  0.00     0.129 HD
BRANCH  24  26
HETATM   26  C   UNL     1      40.636 -14.696   4.536  1.00  0.00     0.053 C 
HETATM   27  C   UNL     1      40.574 -15.470   5.853  1.00  0.00     0.026 C 
HETATM   28  C   UNL     1      40.197 -13.249   4.763  1.00  0.00     0.026 C 
ENDBRANCH  24  26
ENDBRANCH   1  24
TORSDOF 7
ENDMDL
MODEL 9
REMARK VINA RESULT:      -7.1      2.300      5.975
REMARK  7 active torsions:
REMARK  status: ('A' for Active; 'I' for Inactive)
REMARK    1  A    between atoms: C_2  and  N_3 
REMARK    2  A    between atoms: N_3  and  C_4 
REMARK    3  A    between atoms: C_6  and  N_7 
REMARK    4  A    between atoms: N_7  and  C_8 
REMARK    5  A    between atoms: C_8  and  C_9 
REMARK    6  A    between atoms: C_9  and  C_10 
REMARK    7  A    between atoms: C_11  and  O_12 
ROOT
HETATM    1  C   UNL     1      41.314 -15.280   5.554  1.00  0.00     0.119 A 
HETATM    2  N   UNL     1      41.886 -16.367   6.105  1.00  0.00    -0.207 NA
HETATM    3  C   UNL     1      41.901 -17.498   5.391  1.00  0.00     0.181 A 
HETATM    4  N   UNL     1      41.366 -17.601   4.180  1.00  0.00    -0.330 N 
HETATM    5  H   UNL     1      41.362 -18.518   3.753  1.00  0.00     0.168 HD
HETATM    6  C   UNL     1      40.820 -16.545   3.570  1.00  0.00     0.048 A 
HETATM    7  C   UNL     1      40.782 -15.309   4.245  1.00  0.00     0.031 A 
HETATM    8  C   UNL     1      40.296 -16.674   2.274  1.00  0.00     0.030 A 
HETATM    9  C   UNL     1      39.742 -15.569   1.630  1.00  0.00     0.002 A 
HETATM   10  C   UNL     1      39.710 -14.334   2.272  1.00  0.00     0.001 A 
HETATM   11  C   UNL     1      40.224 -14.202   3.565  1.00  0.00     0.017 A 
ENDROOT
BRANCH   3  12
HETATM   12  N   UNL     1      42.423 -18.625   5.994  1.00  0.00    -0.262 NA
HETATM   13  H   UNL     1      41.862 -18.778   6.839  1.00  0.00     0.130 HD
BRANCH  12  14
HETATM   14  C   UNL     1      43.862 -18.677   6.264  1.00  0.00     0.100 C 
BRANCH  14  15
HETATM   15  C   UNL     1      44.698 -18.721   4.977  1.00  0.00     0.056 C 
BRANCH  15  16
HETATM   16  C   UNL     1      44.478 -19.859   3.996  1.00  0.00    -0.024 A 
HETATM   17  C   UNL     1      43.912 -19.560   2.736  1.00  0.00     0.074 A 
HETATM   18  C   UNL     1      43.711 -20.575   1.796  1.00  0.00     0.037 A 
HETATM   19  C   UNL     1      44.052 -21.893   2.100  1.00  0.00     0.003 A 
HETATM   20  C   UNL     1      44.589 -22.203   3.345  1.00  0.00     0.001 A 
HETATM   21  C   UNL     1      44.797 -21.195   4.288  1.00  0.00     0.010 A 
BRANCH  17  22
HETATM   22  O   UNL     1      43.601 -18.238   2.526  1.00  0.00    -0.355 OA
HETATM   23  C   UNL     1      44.201 -17.601   1.403  1.00  0.00     0.210 C 
ENDBRANCH  17  22
ENDBRANCH  15  16
ENDBRANCH  14  15
ENDBRANCH  12  14
ENDBRANCH   3  12
BRANCH   1  24
HETATM   24  N   UNL     1      41.298 -14.084   6.278  1.00  0.00    -0.273 NA
HETATM   25  H   UNL     1      41.192 -14.248   7.276  1.00  0.00     0.129 HD
BRANCH  24  26
HETATM   26  C   UNL     1      42.334 -13.077   6.009  1.00  0.00     0.053 C 
HETATM   27  C   UNL     1      43.677 -13.508   6.600  1.00  0.00     0.026 C 
HETATM   28  C   UNL     1      41.885 -11.761   6.645  1.00  0.00     0.026 C 
ENDBRANCH  24  26
ENDBRANCH   1  24
TORSDOF 7
ENDMDL
MODEL 10
REMARK VINA RESULT:      -7.1      3.460      6.480
REMARK  7 active torsions:
REMARK  status: ('A' for Active; 'I' for Inactive)
REMARK    1  A    between atoms: C_2  and  N_3 
REMARK    2  A    between atoms: N_3  and  C_4 
REMARK    3  A    between atoms: C_6  and  N_7 
REMARK    4  A    between atoms: N_7  and  C_8 
REMARK    5  A    between atoms: C_8  and  C_9 
REMARK    6  A    between atoms: C_9  and  C_10 
REMARK    7  A    between atoms: C_11  and  O_12 
ROOT
HETATM    1  C   UNL     1      43.667 -17.803   4.326  1.00  0.00     0.119 A 
HETATM    2  N   UNL     1      42.938 -16.880   3.671  1.00  0.00    -0.207 NA
HETATM    3  C   UNL     1      42.464 -17.199   2.461  1.00  0.00     0.181 A 
HETATM    4  N   UNL     1      42.692 -18.368   1.875  1.00  0.00    -0.330 N 
HETATM    5  H   UNL     1      42.354 -18.484   0.929  1.00  0.00     0.168 HD
HETATM    6  C   UNL     1      43.376 -19.334   2.496  1.00  0.00     0.048 A 
HETATM    7  C   UNL     1      43.893 -19.087   3.783  1.00  0.00     0.031 A 
HETATM    8  C   UNL     1      43.571 -20.573   1.867  1.00  0.00     0.030 A 
HETATM    9  C   UNL     1      44.269 -21.587   2.520  1.00  0.00     0.002 A 
HETATM   10  C   UNL     1      44.773 -21.371   3.800  1.00  0.00     0.001 A 
HETATM   11  C   UNL     1      44.589 -20.137   4.427  1.00  0.00     0.017 A 
ENDROOT
BRANCH   3  12
HETATM   12  N   UNL     1      41.781 -16.220   1.767  1.00  0.00    -0.262 NA
HETATM   13  H   UNL     1      40.841 -16.188   2.176  1.00  0.00     0.130 HD
BRANCH  12  14
HETATM   14  C   UNL     1      41.751 -16.284   0.303  1.00  0.00     0.100 C 
BRANCH  14  15
HETATM   15  C   UNL     1      41.403 -14.930  -0.334  1.00  0.00     0.056 C 
BRANCH  15  16
HETATM   16  C   UNL     1      40.409 -14.891  -1.481  1.00  0.00    -0.024 A 
HETATM   17  C   UNL     1      39.202 -14.178  -1.300  1.00  0.00     0.074 A 
HETATM   18  C   UNL     1      38.269 -14.101  -2.338  1.00  0.00     0.037 A 
HETATM   19  C   UNL     1      38.513 -14.738  -3.553  1.00  0.00     0.003 A 
HETATM   20  C   UNL     1      39.687 -15.461  -3.736  1.00  0.00     0.001 A 
HETATM   21  C   UNL     1      40.627 -15.541  -2.707  1.00  0.00     0.010 A 
BRANCH  17  22
HETATM   22  O   UNL     1      39.043 -13.588  -0.070  1.00  0.00    -0.355 OA
HETATM   23  C   UNL     1      37.940 -14.019   0.720  1.00  0.00     0.210 C 
ENDBRANCH  17  22
ENDBRANCH  15  16
ENDBRANCH  14  15
ENDBRANCH  12  14
ENDBRANCH   3  12
BRANCH   1  24
HETATM   24  N   UNL     1      44.161 -17.495   5.597  1.00  0.00    -0.273 NA
HETATM   25  H   UNL     1      45.144 -17.234   5.567  1.00  0.00     0.129 HD
BRANCH  24  26
HETATM   26  C   UNL     1      43.392 -16.586   6.458  1.00  0.00     0.053 C 
HETATM   27  C   UNL     1      44.250 -15.398   6.897  1.00  0.00     0.026 C 
HETATM   28  C   UNL     1      42.934 -17.377   7.684  1.00  0.00     0.026 C 
ENDBRANCH  24  26
ENDBRANCH   1  24
TORSDOF 7
ENDMDL
