MODEL 1
REMARK VINA RESULT:      -7.7      0.000      0.000
REMARK  4 active torsions:
REMARK  status: ('A' for Active; 'I' for Inactive)
REMARK    1  A    between atoms: C_2  and  C_3 
REMARK    2  A    between atoms: C_3  and  N_4 
REMARK    3  A    between atoms: N_4  and  N_5 
REMARK    4  A    between atoms: C_10  and  C_11 
ROOT
HETATM    1  N   UNL     1      40.545 -15.472   3.666  1.00  0.00    -0.231 N 
HETATM    2  C   UNL     1      39.737 -14.516   3.079  1.00  0.00     0.211 A 
HETATM    3  S   UNL     1      38.859 -14.588   1.674  1.00  0.00    -0.038 SA
HETATM    4  N   UNL     1      39.786 -13.420   3.927  1.00  0.00    -0.250 N 
HETATM    5  N   UNL     1      40.570 -13.689   5.016  1.00  0.00    -0.152 NA
HETATM    6  C   UNL     1      40.994 -14.918   4.840  1.00  0.00     0.177 A 
HETATM    7  H   UNL     1      39.297 -12.539   3.818  1.00  0.00     0.191 HD
ENDROOT
BRANCH   1   8
HETATM    8  N   UNL     1      40.787 -16.747   3.141  1.00  0.00    -0.225 NA
HETATM    9  H   UNL     1      40.032 -16.939   2.473  1.00  0.00     0.147 HD
BRANCH   8  10
HETATM   10  C   UNL     1      42.055 -16.796   2.400  1.00  0.00     0.149 C 
BRANCH  10  11
HETATM   11  C   UNL     1      42.842 -18.039   2.761  1.00  0.00    -0.041 A 
HETATM   12  C   UNL     1      43.605 -18.076   3.953  1.00  0.00     0.011 A 
HETATM   13  C   UNL     1      44.345 -19.212   4.301  1.00  0.00     0.040 A 
HETATM   14  C   UNL     1      44.308 -20.290   3.443  1.00  0.00     0.105 A 
HETATM   15  C   UNL     1      43.567 -20.268   2.287  1.00  0.00     0.105 A 
HETATM   16  O   UNL     1      44.971 -21.464   3.614  1.00  0.00    -0.323 OA
HETATM   17  C   UNL     1      42.821 -19.168   1.923  1.00  0.00     0.048 A 
HETATM   18  O   UNL     1      43.670 -21.427   1.582  1.00  0.00    -0.323 OA
HETATM   19  C   UNL     1      44.575 -22.174   2.422  1.00  0.00     0.352 A 
ENDBRANCH  10  11
ENDBRANCH   8  10
ENDBRANCH   1   8
BRANCH   6  20
HETATM   20  C   UNL     1      41.876 -15.590   5.823  1.00  0.00     0.016 A 
HETATM   21  C   UNL     1      43.128 -15.015   6.065  1.00  0.00     0.034 A 
HETATM   22  C   UNL     1      43.967 -15.615   6.987  1.00  0.00     0.117 A 
HETATM   23  N   UNL     1      43.644 -16.730   7.671  1.00  0.00    -0.273 NA
HETATM   24  C   UNL     1      42.423 -17.256   7.438  1.00  0.00     0.117 A 
HETATM   25  C   UNL     1      41.510 -16.724   6.543  1.00  0.00     0.034 A 
ENDBRANCH   6  20
TORSDOF 4
ENDMDL
MODEL 2
REMARK VINA RESULT:      -7.6      1.129      1.720
REMARK  4 active torsions:
REMARK  status: ('A' for Active; 'I' for Inactive)
REMARK    1  A    between atoms: C_2  and  C_3 
REMARK    2  A    between atoms: C_3  and  N_4 
REMARK    3  A    between atoms: N_4  and  N_5 
REMARK    4  A    between atoms: C_10  and  C_11 
ROOT
HETATM    1  N   UNL     1      41.465 -15.770   3.115  1.00  0.00    -0.231 N 
HETATM    2  C   UNL     1      40.840 -14.816   2.333  1.00  0.00     0.211 A 
HETATM    3  S   UNL     1      40.271 -14.925   0.780  1.00  0.00    -0.038 SA
HETATM    4  N   UNL     1      40.764 -13.681   3.127  1.00  0.00    -0.250 N 
HETATM    5  N   UNL     1      41.293 -13.925   4.366  1.00  0.00    -0.152 NA
HETATM    6  C   UNL     1      41.686 -15.175   4.333  1.00  0.00     0.177 A 
HETATM    7  H   UNL     1      40.349 -12.790   2.883  1.00  0.00     0.191 HD
ENDROOT
BRANCH   1   8
HETATM    8  N   UNL     1      41.751 -17.077   2.704  1.00  0.00    -0.225 NA
HETATM    9  H   UNL     1      41.261 -17.222   1.815  1.00  0.00     0.147 HD
BRANCH   8  10
HETATM   10  C   UNL     1      43.187 -17.263   2.451  1.00  0.00     0.149 C 
BRANCH  10  11
HETATM   11  C   UNL     1      43.613 -18.680   2.776  1.00  0.00    -0.041 A 
HETATM   12  C   UNL     1      43.591 -19.677   1.771  1.00  0.00     0.011 A 
HETATM   13  C   UNL     1      43.974 -20.993   2.051  1.00  0.00     0.040 A 
HETATM   14  C   UNL     1      44.368 -21.287   3.338  1.00  0.00     0.105 A 
HETATM   15  C   UNL     1      44.400 -20.328   4.321  1.00  0.00     0.105 A 
HETATM   16  O   UNL     1      44.759 -22.508   3.790  1.00  0.00    -0.323 OA
HETATM   17  C   UNL     1      44.039 -19.021   4.072  1.00  0.00     0.048 A 
HETATM   18  O   UNL     1      44.813 -20.824   5.517  1.00  0.00    -0.323 OA
HETATM   19  C   UNL     1      45.024 -22.210   5.177  1.00  0.00     0.352 A 
ENDBRANCH  10  11
ENDBRANCH   8  10
ENDBRANCH   1   8
BRANCH   6  20
HETATM   20  C   UNL     1      42.315 -15.829   5.505  1.00  0.00     0.016 A 
HETATM   21  C   UNL     1      43.560 -15.350   5.920  1.00  0.00     0.034 A 
HETATM   22  C   UNL     1      44.164 -15.934   7.020  1.00  0.00     0.117 A 
HETATM   23  N   UNL     1      43.615 -16.947   7.719  1.00  0.00    -0.273 NA
HETATM   24  C   UNL     1      42.403 -17.381   7.314  1.00  0.00     0.117 A 
HETATM   25  C   UNL     1      41.715 -16.854   6.233  1.00  0.00     0.034 A 
ENDBRANCH   6  20
TORSDOF 4
ENDMDL
MODEL 3
REMARK VINA RESULT:      -7.3      1.302      1.597
REMARK  4 active torsions:
REMARK  status: ('A' for Active; 'I' for Inactive)
REMARK    1  A    between atoms: C_2  and  C_3 
REMARK    2  A    between atoms: C_3  and  N_4 
REMARK    3  A    between atoms: N_4  and  N_5 
REMARK    4  A    between atoms: C_10  and  C_11 
ROOT
HETATM    1  N   UNL     1      42.433 -14.448   3.251  1.00  0.00    -0.231 N 
HETATM    2  C   UNL     1      41.825 -13.412   2.565  1.00  0.00     0.211 A 
HETATM    3  S   UNL     1      41.900 -13.017   0.957  1.00  0.00    -0.038 SA
HETATM    4  N   UNL     1      41.090 -12.721   3.518  1.00  0.00    -0.250 N 
HETATM    5  N   UNL     1      41.210 -13.318   4.743  1.00  0.00    -0.152 NA
HETATM    6  C   UNL     1      41.999 -14.346   4.550  1.00  0.00     0.177 A 
HETATM    7  H   UNL     1      40.502 -11.910   3.366  1.00  0.00     0.191 HD
ENDROOT
BRANCH   1   8
HETATM    8  N   UNL     1      43.278 -15.401   2.672  1.00  0.00    -0.225 NA
HETATM    9  H   UNL     1      43.889 -15.749   3.420  1.00  0.00     0.147 HD
BRANCH   8  10
HETATM   10  C   UNL     1      42.524 -16.549   2.150  1.00  0.00     0.149 C 
BRANCH  10  11
HETATM   11  C   UNL     1      43.147 -17.854   2.600  1.00  0.00    -0.041 A 
HETATM   12  C   UNL     1      43.801 -17.935   3.852  1.00  0.00     0.011 A 
HETATM   13  C   UNL     1      44.390 -19.129   4.284  1.00  0.00     0.040 A 
HETATM   14  C   UNL     1      44.313 -20.221   3.448  1.00  0.00     0.105 A 
HETATM   15  C   UNL     1      43.676 -20.158   2.233  1.00  0.00     0.105 A 
HETATM   16  O   UNL     1      44.836 -21.451   3.697  1.00  0.00    -0.323 OA
HETATM   17  C   UNL     1      43.079 -18.999   1.785  1.00  0.00     0.048 A 
HETATM   18  O   UNL     1      43.718 -21.340   1.562  1.00  0.00    -0.323 OA
HETATM   19  C   UNL     1      44.469 -22.151   2.490  1.00  0.00     0.352 A 
ENDBRANCH  10  11
ENDBRANCH   8  10
ENDBRANCH   1   8
BRANCH   6  20
HETATM   20  C   UNL     1      42.372 -15.265   5.652  1.00  0.00     0.016 A 
HETATM   21  C   UNL     1      41.479 -16.295   5.963  1.00  0.00     0.034 A 
HETATM   22  C   UNL     1      41.809 -17.175   6.979  1.00  0.00     0.117 A 
HETATM   23  N   UNL     1      42.950 -17.095   7.691  1.00  0.00    -0.273 NA
HETATM   24  C   UNL     1      43.807 -16.107   7.360  1.00  0.00     0.117 A 
HETATM   25  C   UNL     1      43.572 -15.184   6.354  1.00  0.00     0.034 A 
ENDBRANCH   6  20
TORSDOF 4
ENDMDL
MODEL 4
REMARK VINA RESULT:      -7.3      2.306      4.061
REMARK  4 active torsions:
REMARK  status: ('A' for Active; 'I' for Inactive)
REMARK    1  A    between atoms: C_2  and  C_3 
REMARK    2  A    between atoms: C_3  and  N_4 
REMARK    3  A    between atoms: N_4  and  N_5 
REMARK    4  A    between atoms: C_10  and  C_11 
ROOT
HETATM    1  N   UNL     1      42.373 -15.857   4.899  1.00  0.00    -0.231 N 
HETATM    2  C   UNL     1      42.937 -15.494   6.109  1.00  0.00     0.211 A 
HETATM    3  S   UNL     1      43.756 -16.417   7.216  1.00  0.00    -0.038 SA
HETATM    4  N   UNL     1      42.688 -14.136   6.240  1.00  0.00    -0.250 N 
HETATM    5  N   UNL     1      42.020 -13.662   5.142  1.00  0.00    -0.152 NA
HETATM    6  C   UNL     1      41.862 -14.702   4.360  1.00  0.00     0.177 A 
HETATM    7  H   UNL     1      42.975 -13.531   7.000  1.00  0.00     0.191 HD
ENDROOT
BRANCH   1   8
HETATM    8  N   UNL     1      42.388 -17.151   4.367  1.00  0.00    -0.225 NA
HETATM    9  H   UNL     1      41.542 -17.246   3.796  1.00  0.00     0.147 HD
BRANCH   8  10
HETATM   10  C   UNL     1      43.543 -17.359   3.482  1.00  0.00     0.149 C 
BRANCH  10  11
HETATM   11  C   UNL     1      43.837 -18.836   3.318  1.00  0.00    -0.041 A 
HETATM   12  C   UNL     1      43.591 -19.476   2.079  1.00  0.00     0.011 A 
HETATM   13  C   UNL     1      43.849 -20.841   1.908  1.00  0.00     0.040 A 
HETATM   14  C   UNL     1      44.347 -21.540   2.985  1.00  0.00     0.105 A 
HETATM   15  C   UNL     1      44.596 -20.930   4.190  1.00  0.00     0.105 A 
HETATM   16  O   UNL     1      44.643 -22.867   3.003  1.00  0.00    -0.323 OA
HETATM   17  C   UNL     1      44.361 -19.586   4.386  1.00  0.00     0.048 A 
HETATM   18  O   UNL     1      45.079 -21.795   5.121  1.00  0.00    -0.323 OA
HETATM   19  C   UNL     1      45.091 -23.025   4.366  1.00  0.00     0.352 A 
ENDBRANCH  10  11
ENDBRANCH   8  10
ENDBRANCH   1   8
BRANCH   6  20
HETATM   20  C   UNL     1      41.180 -14.598   3.048  1.00  0.00     0.016 A 
HETATM   21  C   UNL     1      41.972 -14.330   1.928  1.00  0.00     0.034 A 
HETATM   22  C   UNL     1      41.363 -14.241   0.689  1.00  0.00     0.117 A 
HETATM   23  N   UNL     1      40.038 -14.398   0.499  1.00  0.00    -0.273 NA
HETATM   24  C   UNL     1      39.294 -14.676   1.590  1.00  0.00     0.117 A 
HETATM   25  C   UNL     1      39.812 -14.796   2.869  1.00  0.00     0.034 A 
ENDBRANCH   6  20
TORSDOF 4
ENDMDL
MODEL 5
REMARK VINA RESULT:      -7.3      2.429      2.945
REMARK  4 active torsions:
REMARK  status: ('A' for Active; 'I' for Inactive)
REMARK    1  A    between atoms: C_2  and  C_3 
REMARK    2  A    between atoms: C_3  and  N_4 
REMARK    3  A    between atoms: N_4  and  N_5 
REMARK    4  A    between atoms: C_10  and  C_11 
ROOT
HETATM    1  N   UNL     1      41.577 -14.609   0.833  1.00  0.00    -0.231 N 
HETATM    2  C   UNL     1      41.511 -14.005  -0.409  1.00  0.00     0.211 A 
HETATM    3  S   UNL     1      40.972 -14.611  -1.856  1.00  0.00    -0.038 SA
HETATM    4  N   UNL     1      42.001 -12.721  -0.221  1.00  0.00    -0.250 N 
HETATM    5  N   UNL     1      42.331 -12.520   1.092  1.00  0.00    -0.152 NA
HETATM    6  C   UNL     1      42.055 -13.651   1.694  1.00  0.00     0.177 A 
HETATM    7  H   UNL     1      42.082 -11.989  -0.917  1.00  0.00     0.191 HD
ENDROOT
BRANCH   1   8
HETATM    8  N   UNL     1      41.182 -15.924   1.103  1.00  0.00    -0.225 NA
HETATM    9  H   UNL     1      40.360 -16.113   0.520  1.00  0.00     0.147 HD
BRANCH   8  10
HETATM   10  C   UNL     1      42.222 -16.891   0.725  1.00  0.00     0.149 C 
BRANCH  10  11
HETATM   11  C   UNL     1      42.704 -17.666   1.934  1.00  0.00    -0.041 A 
HETATM   12  C   UNL     1      42.193 -17.366   3.220  1.00  0.00     0.011 A 
HETATM   13  C   UNL     1      42.630 -18.066   4.351  1.00  0.00     0.040 A 
HETATM   14  C   UNL     1      43.575 -19.052   4.170  1.00  0.00     0.105 A 
HETATM   15  C   UNL     1      44.074 -19.356   2.928  1.00  0.00     0.105 A 
HETATM   16  O   UNL     1      44.119 -19.819   5.152  1.00  0.00    -0.323 OA
HETATM   17  C   UNL     1      43.656 -18.692   1.794  1.00  0.00     0.048 A 
HETATM   18  O   UNL     1      44.997 -20.354   2.968  1.00  0.00    -0.323 OA
HETATM   19  C   UNL     1      45.032 -20.632   4.384  1.00  0.00     0.352 A 
ENDBRANCH  10  11
ENDBRANCH   8  10
ENDBRANCH   1   8
BRANCH   6  20
HETATM   20  C   UNL     1      42.270 -13.837   3.148  1.00  0.00     0.016 A 
HETATM   21  C   UNL     1      43.590 -13.917   3.600  1.00  0.00     0.034 A 
HETATM   22  C   UNL     1      43.820 -14.077   4.956  1.00  0.00     0.117 A 
HETATM   23  N   UNL     1      42.835 -14.162   5.872  1.00  0.00    -0.273 NA
HETATM   24  C   UNL     1      41.569 -14.063   5.416  1.00  0.00     0.117 A 
HETATM   25  C   UNL     1      41.238 -13.891   4.082  1.00  0.00     0.034 A 
ENDBRANCH   6  20
TORSDOF 4
ENDMDL
MODEL 6
REMARK VINA RESULT:      -7.2      2.530      3.440
REMARK  4 active torsions:
REMARK  status: ('A' for Active; 'I' for Inactive)
REMARK    1  A    between atoms: C_2  and  C_3 
REMARK    2  A    between atoms: C_3  and  N_4 
REMARK    3  A    between atoms: N_4  and  N_5 
REMARK    4  A    between atoms: C_10  and  C_11 
ROOT
HETATM    1  N   UNL     1      41.719 -15.149   0.401  1.00  0.00    -0.231 N 
HETATM    2  C   UNL     1      41.047 -14.750  -0.740  1.00  0.00     0.211 A 
HETATM    3  S   UNL     1      40.931 -15.494  -2.217  1.00  0.00    -0.038 SA
HETATM    4  N   UNL     1      40.443 -13.545  -0.410  1.00  0.00    -0.250 N 
HETATM    5  N   UNL     1      40.703 -13.218   0.893  1.00  0.00    -0.152 NA
HETATM    6  C   UNL     1      41.448 -14.195   1.352  1.00  0.00     0.177 A 
HETATM    7  H   UNL     1      39.852 -12.974  -1.003  1.00  0.00     0.191 HD
ENDROOT
BRANCH   1   8
HETATM    8  N   UNL     1      42.474 -16.321   0.514  1.00  0.00    -0.225 NA
HETATM    9  H   UNL     1      43.264 -16.106   1.132  1.00  0.00     0.147 HD
BRANCH   8  10
HETATM   10  C   UNL     1      41.704 -17.404   1.142  1.00  0.00     0.149 C 
BRANCH  10  11
HETATM   11  C   UNL     1      42.540 -18.132   2.174  1.00  0.00    -0.041 A 
HETATM   12  C   UNL     1      43.537 -19.049   1.763  1.00  0.00     0.011 A 
HETATM   13  C   UNL     1      44.315 -19.737   2.701  1.00  0.00     0.040 A 
HETATM   14  C   UNL     1      44.076 -19.495   4.035  1.00  0.00     0.105 A 
HETATM   15  C   UNL     1      43.116 -18.603   4.447  1.00  0.00     0.105 A 
HETATM   16  O   UNL     1      44.724 -20.079   5.078  1.00  0.00    -0.323 OA
HETATM   17  C   UNL     1      42.341 -17.903   3.548  1.00  0.00     0.048 A 
HETATM   18  O   UNL     1      43.036 -18.514   5.802  1.00  0.00    -0.323 OA
HETATM   19  C   UNL     1      44.048 -19.464   6.195  1.00  0.00     0.352 A 
ENDBRANCH  10  11
ENDBRANCH   8  10
ENDBRANCH   1   8
BRANCH   6  20
HETATM   20  C   UNL     1      41.940 -14.215   2.750  1.00  0.00     0.016 A 
HETATM   21  C   UNL     1      41.014 -14.512   3.754  1.00  0.00     0.034 A 
HETATM   22  C   UNL     1      41.449 -14.551   5.068  1.00  0.00     0.117 A 
HETATM   23  N   UNL     1      42.724 -14.317   5.436  1.00  0.00    -0.273 NA
HETATM   24  C   UNL     1      43.605 -14.053   4.449  1.00  0.00     0.117 A 
HETATM   25  C   UNL     1      43.269 -14.002   3.106  1.00  0.00     0.034 A 
ENDBRANCH   6  20
TORSDOF 4
ENDMDL
MODEL 7
REMARK VINA RESULT:      -7.2      4.337      6.581
REMARK  4 active torsions:
REMARK  status: ('A' for Active; 'I' for Inactive)
REMARK    1  A    between atoms: C_2  and  C_3 
REMARK    2  A    between atoms: C_3  and  N_4 
REMARK    3  A    between atoms: N_4  and  N_5 
REMARK    4  A    between atoms: C_10  and  C_11 
ROOT
HETATM    1  N   UNL     1      40.695 -14.343  -0.079  1.00  0.00    -0.231 N 
HETATM    2  C   UNL     1      41.427 -13.362   0.565  1.00  0.00     0.211 A 
HETATM    3  S   UNL     1      42.190 -13.402   2.036  1.00  0.00    -0.038 SA
HETATM    4  N   UNL     1      41.415 -12.271  -0.292  1.00  0.00    -0.250 N 
HETATM    5  N   UNL     1      40.729 -12.568  -1.439  1.00  0.00    -0.152 NA
HETATM    6  C   UNL     1      40.327 -13.807  -1.289  1.00  0.00     0.177 A 
HETATM    7  H   UNL     1      41.870 -11.377  -0.151  1.00  0.00     0.191 HD
ENDROOT
BRANCH   1   8
HETATM    8  N   UNL     1      40.447 -15.621   0.435  1.00  0.00    -0.225 NA
HETATM    9  H   UNL     1      39.546 -15.925   0.051  1.00  0.00     0.147 HD
BRANCH   8  10
HETATM   10  C   UNL     1      41.463 -16.588  -0.005  1.00  0.00     0.149 C 
BRANCH  10  11
HETATM   11  C   UNL     1      42.190 -17.184   1.183  1.00  0.00    -0.041 A 
HETATM   12  C   UNL     1      43.515 -17.661   1.039  1.00  0.00     0.011 A 
HETATM   13  C   UNL     1      44.202 -18.222   2.121  1.00  0.00     0.040 A 
HETATM   14  C   UNL     1      43.545 -18.297   3.329  1.00  0.00     0.105 A 
HETATM   15  C   UNL     1      42.261 -17.833   3.484  1.00  0.00     0.105 A 
HETATM   16  O   UNL     1      44.051 -18.819   4.478  1.00  0.00    -0.323 OA
HETATM   17  C   UNL     1      41.563 -17.267   2.439  1.00  0.00     0.048 A 
HETATM   18  O   UNL     1      41.795 -18.005   4.750  1.00  0.00    -0.323 OA
HETATM   19  C   UNL     1      42.930 -18.645   5.371  1.00  0.00     0.352 A 
ENDBRANCH  10  11
ENDBRANCH   8  10
ENDBRANCH   1   8
BRANCH   6  20
HETATM   20  C   UNL     1      39.545 -14.509  -2.334  1.00  0.00     0.016 A 
HETATM   21  C   UNL     1      38.189 -14.188  -2.450  1.00  0.00     0.034 A 
HETATM   22  C   UNL     1      37.439 -14.818  -3.426  1.00  0.00     0.117 A 
HETATM   23  N   UNL     1      37.944 -15.732  -4.279  1.00  0.00    -0.273 NA
HETATM   24  C   UNL     1      39.259 -16.011  -4.163  1.00  0.00     0.117 A 
HETATM   25  C   UNL     1      40.095 -15.426  -3.226  1.00  0.00     0.034 A 
ENDBRANCH   6  20
TORSDOF 4
ENDMDL
MODEL 8
REMARK VINA RESULT:      -7.1      3.641      6.243
REMARK  4 active torsions:
REMARK  status: ('A' for Active; 'I' for Inactive)
REMARK    1  A    between atoms: C_2  and  C_3 
REMARK    2  A    between atoms: C_3  and  N_4 
REMARK    3  A    between atoms: N_4  and  N_5 
REMARK    4  A    between atoms: C_10  and  C_11 
ROOT
HETATM    1  N   UNL     1      43.416 -18.023   4.705  1.00  0.00    -0.231 N 
HETATM    2  C   UNL     1      43.659 -16.948   5.540  1.00  0.00     0.211 A 
HETATM    3  S   UNL     1      42.850 -15.506   5.674  1.00  0.00    -0.038 SA
HETATM    4  N   UNL     1      44.763 -17.311   6.298  1.00  0.00    -0.250 N 
HETATM    5  N   UNL     1      45.176 -18.574   5.971  1.00  0.00    -0.152 NA
HETATM    6  C   UNL     1      44.350 -18.975   5.035  1.00  0.00     0.177 A 
HETATM    7  H   UNL     1      45.208 -16.769   7.028  1.00  0.00     0.191 HD
ENDROOT
BRANCH   1   8
HETATM    8  N   UNL     1      42.385 -18.084   3.761  1.00  0.00    -0.225 NA
HETATM    9  H   UNL     1      41.633 -17.477   4.104  1.00  0.00     0.147 HD
BRANCH   8  10
HETATM   10  C   UNL     1      42.814 -17.561   2.456  1.00  0.00     0.149 C 
BRANCH  10  11
HETATM   11  C   UNL     1      41.775 -16.618   1.886  1.00  0.00    -0.041 A 
HETATM   12  C   UNL     1      40.630 -16.277   2.645  1.00  0.00     0.011 A 
HETATM   13  C   UNL     1      39.656 -15.413   2.135  1.00  0.00     0.040 A 
HETATM   14  C   UNL     1      39.846 -14.908   0.867  1.00  0.00     0.105 A 
HETATM   15  C   UNL     1      40.956 -15.225   0.122  1.00  0.00     0.105 A 
HETATM   16  O   UNL     1      39.002 -14.068   0.211  1.00  0.00    -0.323 OA
HETATM   17  C   UNL     1      41.937 -16.065   0.602  1.00  0.00     0.048 A 
HETATM   18  O   UNL     1      40.950 -14.627  -1.099  1.00  0.00    -0.323 OA
HETATM   19  C   UNL     1      39.700 -13.907  -1.042  1.00  0.00     0.352 A 
ENDBRANCH  10  11
ENDBRANCH   8  10
ENDBRANCH   1   8
BRANCH   6  20
HETATM   20  C   UNL     1      44.461 -20.317   4.415  1.00  0.00     0.016 A 
HETATM   21  C   UNL     1      44.448 -20.385   3.019  1.00  0.00     0.034 A 
HETATM   22  C   UNL     1      44.564 -21.624   2.413  1.00  0.00     0.117 A 
HETATM   23  N   UNL     1      44.688 -22.778   3.098  1.00  0.00    -0.273 NA
HETATM   24  C   UNL     1      44.719 -22.687   4.444  1.00  0.00     0.117 A 
HETATM   25  C   UNL     1      44.621 -21.494   5.142  1.00  0.00     0.034 A 
ENDBRANCH   6  20
TORSDOF 4
ENDMDL
MODEL 9
REMARK VINA RESULT:      -7.0      2.741      4.371
REMARK  4 active torsions:
REMARK  status: ('A' for Active; 'I' for Inactive)
REMARK    1  A    between atoms: C_2  and  C_3 
REMARK    2  A    between atoms: C_3  and  N_4 
REMARK    3  A    between atoms: N_4  and  N_5 
REMARK    4  A    between atoms: C_10  and  C_11 
ROOT
HETATM    1  N   UNL     1      40.830 -13.819   3.625  1.00  0.00    -0.231 N 
HETATM    2  C   UNL     1      40.783 -12.460   3.881  1.00  0.00     0.211 A 
HETATM    3  S   UNL     1      39.749 -11.599   4.850  1.00  0.00    -0.038 SA
HETATM    4  N   UNL     1      41.822 -11.910   3.145  1.00  0.00    -0.250 N 
HETATM    5  N   UNL     1      42.509 -12.888   2.478  1.00  0.00    -0.152 NA
HETATM    6  C   UNL     1      41.907 -14.009   2.794  1.00  0.00     0.177 A 
HETATM    7  H   UNL     1      42.096 -10.935   3.107  1.00  0.00     0.191 HD
ENDROOT
BRANCH   1   8
HETATM    8  N   UNL     1      39.952 -14.764   4.166  1.00  0.00    -0.225 NA
HETATM    9  H   UNL     1      40.047 -15.615   3.600  1.00  0.00     0.147 HD
BRANCH   8  10
HETATM   10  C   UNL     1      40.313 -15.111   5.547  1.00  0.00     0.149 C 
BRANCH  10  11
HETATM   11  C   UNL     1      41.406 -16.160   5.572  1.00  0.00    -0.041 A 
HETATM   12  C   UNL     1      41.196 -17.419   4.959  1.00  0.00     0.011 A 
HETATM   13  C   UNL     1      42.190 -18.405   4.976  1.00  0.00     0.040 A 
HETATM   14  C   UNL     1      43.376 -18.109   5.612  1.00  0.00     0.105 A 
HETATM   15  C   UNL     1      43.594 -16.890   6.204  1.00  0.00     0.105 A 
HETATM   16  O   UNL     1      44.440 -18.946   5.736  1.00  0.00    -0.323 OA
HETATM   17  C   UNL     1      42.639 -15.896   6.195  1.00  0.00     0.048 A 
HETATM   18  O   UNL     1      44.824 -16.804   6.778  1.00  0.00    -0.323 OA
HETATM   19  C   UNL     1      45.349 -18.117   6.491  1.00  0.00     0.352 A 
ENDBRANCH  10  11
ENDBRANCH   8  10
ENDBRANCH   1   8
BRANCH   6  20
HETATM   20  C   UNL     1      42.365 -15.318   2.271  1.00  0.00     0.016 A 
HETATM   21  C   UNL     1      41.505 -16.005   1.409  1.00  0.00     0.034 A 
HETATM   22  C   UNL     1      41.913 -17.223   0.895  1.00  0.00     0.117 A 
HETATM   23  N   UNL     1      43.101 -17.790   1.182  1.00  0.00    -0.273 NA
HETATM   24  C   UNL     1      43.925 -17.101   1.999  1.00  0.00     0.117 A 
HETATM   25  C   UNL     1      43.611 -15.871   2.554  1.00  0.00     0.034 A 
ENDBRANCH   6  20
TORSDOF 4
ENDMDL
MODEL 10
REMARK VINA RESULT:      -6.9      2.958      5.213
REMARK  4 active torsions:
REMARK  status: ('A' for Active; 'I' for Inactive)
REMARK    1  A    between atoms: C_2  and  C_3 
REMARK    2  A    between atoms: C_3  and  N_4 
REMARK    3  A    between atoms: N_4  and  N_5 
REMARK    4  A    between atoms: C_10  and  C_11 
ROOT
HETATM    1  N   UNL     1      39.769 -15.246   1.409  1.00  0.00    -0.231 N 
HETATM    2  C   UNL     1      39.084 -14.458   0.503  1.00  0.00     0.211 A 
HETATM    3  S   UNL     1      37.682 -13.593   0.696  1.00  0.00    -0.038 SA
HETATM    4  N   UNL     1      39.825 -14.515  -0.669  1.00  0.00    -0.250 N 
HETATM    5  N   UNL     1      40.943 -15.284  -0.494  1.00  0.00    -0.152 NA
HETATM    6  C   UNL     1      40.890 -15.691   0.752  1.00  0.00     0.177 A 
HETATM    7  H   UNL     1      39.627 -14.040  -1.541  1.00  0.00     0.191 HD
ENDROOT
BRANCH   1   8
HETATM    8  N   UNL     1      39.370 -15.474   2.731  1.00  0.00    -0.225 NA
HETATM    9  H   UNL     1      39.814 -16.350   3.028  1.00  0.00     0.147 HD
BRANCH   8  10
HETATM   10  C   UNL     1      39.843 -14.413   3.631  1.00  0.00     0.149 C 
BRANCH  10  11
HETATM   11  C   UNL     1      41.004 -14.898   4.474  1.00  0.00    -0.041 A 
HETATM   12  C   UNL     1      41.118 -16.270   4.803  1.00  0.00     0.011 A 
HETATM   13  C   UNL     1      42.180 -16.738   5.586  1.00  0.00     0.040 A 
HETATM   14  C   UNL     1      43.106 -15.819   6.028  1.00  0.00     0.105 A 
HETATM   15  C   UNL     1      43.010 -14.486   5.710  1.00  0.00     0.105 A 
HETATM   16  O   UNL     1      44.188 -16.092   6.804  1.00  0.00    -0.323 OA
HETATM   17  C   UNL     1      41.982 -13.997   4.933  1.00  0.00     0.048 A 
HETATM   18  O   UNL     1      44.019 -13.750   6.247  1.00  0.00    -0.323 OA
HETATM   19  C   UNL     1      44.753 -14.772   6.953  1.00  0.00     0.352 A 
ENDBRANCH  10  11
ENDBRANCH   8  10
ENDBRANCH   1   8
BRANCH   6  20
HETATM   20  C   UNL     1      41.942 -16.555   1.339  1.00  0.00     0.016 A 
HETATM   21  C   UNL     1      41.642 -17.908   1.515  1.00  0.00     0.034 A 
HETATM   22  C   UNL     1      42.610 -18.740   2.049  1.00  0.00     0.117 A 
HETATM   23  N   UNL     1      43.836 -18.315   2.413  1.00  0.00    -0.273 NA
HETATM   24  C   UNL     1      44.112 -17.008   2.215  1.00  0.00     0.117 A 
HETATM   25  C   UNL     1      43.214 -16.101   1.678  1.00  0.00     0.034 A 
ENDBRANCH   6  20
TORSDOF 4
ENDMDL
