MODEL 1
REMARK VINA RESULT:      -8.8      0.000      0.000
REMARK  9 active torsions:
REMARK  status: ('A' for Active; 'I' for Inactive)
REMARK    1  A    between atoms: O_2  and  C_3 
REMARK    2  A    between atoms: C_3  and  C_4 
REMARK    3  A    between atoms: C_6  and  C_7 
REMARK    4  A    between atoms: C_7  and  N_8 
REMARK       I    between atoms: N_8  and  C_9 
REMARK    5  A    between atoms: C_9  and  C_10 
REMARK    6  A    between atoms: C_10  and  S_11 
REMARK    7  A    between atoms: S_11  and  C_12 
REMARK    8  A    between atoms: C_12  and  C_13 
REMARK       I    between atoms: C_13  and  N_14 
REMARK    9  A    between atoms: N_14  and  C_15 
ROOT
HETATM    1  S   UNL     1      42.373 -13.538   5.422  1.00  0.00    -0.150 SA
ENDROOT
BRANCH   1   2
HETATM    2  C   UNL     1      43.738 -14.470   6.190  1.00  0.00     0.177 C 
BRANCH   2   3
HETATM    3  C   UNL     1      44.751 -13.614   6.935  1.00  0.00     0.227 C 
HETATM    4  N   UNL     1      44.354 -13.106   8.144  1.00  0.00    -0.354 N 
HETATM    5  H   UNL     1      43.454 -13.384   8.525  1.00  0.00     0.162 HD
HETATM    6  O   UNL     1      45.884 -13.445   6.488  1.00  0.00    -0.273 OA
BRANCH   4   7
HETATM    7  C   UNL     1      45.271 -12.420   9.024  1.00  0.00     0.187 C 
BRANCH   7   8
HETATM    8  C   UNL     1      44.504 -11.595   9.989  1.00  0.00     0.071 A 
HETATM    9  O   UNL     1      43.152 -11.515   9.809  1.00  0.00    -0.307 OA
HETATM   10  C   UNL     1      42.650 -10.718  10.806  1.00  0.00     0.150 A 
HETATM   11  C   UNL     1      43.686 -10.302  11.621  1.00  0.00     0.046 A 
HETATM   12  C   UNL     1      44.875 -10.860  11.095  1.00  0.00     0.037 A 
BRANCH  10  13
HETATM   13  C   UNL     1      41.233 -10.440  10.881  1.00  0.00     0.316 C 
HETATM   14  O   UNL     1      40.490 -10.308   9.915  1.00  0.00    -0.257 OA
BRANCH  13  15
HETATM   15  O   UNL     1      40.834 -10.344  12.182  1.00  0.00    -0.321 OA
HETATM   16  C   UNL     1      40.504 -11.597  12.780  1.00  0.00     0.213 C 
ENDBRANCH  13  15
ENDBRANCH  10  13
ENDBRANCH   7   8
ENDBRANCH   4   7
ENDBRANCH   2   3
ENDBRANCH   1   2
BRANCH   1  17
HETATM   17  C   UNL     1      42.432 -14.269   3.744  1.00  0.00     0.177 C 
BRANCH  17  18
HETATM   18  C   UNL     1      42.321 -15.794   3.775  1.00  0.00     0.231 C 
HETATM   19  N   UNL     1      43.438 -16.444   3.283  1.00  0.00    -0.327 N 
HETATM   20  H   UNL     1      44.218 -15.838   3.046  1.00  0.00     0.169 HD
HETATM   21  O   UNL     1      41.275 -16.326   4.139  1.00  0.00    -0.272 OA
BRANCH  19  22
HETATM   22  C   UNL     1      43.667 -17.829   3.169  1.00  0.00     0.035 A 
HETATM   23  C   UNL     1      44.031 -18.652   4.237  1.00  0.00     0.042 A 
HETATM   24  C   UNL     1      44.273 -20.026   4.044  1.00  0.00    -0.024 A 
HETATM   25  C   UNL     1      44.135 -20.585   2.754  1.00  0.00    -0.026 A 
HETATM   26  C   UNL     1      44.656 -20.857   5.110  1.00  0.00     0.012 A 
HETATM   27  C   UNL     1      43.759 -19.755   1.690  1.00  0.00     0.014 A 
HETATM   28  C   UNL     1      44.381 -21.954   2.564  1.00  0.00     0.012 A 
HETATM   29  C   UNL     1      43.530 -18.392   1.896  1.00  0.00     0.030 A 
HETATM   30  C   UNL     1      44.763 -22.765   3.635  1.00  0.00     0.001 A 
HETATM   31  C   UNL     1      44.900 -22.216   4.905  1.00  0.00     0.001 A 
ENDBRANCH  19  22
ENDBRANCH  17  18
ENDBRANCH   1  17
TORSDOF 9
ENDMDL
MODEL 2
REMARK VINA RESULT:      -8.8      2.119      3.275
REMARK  9 active torsions:
REMARK  status: ('A' for Active; 'I' for Inactive)
REMARK    1  A    between atoms: O_2  and  C_3 
REMARK    2  A    between atoms: C_3  and  C_4 
REMARK    3  A    between atoms: C_6  and  C_7 
REMARK    4  A    between atoms: C_7  and  N_8 
REMARK       I    between atoms: N_8  and  C_9 
REMARK    5  A    between atoms: C_9  and  C_10 
REMARK    6  A    between atoms: C_10  and  S_11 
REMARK    7  A    between atoms: S_11  and  C_12 
REMARK    8  A    between atoms: C_12  and  C_13 
REMARK       I    between atoms: C_13  and  N_14 
REMARK    9  A    between atoms: N_14  and  C_15 
ROOT
HETATM    1  S   UNL     1      40.121 -13.608   3.324  1.00  0.00    -0.150 SA
ENDROOT
BRANCH   1   2
HETATM    2  C   UNL     1      41.401 -12.533   4.050  1.00  0.00     0.177 C 
BRANCH   2   3
HETATM    3  C   UNL     1      42.616 -13.270   4.594  1.00  0.00     0.227 C 
HETATM    4  N   UNL     1      42.505 -13.785   5.859  1.00  0.00    -0.354 N 
HETATM    5  H   UNL     1      41.610 -13.732   6.337  1.00  0.00     0.162 HD
HETATM    6  O   UNL     1      43.617 -13.435   3.900  1.00  0.00    -0.273 OA
BRANCH   4   7
HETATM    7  C   UNL     1      43.517 -14.644   6.427  1.00  0.00     0.187 C 
BRANCH   7   8
HETATM    8  C   UNL     1      44.599 -13.813   7.009  1.00  0.00     0.071 A 
HETATM    9  O   UNL     1      44.316 -13.137   8.163  1.00  0.00    -0.307 OA
HETATM   10  C   UNL     1      45.446 -12.449   8.524  1.00  0.00     0.150 A 
HETATM   11  C   UNL     1      46.446 -12.700   7.602  1.00  0.00     0.046 A 
HETATM   12  C   UNL     1      45.901 -13.570   6.629  1.00  0.00     0.037 A 
BRANCH  10  13
HETATM   13  C   UNL     1      45.458 -11.628   9.714  1.00  0.00     0.316 C 
HETATM   14  O   UNL     1      45.661 -10.419   9.733  1.00  0.00    -0.257 OA
BRANCH  13  15
HETATM   15  O   UNL     1      45.209 -12.387  10.820  1.00  0.00    -0.321 OA
HETATM   16  C   UNL     1      44.003 -12.042  11.501  1.00  0.00     0.213 C 
ENDBRANCH  13  15
ENDBRANCH  10  13
ENDBRANCH   7   8
ENDBRANCH   4   7
ENDBRANCH   2   3
ENDBRANCH   1   2
BRANCH   1  17
HETATM   17  C   UNL     1      41.153 -14.504   2.104  1.00  0.00     0.177 C 
BRANCH  17  18
HETATM   18  C   UNL     1      41.362 -15.969   2.490  1.00  0.00     0.231 C 
HETATM   19  N   UNL     1      42.689 -16.314   2.669  1.00  0.00    -0.327 N 
HETATM   20  H   UNL     1      43.346 -15.542   2.608  1.00  0.00     0.169 HD
HETATM   21  O   UNL     1      40.402 -16.734   2.540  1.00  0.00    -0.272 OA
BRANCH  19  22
HETATM   22  C   UNL     1      43.229 -17.566   3.025  1.00  0.00     0.035 A 
HETATM   23  C   UNL     1      43.232 -18.683   2.188  1.00  0.00     0.042 A 
HETATM   24  C   UNL     1      43.764 -19.913   2.620  1.00  0.00    -0.024 A 
HETATM   25  C   UNL     1      44.316 -20.016   3.917  1.00  0.00    -0.026 A 
HETATM   26  C   UNL     1      43.756 -21.046   1.791  1.00  0.00     0.012 A 
HETATM   27  C   UNL     1      44.320 -18.888   4.747  1.00  0.00     0.014 A 
HETATM   28  C   UNL     1      44.843 -21.245   4.348  1.00  0.00     0.012 A 
HETATM   29  C   UNL     1      43.780 -17.677   4.305  1.00  0.00     0.030 A 
HETATM   30  C   UNL     1      44.823 -22.361   3.510  1.00  0.00     0.001 A 
HETATM   31  C   UNL     1      44.280 -22.261   2.233  1.00  0.00     0.001 A 
ENDBRANCH  19  22
ENDBRANCH  17  18
ENDBRANCH   1  17
TORSDOF 9
ENDMDL
MODEL 3
REMARK VINA RESULT:      -8.8      1.980      3.525
REMARK  9 active torsions:
REMARK  status: ('A' for Active; 'I' for Inactive)
REMARK    1  A    between atoms: O_2  and  C_3 
REMARK    2  A    between atoms: C_3  and  C_4 
REMARK    3  A    between atoms: C_6  and  C_7 
REMARK    4  A    between atoms: C_7  and  N_8 
REMARK       I    between atoms: N_8  and  C_9 
REMARK    5  A    between atoms: C_9  and  C_10 
REMARK    6  A    between atoms: C_10  and  S_11 
REMARK    7  A    between atoms: S_11  and  C_12 
REMARK    8  A    between atoms: C_12  and  C_13 
REMARK       I    between atoms: C_13  and  N_14 
REMARK    9  A    between atoms: N_14  and  C_15 
ROOT
HETATM    1  S   UNL     1      40.446 -12.561   5.076  1.00  0.00    -0.150 SA
ENDROOT
BRANCH   1   2
HETATM    2  C   UNL     1      39.581 -12.630   6.679  1.00  0.00     0.177 C 
BRANCH   2   3
HETATM    3  C   UNL     1      39.719 -11.377   7.530  1.00  0.00     0.227 C 
HETATM    4  N   UNL     1      40.450 -11.497   8.683  1.00  0.00    -0.354 N 
HETATM    5  H   UNL     1      40.930 -12.371   8.875  1.00  0.00     0.162 HD
HETATM    6  O   UNL     1      39.241 -10.306   7.160  1.00  0.00    -0.273 OA
BRANCH   4   7
HETATM    7  C   UNL     1      40.795 -10.352   9.492  1.00  0.00     0.187 C 
BRANCH   7   8
HETATM    8  C   UNL     1      42.193 -10.488   9.968  1.00  0.00     0.071 A 
HETATM    9  O   UNL     1      43.101 -11.026   9.100  1.00  0.00    -0.307 OA
HETATM   10  C   UNL     1      44.315 -11.051   9.736  1.00  0.00     0.150 A 
HETATM   11  C   UNL     1      44.175 -10.518  11.005  1.00  0.00     0.046 A 
HETATM   12  C   UNL     1      42.815 -10.162  11.155  1.00  0.00     0.037 A 
BRANCH  10  13
HETATM   13  C   UNL     1      45.485 -11.575   9.067  1.00  0.00     0.316 C 
HETATM   14  O   UNL     1      46.424 -10.900   8.660  1.00  0.00    -0.257 OA
BRANCH  13  15
HETATM   15  O   UNL     1      45.402 -12.932   8.952  1.00  0.00    -0.321 OA
HETATM   16  C   UNL     1      45.255 -13.392   7.610  1.00  0.00     0.213 C 
ENDBRANCH  13  15
ENDBRANCH  10  13
ENDBRANCH   7   8
ENDBRANCH   4   7
ENDBRANCH   2   3
ENDBRANCH   1   2
BRANCH   1  17
HETATM   17  C   UNL     1      41.978 -13.451   5.536  1.00  0.00     0.177 C 
BRANCH  17  18
HETATM   18  C   UNL     1      41.901 -14.942   5.207  1.00  0.00     0.231 C 
HETATM   19  N   UNL     1      42.783 -15.343   4.220  1.00  0.00    -0.327 N 
HETATM   20  H   UNL     1      43.426 -14.623   3.901  1.00  0.00     0.169 HD
HETATM   21  O   UNL     1      41.053 -15.647   5.749  1.00  0.00    -0.272 OA
BRANCH  19  22
HETATM   22  C   UNL     1      42.972 -16.631   3.682  1.00  0.00     0.035 A 
HETATM   23  C   UNL     1      43.705 -17.640   4.310  1.00  0.00     0.042 A 
HETATM   24  C   UNL     1      43.878 -18.897   3.700  1.00  0.00    -0.024 A 
HETATM   25  C   UNL     1      43.292 -19.148   2.439  1.00  0.00    -0.026 A 
HETATM   26  C   UNL     1      44.628 -19.912   4.317  1.00  0.00     0.012 A 
HETATM   27  C   UNL     1      42.549 -18.134   1.821  1.00  0.00     0.014 A 
HETATM   28  C   UNL     1      43.469 -20.401   1.831  1.00  0.00     0.012 A 
HETATM   29  C   UNL     1      42.393 -16.888   2.436  1.00  0.00     0.030 A 
HETATM   30  C   UNL     1      44.220 -21.397   2.458  1.00  0.00     0.001 A 
HETATM   31  C   UNL     1      44.798 -21.152   3.700  1.00  0.00     0.001 A 
ENDBRANCH  19  22
ENDBRANCH  17  18
ENDBRANCH   1  17
TORSDOF 9
ENDMDL
MODEL 4
REMARK VINA RESULT:      -8.6      1.950      3.528
REMARK  9 active torsions:
REMARK  status: ('A' for Active; 'I' for Inactive)
REMARK    1  A    between atoms: O_2  and  C_3 
REMARK    2  A    between atoms: C_3  and  C_4 
REMARK    3  A    between atoms: C_6  and  C_7 
REMARK    4  A    between atoms: C_7  and  N_8 
REMARK       I    between atoms: N_8  and  C_9 
REMARK    5  A    between atoms: C_9  and  C_10 
REMARK    6  A    between atoms: C_10  and  S_11 
REMARK    7  A    between atoms: S_11  and  C_12 
REMARK    8  A    between atoms: C_12  and  C_13 
REMARK       I    between atoms: C_13  and  N_14 
REMARK    9  A    between atoms: N_14  and  C_15 
ROOT
HETATM    1  S   UNL     1      40.138 -13.380   4.306  1.00  0.00    -0.150 SA
ENDROOT
BRANCH   1   2
HETATM    2  C   UNL     1      40.592 -11.744   4.969  1.00  0.00     0.177 C 
BRANCH   2   3
HETATM    3  C   UNL     1      40.355 -11.575   6.462  1.00  0.00     0.227 C 
HETATM    4  N   UNL     1      41.070 -10.588   7.088  1.00  0.00    -0.354 N 
HETATM    5  H   UNL     1      41.649  -9.967   6.530  1.00  0.00     0.162 HD
HETATM    6  O   UNL     1      39.520 -12.259   7.050  1.00  0.00    -0.273 OA
BRANCH   4   7
HETATM    7  C   UNL     1      40.819 -10.215   8.460  1.00  0.00     0.187 C 
BRANCH   7   8
HETATM    8  C   UNL     1      42.015 -10.525   9.282  1.00  0.00     0.071 A 
HETATM    9  O   UNL     1      43.161 -10.858   8.618  1.00  0.00    -0.307 OA
HETATM   10  C   UNL     1      44.129 -11.094   9.561  1.00  0.00     0.150 A 
HETATM   11  C   UNL     1      43.594 -10.899  10.821  1.00  0.00     0.046 A 
HETATM   12  C   UNL     1      42.238 -10.539  10.643  1.00  0.00     0.037 A 
BRANCH  10  13
HETATM   13  C   UNL     1      45.466 -11.475   9.163  1.00  0.00     0.316 C 
HETATM   14  O   UNL     1      46.385 -10.694   8.944  1.00  0.00    -0.257 OA
BRANCH  13  15
HETATM   15  O   UNL     1      45.566 -12.833   9.064  1.00  0.00    -0.321 OA
HETATM   16  C   UNL     1      45.325 -13.338   7.752  1.00  0.00     0.213 C 
ENDBRANCH  13  15
ENDBRANCH  10  13
ENDBRANCH   7   8
ENDBRANCH   4   7
ENDBRANCH   2   3
ENDBRANCH   1   2
BRANCH   1  17
HETATM   17  C   UNL     1      41.816 -14.024   3.954  1.00  0.00     0.177 C 
BRANCH  17  18
HETATM   18  C   UNL     1      41.880 -15.549   4.047  1.00  0.00     0.231 C 
HETATM   19  N   UNL     1      43.146 -16.068   3.846  1.00  0.00    -0.327 N 
HETATM   20  H   UNL     1      43.883 -15.376   3.748  1.00  0.00     0.169 HD
HETATM   21  O   UNL     1      40.849 -16.198   4.208  1.00  0.00    -0.272 OA
BRANCH  19  22
HETATM   22  C   UNL     1      43.555 -17.416   3.863  1.00  0.00     0.035 A 
HETATM   23  C   UNL     1      43.390 -18.297   2.792  1.00  0.00     0.042 A 
HETATM   24  C   UNL     1      43.797 -19.642   2.890  1.00  0.00    -0.024 A 
HETATM   25  C   UNL     1      44.392 -20.105   4.085  1.00  0.00    -0.026 A 
HETATM   26  C   UNL     1      43.620 -20.538   1.824  1.00  0.00     0.012 A 
HETATM   27  C   UNL     1      44.564 -19.212   5.150  1.00  0.00     0.014 A 
HETATM   28  C   UNL     1      44.794 -21.448   4.181  1.00  0.00     0.012 A 
HETATM   29  C   UNL     1      44.147 -17.883   5.040  1.00  0.00     0.030 A 
HETATM   30  C   UNL     1      44.607 -22.325   3.112  1.00  0.00     0.001 A 
HETATM   31  C   UNL     1      44.021 -21.870   1.935  1.00  0.00     0.001 A 
ENDBRANCH  19  22
ENDBRANCH  17  18
ENDBRANCH   1  17
TORSDOF 9
ENDMDL
MODEL 5
REMARK VINA RESULT:      -8.5      4.779      8.419
REMARK  9 active torsions:
REMARK  status: ('A' for Active; 'I' for Inactive)
REMARK    1  A    between atoms: O_2  and  C_3 
REMARK    2  A    between atoms: C_3  and  C_4 
REMARK    3  A    between atoms: C_6  and  C_7 
REMARK    4  A    between atoms: C_7  and  N_8 
REMARK       I    between atoms: N_8  and  C_9 
REMARK    5  A    between atoms: C_9  and  C_10 
REMARK    6  A    between atoms: C_10  and  S_11 
REMARK    7  A    between atoms: S_11  and  C_12 
REMARK    8  A    between atoms: C_12  and  C_13 
REMARK       I    between atoms: C_13  and  N_14 
REMARK    9  A    between atoms: N_14  and  C_15 
ROOT
HETATM    1  S   UNL     1      41.511 -13.310   5.515  1.00  0.00    -0.150 SA
ENDROOT
BRANCH   1   2
HETATM    2  C   UNL     1      39.832 -13.128   4.830  1.00  0.00     0.177 C 
BRANCH   2   3
HETATM    3  C   UNL     1      39.784 -12.785   3.348  1.00  0.00     0.227 C 
HETATM    4  N   UNL     1      39.377 -13.782   2.501  1.00  0.00    -0.354 N 
HETATM    5  H   UNL     1      39.049 -14.659   2.893  1.00  0.00     0.162 HD
HETATM    6  O   UNL     1      40.046 -11.650   2.955  1.00  0.00    -0.273 OA
BRANCH   4   7
HETATM    7  C   UNL     1      39.129 -13.540   1.099  1.00  0.00     0.187 C 
BRANCH   7   8
HETATM    8  C   UNL     1      39.976 -14.446   0.285  1.00  0.00     0.071 A 
HETATM    9  O   UNL     1      39.904 -14.318  -1.073  1.00  0.00    -0.307 OA
HETATM   10  C   UNL     1      40.763 -15.236  -1.620  1.00  0.00     0.150 A 
HETATM   11  C   UNL     1      41.386 -15.938  -0.603  1.00  0.00     0.046 A 
HETATM   12  C   UNL     1      40.878 -15.435   0.617  1.00  0.00     0.037 A 
BRANCH  10  13
HETATM   13  C   UNL     1      40.907 -15.346  -3.054  1.00  0.00     0.316 C 
HETATM   14  O   UNL     1      41.608 -14.619  -3.749  1.00  0.00    -0.257 OA
BRANCH  13  15
HETATM   15  O   UNL     1      40.151 -16.378  -3.532  1.00  0.00    -0.321 OA
HETATM   16  C   UNL     1      38.922 -15.968  -4.128  1.00  0.00     0.213 C 
ENDBRANCH  13  15
ENDBRANCH  10  13
ENDBRANCH   7   8
ENDBRANCH   4   7
ENDBRANCH   2   3
ENDBRANCH   1   2
BRANCH   1  17
HETATM   17  C   UNL     1      42.355 -13.986   4.036  1.00  0.00     0.177 C 
BRANCH  17  18
HETATM   18  C   UNL     1      42.215 -15.505   3.935  1.00  0.00     0.231 C 
HETATM   19  N   UNL     1      43.358 -16.142   3.489  1.00  0.00    -0.327 N 
HETATM   20  H   UNL     1      44.167 -15.539   3.369  1.00  0.00     0.169 HD
HETATM   21  O   UNL     1      41.132 -16.038   4.165  1.00  0.00    -0.272 OA
BRANCH  19  22
HETATM   22  C   UNL     1      43.572 -17.520   3.285  1.00  0.00     0.035 A 
HETATM   23  C   UNL     1      43.995 -18.402   4.281  1.00  0.00     0.042 A 
HETATM   24  C   UNL     1      44.217 -19.763   3.998  1.00  0.00    -0.024 A 
HETATM   25  C   UNL     1      43.997 -20.249   2.690  1.00  0.00    -0.026 A 
HETATM   26  C   UNL     1      44.658 -20.654   4.990  1.00  0.00     0.012 A 
HETATM   27  C   UNL     1      43.561 -19.360   1.698  1.00  0.00     0.014 A 
HETATM   28  C   UNL     1      44.222 -21.606   2.408  1.00  0.00     0.012 A 
HETATM   29  C   UNL     1      43.354 -18.009   1.993  1.00  0.00     0.030 A 
HETATM   30  C   UNL     1      44.663 -22.476   3.407  1.00  0.00     0.001 A 
HETATM   31  C   UNL     1      44.881 -22.000   4.696  1.00  0.00     0.001 A 
ENDBRANCH  19  22
ENDBRANCH  17  18
ENDBRANCH   1  17
TORSDOF 9
ENDMDL
MODEL 6
REMARK VINA RESULT:      -8.5      2.965      4.818
REMARK  9 active torsions:
REMARK  status: ('A' for Active; 'I' for Inactive)
REMARK    1  A    between atoms: O_2  and  C_3 
REMARK    2  A    between atoms: C_3  and  C_4 
REMARK    3  A    between atoms: C_6  and  C_7 
REMARK    4  A    between atoms: C_7  and  N_8 
REMARK       I    between atoms: N_8  and  C_9 
REMARK    5  A    between atoms: C_9  and  C_10 
REMARK    6  A    between atoms: C_10  and  S_11 
REMARK    7  A    between atoms: S_11  and  C_12 
REMARK    8  A    between atoms: C_12  and  C_13 
REMARK       I    between atoms: C_13  and  N_14 
REMARK    9  A    between atoms: N_14  and  C_15 
ROOT
HETATM    1  S   UNL     1      41.726 -13.752   0.437  1.00  0.00    -0.150 SA
ENDROOT
BRANCH   1   2
HETATM    2  C   UNL     1      40.138 -13.255   1.180  1.00  0.00     0.177 C 
BRANCH   2   3
HETATM    3  C   UNL     1      40.244 -12.691   2.589  1.00  0.00     0.227 C 
HETATM    4  N   UNL     1      40.299 -13.601   3.612  1.00  0.00    -0.354 N 
HETATM    5  H   UNL     1      40.353 -14.591   3.390  1.00  0.00     0.162 HD
HETATM    6  O   UNL     1      40.333 -11.479   2.779  1.00  0.00    -0.273 OA
BRANCH   4   7
HETATM    7  C   UNL     1      40.566 -13.205   4.974  1.00  0.00     0.187 C 
BRANCH   7   8
HETATM    8  C   UNL     1      41.717 -13.981   5.497  1.00  0.00     0.071 A 
HETATM    9  O   UNL     1      42.770 -13.273   6.004  1.00  0.00    -0.307 OA
HETATM   10  C   UNL     1      43.707 -14.178   6.432  1.00  0.00     0.150 A 
HETATM   11  C   UNL     1      43.239 -15.460   6.203  1.00  0.00     0.046 A 
HETATM   12  C   UNL     1      41.966 -15.333   5.600  1.00  0.00     0.037 A 
BRANCH  10  13
HETATM   13  C   UNL     1      44.949 -13.729   7.021  1.00  0.00     0.316 C 
HETATM   14  O   UNL     1      45.971 -13.470   6.395  1.00  0.00    -0.257 OA
BRANCH  13  15
HETATM   15  O   UNL     1      44.826 -13.629   8.376  1.00  0.00    -0.321 OA
HETATM   16  C   UNL     1      45.130 -12.334   8.892  1.00  0.00     0.213 C 
ENDBRANCH  13  15
ENDBRANCH  10  13
ENDBRANCH   7   8
ENDBRANCH   4   7
ENDBRANCH   2   3
ENDBRANCH   1   2
BRANCH   1  17
HETATM   17  C   UNL     1      41.357 -15.517   0.118  1.00  0.00     0.177 C 
BRANCH  17  18
HETATM   18  C   UNL     1      41.656 -16.398   1.332  1.00  0.00     0.231 C 
HETATM   19  N   UNL     1      42.731 -17.249   1.152  1.00  0.00    -0.327 N 
HETATM   20  H   UNL     1      43.237 -17.124   0.280  1.00  0.00     0.169 HD
HETATM   21  O   UNL     1      40.918 -16.361   2.314  1.00  0.00    -0.272 OA
BRANCH  19  22
HETATM   22  C   UNL     1      43.271 -18.183   2.058  1.00  0.00     0.035 A 
HETATM   23  C   UNL     1      43.451 -19.538   1.770  1.00  0.00     0.042 A 
HETATM   24  C   UNL     1      43.971 -20.422   2.735  1.00  0.00    -0.024 A 
HETATM   25  C   UNL     1      44.328 -19.930   4.010  1.00  0.00    -0.026 A 
HETATM   26  C   UNL     1      44.139 -21.788   2.459  1.00  0.00     0.012 A 
HETATM   27  C   UNL     1      44.155 -18.568   4.288  1.00  0.00     0.014 A 
HETATM   28  C   UNL     1      44.843 -20.814   4.973  1.00  0.00     0.012 A 
HETATM   29  C   UNL     1      43.630 -17.705   3.322  1.00  0.00     0.030 A 
HETATM   30  C   UNL     1      45.001 -22.171   4.681  1.00  0.00     0.001 A 
HETATM   31  C   UNL     1      44.649 -22.656   3.426  1.00  0.00     0.001 A 
ENDBRANCH  19  22
ENDBRANCH  17  18
ENDBRANCH   1  17
TORSDOF 9
ENDMDL
MODEL 7
REMARK VINA RESULT:      -8.5      4.340      5.367
REMARK  9 active torsions:
REMARK  status: ('A' for Active; 'I' for Inactive)
REMARK    1  A    between atoms: O_2  and  C_3 
REMARK    2  A    between atoms: C_3  and  C_4 
REMARK    3  A    between atoms: C_6  and  C_7 
REMARK    4  A    between atoms: C_7  and  N_8 
REMARK       I    between atoms: N_8  and  C_9 
REMARK    5  A    between atoms: C_9  and  C_10 
REMARK    6  A    between atoms: C_10  and  S_11 
REMARK    7  A    between atoms: S_11  and  C_12 
REMARK    8  A    between atoms: C_12  and  C_13 
REMARK       I    between atoms: C_13  and  N_14 
REMARK    9  A    between atoms: N_14  and  C_15 
ROOT
HETATM    1  S   UNL     1      39.602 -13.563   0.774  1.00  0.00    -0.150 SA
ENDROOT
BRANCH   1   2
HETATM    2  C   UNL     1      40.631 -12.628   1.952  1.00  0.00     0.177 C 
BRANCH   2   3
HETATM    3  C   UNL     1      40.314 -12.886   3.417  1.00  0.00     0.227 C 
HETATM    4  N   UNL     1      40.227 -14.198   3.803  1.00  0.00    -0.354 N 
HETATM    5  H   UNL     1      40.457 -14.926   3.134  1.00  0.00     0.162 HD
HETATM    6  O   UNL     1      40.201 -11.955   4.212  1.00  0.00    -0.273 OA
BRANCH   4   7
HETATM    7  C   UNL     1      40.097 -14.579   5.190  1.00  0.00     0.187 C 
BRANCH   7   8
HETATM    8  C   UNL     1      41.426 -14.972   5.720  1.00  0.00     0.071 A 
HETATM    9  O   UNL     1      41.463 -16.005   6.614  1.00  0.00    -0.307 OA
HETATM   10  C   UNL     1      42.775 -16.201   6.962  1.00  0.00     0.150 A 
HETATM   11  C   UNL     1      43.567 -15.296   6.279  1.00  0.00     0.046 A 
HETATM   12  C   UNL     1      42.703 -14.506   5.486  1.00  0.00     0.037 A 
BRANCH  10  13
HETATM   13  C   UNL     1      43.138 -17.234   7.906  1.00  0.00     0.316 C 
HETATM   14  O   UNL     1      43.562 -17.035   9.039  1.00  0.00    -0.257 OA
BRANCH  13  15
HETATM   15  O   UNL     1      42.942 -18.470   7.361  1.00  0.00    -0.321 OA
HETATM   16  C   UNL     1      44.061 -19.345   7.492  1.00  0.00     0.213 C 
ENDBRANCH  13  15
ENDBRANCH  10  13
ENDBRANCH   7   8
ENDBRANCH   4   7
ENDBRANCH   2   3
ENDBRANCH   1   2
BRANCH   1  17
HETATM   17  C   UNL     1      40.873 -14.714   0.130  1.00  0.00     0.177 C 
BRANCH  17  18
HETATM   18  C   UNL     1      41.124 -15.887   1.080  1.00  0.00     0.231 C 
HETATM   19  N   UNL     1      42.422 -16.363   1.047  1.00  0.00    -0.327 N 
HETATM   20  H   UNL     1      43.061 -15.826   0.468  1.00  0.00     0.169 HD
HETATM   21  O   UNL     1      40.193 -16.365   1.723  1.00  0.00    -0.272 OA
BRANCH  19  22
HETATM   22  C   UNL     1      42.987 -17.420   1.786  1.00  0.00     0.035 A 
HETATM   23  C   UNL     1      43.068 -18.737   1.330  1.00  0.00     0.042 A 
HETATM   24  C   UNL     1      43.621 -19.751   2.136  1.00  0.00    -0.024 A 
HETATM   25  C   UNL     1      44.113 -19.431   3.421  1.00  0.00    -0.026 A 
HETATM   26  C   UNL     1      43.691 -21.082   1.692  1.00  0.00     0.012 A 
HETATM   27  C   UNL     1      44.038 -18.105   3.867  1.00  0.00     0.014 A 
HETATM   28  C   UNL     1      44.660 -20.444   4.225  1.00  0.00     0.012 A 
HETATM   29  C   UNL     1      43.479 -17.111   3.058  1.00  0.00     0.030 A 
HETATM   30  C   UNL     1      44.719 -21.762   3.767  1.00  0.00     0.001 A 
HETATM   31  C   UNL     1      44.234 -22.079   2.502  1.00  0.00     0.001 A 
ENDBRANCH  19  22
ENDBRANCH  17  18
ENDBRANCH   1  17
TORSDOF 9
ENDMDL
MODEL 8
REMARK VINA RESULT:      -8.4      2.419      3.340
REMARK  9 active torsions:
REMARK  status: ('A' for Active; 'I' for Inactive)
REMARK    1  A    between atoms: O_2  and  C_3 
REMARK    2  A    between atoms: C_3  and  C_4 
REMARK    3  A    between atoms: C_6  and  C_7 
REMARK    4  A    between atoms: C_7  and  N_8 
REMARK       I    between atoms: N_8  and  C_9 
REMARK    5  A    between atoms: C_9  and  C_10 
REMARK    6  A    between atoms: C_10  and  S_11 
REMARK    7  A    between atoms: S_11  and  C_12 
REMARK    8  A    between atoms: C_12  and  C_13 
REMARK       I    between atoms: C_13  and  N_14 
REMARK    9  A    between atoms: N_14  and  C_15 
ROOT
HETATM    1  S   UNL     1      40.154 -13.535   4.274  1.00  0.00    -0.150 SA
ENDROOT
BRANCH   1   2
HETATM    2  C   UNL     1      39.497 -13.179   5.937  1.00  0.00     0.177 C 
BRANCH   2   3
HETATM    3  C   UNL     1      39.777 -11.772   6.443  1.00  0.00     0.227 C 
HETATM    4  N   UNL     1      40.349 -11.670   7.684  1.00  0.00    -0.354 N 
HETATM    5  H   UNL     1      40.636 -12.516   8.167  1.00  0.00     0.162 HD
HETATM    6  O   UNL     1      39.547 -10.791   5.739  1.00  0.00    -0.273 OA
BRANCH   4   7
HETATM    7  C   UNL     1      40.816 -10.408   8.208  1.00  0.00     0.187 C 
BRANCH   7   8
HETATM    8  C   UNL     1      40.305 -10.229   9.589  1.00  0.00     0.071 A 
HETATM    9  O   UNL     1      40.701 -11.141  10.527  1.00  0.00    -0.307 OA
HETATM   10  C   UNL     1      40.124 -10.784  11.718  1.00  0.00     0.150 A 
HETATM   11  C   UNL     1      39.371  -9.638  11.534  1.00  0.00     0.046 A 
HETATM   12  C   UNL     1      39.484  -9.285  10.169  1.00  0.00     0.037 A 
BRANCH  10  13
HETATM   13  C   UNL     1      40.355 -11.568  12.911  1.00  0.00     0.316 C 
HETATM   14  O   UNL     1      39.942 -12.708  13.094  1.00  0.00    -0.257 OA
BRANCH  13  15
HETATM   15  O   UNL     1      41.101 -10.862  13.810  1.00  0.00    -0.321 OA
HETATM   16  C   UNL     1      42.464 -10.694  13.426  1.00  0.00     0.213 C 
ENDBRANCH  13  15
ENDBRANCH  10  13
ENDBRANCH   7   8
ENDBRANCH   4   7
ENDBRANCH   2   3
ENDBRANCH   1   2
BRANCH   1  17
HETATM   17  C   UNL     1      41.820 -14.132   4.744  1.00  0.00     0.177 C 
BRANCH  17  18
HETATM   18  C   UNL     1      41.910 -15.659   4.736  1.00  0.00     0.231 C 
HETATM   19  N   UNL     1      43.128 -16.144   4.297  1.00  0.00    -0.327 N 
HETATM   20  H   UNL     1      43.834 -15.435   4.119  1.00  0.00     0.169 HD
HETATM   21  O   UNL     1      40.925 -16.333   5.027  1.00  0.00    -0.272 OA
BRANCH  19  22
HETATM   22  C   UNL     1      43.544 -17.483   4.167  1.00  0.00     0.035 A 
HETATM   23  C   UNL     1      43.333 -18.261   3.027  1.00  0.00     0.042 A 
HETATM   24  C   UNL     1      43.751 -19.605   2.977  1.00  0.00    -0.024 A 
HETATM   25  C   UNL     1      44.405 -20.174   4.093  1.00  0.00    -0.026 A 
HETATM   26  C   UNL     1      43.527 -20.399   1.841  1.00  0.00     0.012 A 
HETATM   27  C   UNL     1      44.623 -19.384   5.229  1.00  0.00     0.014 A 
HETATM   28  C   UNL     1      44.817 -21.515   4.043  1.00  0.00     0.012 A 
HETATM   29  C   UNL     1      44.195 -18.054   5.265  1.00  0.00     0.030 A 
HETATM   30  C   UNL     1      44.584 -22.290   2.905  1.00  0.00     0.001 A 
HETATM   31  C   UNL     1      43.940 -21.731   1.806  1.00  0.00     0.001 A 
ENDBRANCH  19  22
ENDBRANCH  17  18
ENDBRANCH   1  17
TORSDOF 9
ENDMDL
MODEL 9
REMARK VINA RESULT:      -8.4      1.880      2.570
REMARK  9 active torsions:
REMARK  status: ('A' for Active; 'I' for Inactive)
REMARK    1  A    between atoms: O_2  and  C_3 
REMARK    2  A    between atoms: C_3  and  C_4 
REMARK    3  A    between atoms: C_6  and  C_7 
REMARK    4  A    between atoms: C_7  and  N_8 
REMARK       I    between atoms: N_8  and  C_9 
REMARK    5  A    between atoms: C_9  and  C_10 
REMARK    6  A    between atoms: C_10  and  S_11 
REMARK    7  A    between atoms: S_11  and  C_12 
REMARK    8  A    between atoms: C_12  and  C_13 
REMARK       I    between atoms: C_13  and  N_14 
REMARK    9  A    between atoms: N_14  and  C_15 
ROOT
HETATM    1  S   UNL     1      40.792 -12.628   4.449  1.00  0.00    -0.150 SA
ENDROOT
BRANCH   1   2
HETATM    2  C   UNL     1      40.021 -12.921   6.074  1.00  0.00     0.177 C 
BRANCH   2   3
HETATM    3  C   UNL     1      40.112 -11.749   7.041  1.00  0.00     0.227 C 
HETATM    4  N   UNL     1      41.365 -11.410   7.477  1.00  0.00    -0.354 N 
HETATM    5  H   UNL     1      42.171 -11.885   7.081  1.00  0.00     0.162 HD
HETATM    6  O   UNL     1      39.107 -11.116   7.360  1.00  0.00    -0.273 OA
BRANCH   4   7
HETATM    7  C   UNL     1      41.606 -10.222   8.261  1.00  0.00     0.187 C 
BRANCH   7   8
HETATM    8  C   UNL     1      42.018 -10.610   9.632  1.00  0.00     0.071 A 
HETATM    9  O   UNL     1      41.030 -10.765  10.562  1.00  0.00    -0.307 OA
HETATM   10  C   UNL     1      41.628 -11.129  11.742  1.00  0.00     0.150 A 
HETATM   11  C   UNL     1      42.995 -11.212  11.552  1.00  0.00     0.046 A 
HETATM   12  C   UNL     1      43.246 -10.875  10.201  1.00  0.00     0.037 A 
BRANCH  10  13
HETATM   13  C   UNL     1      40.833 -11.364  12.926  1.00  0.00     0.316 C 
HETATM   14  O   UNL     1      39.975 -12.233  13.037  1.00  0.00    -0.257 OA
BRANCH  13  15
HETATM   15  O   UNL     1      41.173 -10.484  13.912  1.00  0.00    -0.321 OA
HETATM   16  C   UNL     1      40.734  -9.147  13.671  1.00  0.00     0.213 C 
ENDBRANCH  13  15
ENDBRANCH  10  13
ENDBRANCH   7   8
ENDBRANCH   4   7
ENDBRANCH   2   3
ENDBRANCH   1   2
BRANCH   1  17
HETATM   17  C   UNL     1      42.309 -13.632   4.663  1.00  0.00     0.177 C 
BRANCH  17  18
HETATM   18  C   UNL     1      42.108 -15.083   4.227  1.00  0.00     0.231 C 
HETATM   19  N   UNL     1      43.279 -15.727   3.873  1.00  0.00    -0.327 N 
HETATM   20  H   UNL     1      44.127 -15.190   4.028  1.00  0.00     0.169 HD
HETATM   21  O   UNL     1      40.973 -15.547   4.143  1.00  0.00    -0.272 OA
BRANCH  19  22
HETATM   22  C   UNL     1      43.452 -17.053   3.430  1.00  0.00     0.035 A 
HETATM   23  C   UNL     1      43.872 -18.103   4.250  1.00  0.00     0.042 A 
HETATM   24  C   UNL     1      44.051 -19.400   3.733  1.00  0.00    -0.024 A 
HETATM   25  C   UNL     1      43.792 -19.648   2.366  1.00  0.00    -0.026 A 
HETATM   26  C   UNL     1      44.489 -20.458   4.547  1.00  0.00     0.012 A 
HETATM   27  C   UNL     1      43.360 -18.593   1.553  1.00  0.00     0.014 A 
HETATM   28  C   UNL     1      43.976 -20.942   1.851  1.00  0.00     0.012 A 
HETATM   29  C   UNL     1      43.195 -17.309   2.080  1.00  0.00     0.030 A 
HETATM   30  C   UNL     1      44.414 -21.980   2.675  1.00  0.00     0.001 A 
HETATM   31  C   UNL     1      44.671 -21.737   4.021  1.00  0.00     0.001 A 
ENDBRANCH  19  22
ENDBRANCH  17  18
ENDBRANCH   1  17
TORSDOF 9
ENDMDL
MODEL 10
REMARK VINA RESULT:      -8.3      4.918      8.758
REMARK  9 active torsions:
REMARK  status: ('A' for Active; 'I' for Inactive)
REMARK    1  A    between atoms: O_2  and  C_3 
REMARK    2  A    between atoms: C_3  and  C_4 
REMARK    3  A    between atoms: C_6  and  C_7 
REMARK    4  A    between atoms: C_7  and  N_8 
REMARK       I    between atoms: N_8  and  C_9 
REMARK    5  A    between atoms: C_9  and  C_10 
REMARK    6  A    between atoms: C_10  and  S_11 
REMARK    7  A    between atoms: S_11  and  C_12 
REMARK    8  A    between atoms: C_12  and  C_13 
REMARK       I    between atoms: C_13  and  N_14 
REMARK    9  A    between atoms: N_14  and  C_15 
ROOT
HETATM    1  S   UNL     1      41.561 -12.622   3.361  1.00  0.00    -0.150 SA
ENDROOT
BRANCH   1   2
HETATM    2  C   UNL     1      39.979 -13.518   3.235  1.00  0.00     0.177 C 
BRANCH   2   3
HETATM    3  C   UNL     1      39.916 -14.542   2.111  1.00  0.00     0.227 C 
HETATM    4  N   UNL     1      40.995 -14.594   1.268  1.00  0.00    -0.354 N 
HETATM    5  H   UNL     1      41.810 -14.023   1.473  1.00  0.00     0.162 HD
HETATM    6  O   UNL     1      38.964 -15.313   2.013  1.00  0.00    -0.273 OA
BRANCH   4   7
HETATM    7  C   UNL     1      41.135 -15.625   0.268  1.00  0.00     0.187 C 
BRANCH   7   8
HETATM    8  C   UNL     1      41.279 -15.000  -1.069  1.00  0.00     0.071 A 
HETATM    9  O   UNL     1      41.900 -13.784  -1.128  1.00  0.00    -0.307 OA
HETATM   10  C   UNL     1      41.931 -13.400  -2.444  1.00  0.00     0.150 A 
HETATM   11  C   UNL     1      41.336 -14.380  -3.218  1.00  0.00     0.046 A 
HETATM   12  C   UNL     1      40.914 -15.403  -2.336  1.00  0.00     0.037 A 
BRANCH  10  13
HETATM   13  C   UNL     1      42.528 -12.141  -2.829  1.00  0.00     0.316 C 
HETATM   14  O   UNL     1      43.092 -11.366  -2.064  1.00  0.00    -0.257 OA
BRANCH  13  15
HETATM   15  O   UNL     1      42.381 -11.933  -4.170  1.00  0.00    -0.321 OA
HETATM   16  C   UNL     1      42.311 -10.556  -4.538  1.00  0.00     0.213 C 
ENDBRANCH  13  15
ENDBRANCH  10  13
ENDBRANCH   7   8
ENDBRANCH   4   7
ENDBRANCH   2   3
ENDBRANCH   1   2
BRANCH   1  17
HETATM   17  C   UNL     1      42.396 -13.682   4.600  1.00  0.00     0.177 C 
BRANCH  17  18
HETATM   18  C   UNL     1      43.040 -14.915   3.964  1.00  0.00     0.231 C 
HETATM   19  N   UNL     1      42.908 -16.065   4.720  1.00  0.00    -0.327 N 
HETATM   20  H   UNL     1      42.332 -15.969   5.552  1.00  0.00     0.169 HD
HETATM   21  O   UNL     1      43.672 -14.806   2.916  1.00  0.00    -0.272 OA
BRANCH  19  22
HETATM   22  C   UNL     1      43.376 -17.362   4.433  1.00  0.00     0.035 A 
HETATM   23  C   UNL     1      43.045 -18.076   3.280  1.00  0.00     0.042 A 
HETATM   24  C   UNL     1      43.527 -19.382   3.071  1.00  0.00    -0.024 A 
HETATM   25  C   UNL     1      44.370 -19.977   4.037  1.00  0.00    -0.026 A 
HETATM   26  C   UNL     1      43.185 -20.114   1.922  1.00  0.00     0.012 A 
HETATM   27  C   UNL     1      44.707 -19.250   5.186  1.00  0.00     0.014 A 
HETATM   28  C   UNL     1      44.847 -21.282   3.829  1.00  0.00     0.012 A 
HETATM   29  C   UNL     1      44.213 -17.958   5.382  1.00  0.00     0.030 A 
HETATM   30  C   UNL     1      44.493 -21.994   2.681  1.00  0.00     0.001 A 
HETATM   31  C   UNL     1      43.663 -21.410   1.730  1.00  0.00     0.001 A 
ENDBRANCH  19  22
ENDBRANCH  17  18
ENDBRANCH   1  17
TORSDOF 9
ENDMDL
