MODEL 1
REMARK VINA RESULT:     -10.2      0.000      0.000
REMARK  8 active torsions:
REMARK  status: ('A' for Active; 'I' for Inactive)
REMARK    1  A    between atoms: C_2  and  C_3 
REMARK    2  A    between atoms: C_6  and  N_7 
REMARK       I    between atoms: N_7  and  C_8 
REMARK    3  A    between atoms: C_8  and  C_9 
REMARK    4  A    between atoms: C_9  and  S_10 
REMARK    5  A    between atoms: S_10  and  C_11 
REMARK    6  A    between atoms: C_23  and  C_24 
REMARK    7  A    between atoms: C_24  and  C_25 
REMARK       I    between atoms: C_25  and  N_26 
REMARK    8  A    between atoms: N_26  and  C_27 
ROOT
HETATM    1  C   UNL     1      43.554 -16.514   5.762  1.00  0.00     0.178 A 
HETATM    2  N   UNL     1      42.849 -15.841   4.775  1.00  0.00    -0.241 N 
HETATM    3  C   UNL     1      42.744 -16.344   3.521  1.00  0.00     0.147 A 
HETATM    4  N   UNL     1      42.167 -15.606   2.623  1.00  0.00    -0.256 NA
HETATM    5  C   UNL     1      43.301 -17.673   3.268  1.00  0.00     0.039 A 
HETATM    6  C   UNL     1      43.947 -18.298   4.339  1.00  0.00     0.073 A 
HETATM    7  C   UNL     1      43.188 -18.289   2.018  1.00  0.00     0.018 A 
HETATM    8  C   UNL     1      43.740 -19.555   1.831  1.00  0.00     0.001 A 
HETATM    9  C   UNL     1      44.402 -20.188   2.884  1.00  0.00     0.002 A 
HETATM   10  C   UNL     1      44.506 -19.560   4.130  1.00  0.00     0.032 A 
HETATM   11  C   UNL     1      42.187 -14.635   4.794  1.00  0.00     0.257 A 
HETATM   12  O   UNL     1      41.938 -13.909   5.742  1.00  0.00    -0.270 OA
HETATM   13  C   UNL     1      41.751 -14.378   3.363  1.00  0.00     0.211 A 
HETATM   14  N   UNL     1      44.077 -17.689   5.601  1.00  0.00    -0.223 NA
ENDROOT
BRANCH   1  15
HETATM   15  S   UNL     1      43.842 -15.747   7.302  1.00  0.00    -0.082 SA
BRANCH  15  16
HETATM   16  C   UNL     1      45.035 -14.485   6.797  1.00  0.00     0.185 C 
BRANCH  16  17
HETATM   17  C   UNL     1      45.212 -13.343   7.792  1.00  0.00     0.231 C 
HETATM   18  N   UNL     1      44.125 -13.093   8.606  1.00  0.00    -0.327 N 
HETATM   19  H   UNL     1      43.375 -13.779   8.596  1.00  0.00     0.169 HD
HETATM   20  O   UNL     1      46.239 -12.668   7.745  1.00  0.00    -0.272 OA
BRANCH  18  21
HETATM   21  C   UNL     1      43.918 -11.985   9.453  1.00  0.00     0.034 A 
HETATM   22  C   UNL     1      43.042 -10.938   9.178  1.00  0.00     0.030 A 
HETATM   23  C   UNL     1      42.844  -9.910  10.111  1.00  0.00     0.010 A 
HETATM   24  C   UNL     1      43.504  -9.915  11.345  1.00  0.00    -0.055 A 
HETATM   25  C   UNL     1      44.407 -10.958  11.601  1.00  0.00     0.010 A 
HETATM   26  C   UNL     1      44.615 -11.973  10.664  1.00  0.00     0.030 A 
BRANCH  24  27
HETATM   27  C   UNL     1      43.288  -8.851  12.411  1.00  0.00     0.010 C 
HETATM   28  C   UNL     1      43.240  -9.379  13.849  1.00  0.00     0.015 C 
HETATM   29  C   UNL     1      42.026  -8.036  12.114  1.00  0.00     0.015 C 
ENDBRANCH  24  27
ENDBRANCH  18  21
ENDBRANCH  16  17
ENDBRANCH  15  16
ENDBRANCH   1  15
BRANCH  13  30
HETATM   30  C   UNL     1      42.479 -13.160   2.836  1.00  0.00     0.140 C 
BRANCH  30  31
HETATM   31  C   UNL     1      41.874 -12.676   1.543  1.00  0.00     0.220 C 
HETATM   32  N   UNL     1      40.578 -13.098   1.347  1.00  0.00    -0.356 N 
HETATM   33  H   UNL     1      40.150 -13.673   2.059  1.00  0.00     0.162 HD
HETATM   34  O   UNL     1      42.505 -11.997   0.741  1.00  0.00    -0.274 OA
BRANCH  32  35
HETATM   35  C   UNL     1      39.918 -12.996   0.052  1.00  0.00     0.084 C 
HETATM   36  C   UNL     1      38.904 -14.136  -0.129  1.00  0.00     0.025 C 
HETATM   37  C   UNL     1      37.703 -13.993   0.805  1.00  0.00     0.002 C 
HETATM   38  C   UNL     1      37.023 -12.638   0.638  1.00  0.00     0.000 C 
HETATM   39  C   UNL     1      38.003 -11.480   0.800  1.00  0.00     0.002 C 
HETATM   40  C   UNL     1      39.230 -11.633  -0.102  1.00  0.00     0.025 C 
ENDBRANCH  32  35
ENDBRANCH  30  31
ENDBRANCH  13  30
TORSDOF 8
ENDMDL
MODEL 2
REMARK VINA RESULT:     -10.1      1.964      2.731
REMARK  8 active torsions:
REMARK  status: ('A' for Active; 'I' for Inactive)
REMARK    1  A    between atoms: C_2  and  C_3 
REMARK    2  A    between atoms: C_6  and  N_7 
REMARK       I    between atoms: N_7  and  C_8 
REMARK    3  A    between atoms: C_8  and  C_9 
REMARK    4  A    between atoms: C_9  and  S_10 
REMARK    5  A    between atoms: S_10  and  C_11 
REMARK    6  A    between atoms: C_23  and  C_24 
REMARK    7  A    between atoms: C_24  and  C_25 
REMARK       I    between atoms: C_25  and  N_26 
REMARK    8  A    between atoms: N_26  and  C_27 
ROOT
HETATM    1  C   UNL     1      43.327 -17.487   5.792  1.00  0.00     0.178 A 
HETATM    2  N   UNL     1      42.423 -17.089   4.819  1.00  0.00    -0.241 N 
HETATM    3  C   UNL     1      42.368 -17.710   3.615  1.00  0.00     0.147 A 
HETATM    4  N   UNL     1      41.577 -17.211   2.716  1.00  0.00    -0.256 NA
HETATM    5  C   UNL     1      43.211 -18.888   3.415  1.00  0.00     0.039 A 
HETATM    6  C   UNL     1      44.052 -19.248   4.473  1.00  0.00     0.073 A 
HETATM    7  C   UNL     1      43.176 -19.621   2.225  1.00  0.00     0.018 A 
HETATM    8  C   UNL     1      44.004 -20.733   2.085  1.00  0.00     0.001 A 
HETATM    9  C   UNL     1      44.860 -21.098   3.124  1.00  0.00     0.002 A 
HETATM   10  C   UNL     1      44.885 -20.356   4.311  1.00  0.00     0.032 A 
HETATM   11  C   UNL     1      41.492 -16.075   4.803  1.00  0.00     0.257 A 
HETATM   12  O   UNL     1      41.133 -15.348   5.715  1.00  0.00    -0.270 OA
HETATM   13  C   UNL     1      40.923 -16.055   3.397  1.00  0.00     0.211 A 
HETATM   14  N   UNL     1      44.106 -18.516   5.674  1.00  0.00    -0.223 NA
ENDROOT
BRANCH   1  15
HETATM   15  S   UNL     1      43.514 -16.542   7.246  1.00  0.00    -0.082 SA
BRANCH  15  16
HETATM   16  C   UNL     1      44.537 -15.195   6.606  1.00  0.00     0.185 C 
BRANCH  16  17
HETATM   17  C   UNL     1      44.139 -13.807   7.095  1.00  0.00     0.231 C 
HETATM   18  N   UNL     1      44.678 -13.429   8.309  1.00  0.00    -0.327 N 
HETATM   19  H   UNL     1      45.412 -14.020   8.690  1.00  0.00     0.169 HD
HETATM   20  O   UNL     1      43.309 -13.165   6.452  1.00  0.00    -0.272 OA
BRANCH  18  21
HETATM   21  C   UNL     1      44.327 -12.318   9.101  1.00  0.00     0.034 A 
HETATM   22  C   UNL     1      43.329 -11.403   8.775  1.00  0.00     0.030 A 
HETATM   23  C   UNL     1      42.996 -10.365   9.657  1.00  0.00     0.010 A 
HETATM   24  C   UNL     1      43.643 -10.227  10.890  1.00  0.00    -0.055 A 
HETATM   25  C   UNL     1      44.668 -11.136  11.197  1.00  0.00     0.010 A 
HETATM   26  C   UNL     1      45.008 -12.160  10.311  1.00  0.00     0.030 A 
BRANCH  24  27
HETATM   27  C   UNL     1      43.288  -9.149  11.903  1.00  0.00     0.010 C 
HETATM   28  C   UNL     1      43.351  -9.596  13.368  1.00  0.00     0.015 C 
HETATM   29  C   UNL     1      41.910  -8.555  11.599  1.00  0.00     0.015 C 
ENDBRANCH  24  27
ENDBRANCH  18  21
ENDBRANCH  16  17
ENDBRANCH  15  16
ENDBRANCH   1  15
BRANCH  13  30
HETATM   30  C   UNL     1      41.304 -14.750   2.729  1.00  0.00     0.140 C 
BRANCH  30  31
HETATM   31  C   UNL     1      40.208 -13.725   2.864  1.00  0.00     0.220 C 
HETATM   32  N   UNL     1      40.495 -12.723   3.763  1.00  0.00    -0.356 N 
HETATM   33  H   UNL     1      41.386 -12.749   4.240  1.00  0.00     0.162 HD
HETATM   34  O   UNL     1      39.154 -13.813   2.244  1.00  0.00    -0.274 OA
BRANCH  32  35
HETATM   35  C   UNL     1      39.472 -11.810   4.258  1.00  0.00     0.084 C 
HETATM   36  C   UNL     1      38.827 -12.365   5.537  1.00  0.00     0.025 C 
HETATM   37  C   UNL     1      39.797 -12.362   6.719  1.00  0.00     0.002 C 
HETATM   38  C   UNL     1      40.371 -10.971   6.968  1.00  0.00     0.000 C 
HETATM   39  C   UNL     1      41.010 -10.382   5.713  1.00  0.00     0.002 C 
HETATM   40  C   UNL     1      40.062 -10.417   4.512  1.00  0.00     0.025 C 
ENDBRANCH  32  35
ENDBRANCH  30  31
ENDBRANCH  13  30
TORSDOF 8
ENDMDL
MODEL 3
REMARK VINA RESULT:     -10.1      2.886     10.194
REMARK  8 active torsions:
REMARK  status: ('A' for Active; 'I' for Inactive)
REMARK    1  A    between atoms: C_2  and  C_3 
REMARK    2  A    between atoms: C_6  and  N_7 
REMARK       I    between atoms: N_7  and  C_8 
REMARK    3  A    between atoms: C_8  and  C_9 
REMARK    4  A    between atoms: C_9  and  S_10 
REMARK    5  A    between atoms: S_10  and  C_11 
REMARK    6  A    between atoms: C_23  and  C_24 
REMARK    7  A    between atoms: C_24  and  C_25 
REMARK       I    between atoms: C_25  and  N_26 
REMARK    8  A    between atoms: N_26  and  C_27 
ROOT
HETATM    1  C   UNL     1      41.996 -12.190   6.772  1.00  0.00     0.178 A 
HETATM    2  N   UNL     1      41.431 -11.171   7.524  1.00  0.00    -0.241 N 
HETATM    3  C   UNL     1      42.068 -10.659   8.606  1.00  0.00     0.147 A 
HETATM    4  N   UNL     1      41.430  -9.788   9.324  1.00  0.00    -0.256 NA
HETATM    5  C   UNL     1      43.421 -11.136   8.890  1.00  0.00     0.039 A 
HETATM    6  C   UNL     1      43.930 -12.128   8.046  1.00  0.00     0.073 A 
HETATM    7  C   UNL     1      44.171 -10.623   9.953  1.00  0.00     0.018 A 
HETATM    8  C   UNL     1      45.454 -11.116  10.182  1.00  0.00     0.001 A 
HETATM    9  C   UNL     1      45.972 -12.116   9.358  1.00  0.00     0.002 A 
HETATM   10  C   UNL     1      45.211 -12.621   8.298  1.00  0.00     0.032 A 
HETATM   11  C   UNL     1      40.225 -10.518   7.409  1.00  0.00     0.257 A 
HETATM   12  O   UNL     1      39.397 -10.586   6.515  1.00  0.00    -0.270 OA
HETATM   13  C   UNL     1      40.124  -9.613   8.622  1.00  0.00     0.211 A 
HETATM   14  N   UNL     1      43.186 -12.662   6.977  1.00  0.00    -0.223 NA
ENDROOT
BRANCH   1  15
HETATM   15  S   UNL     1      41.066 -12.963   5.516  1.00  0.00    -0.082 SA
BRANCH  15  16
HETATM   16  C   UNL     1      42.115 -12.597   4.089  1.00  0.00     0.185 C 
BRANCH  16  17
HETATM   17  C   UNL     1      42.956 -13.771   3.600  1.00  0.00     0.231 C 
HETATM   18  N   UNL     1      42.256 -14.932   3.336  1.00  0.00    -0.327 N 
HETATM   19  H   UNL     1      41.241 -14.865   3.326  1.00  0.00     0.169 HD
HETATM   20  O   UNL     1      44.179 -13.653   3.565  1.00  0.00    -0.272 OA
BRANCH  18  21
HETATM   21  C   UNL     1      42.777 -16.217   3.085  1.00  0.00     0.034 A 
HETATM   22  C   UNL     1      43.287 -16.633   1.858  1.00  0.00     0.030 A 
HETATM   23  C   UNL     1      43.852 -17.909   1.716  1.00  0.00     0.010 A 
HETATM   24  C   UNL     1      43.933 -18.790   2.800  1.00  0.00    -0.055 A 
HETATM   25  C   UNL     1      43.390 -18.374   4.024  1.00  0.00     0.010 A 
HETATM   26  C   UNL     1      42.813 -17.108   4.161  1.00  0.00     0.030 A 
BRANCH  24  27
HETATM   27  C   UNL     1      44.579 -20.165   2.711  1.00  0.00     0.010 C 
HETATM   28  C   UNL     1      43.809 -21.186   1.866  1.00  0.00     0.015 C 
HETATM   29  C   UNL     1      44.833 -20.733   4.110  1.00  0.00     0.015 C 
ENDBRANCH  24  27
ENDBRANCH  18  21
ENDBRANCH  16  17
ENDBRANCH  15  16
ENDBRANCH   1  15
BRANCH  13  30
HETATM   30  C   UNL     1      38.977 -10.080   9.494  1.00  0.00     0.140 C 
BRANCH  30  31
HETATM   31  C   UNL     1      39.055  -9.475  10.872  1.00  0.00     0.220 C 
HETATM   32  N   UNL     1      40.216  -9.782  11.546  1.00  0.00    -0.356 N 
HETATM   33  H   UNL     1      40.900 -10.362  11.080  1.00  0.00     0.162 HD
HETATM   34  O   UNL     1      38.144  -8.802  11.341  1.00  0.00    -0.274 OA
BRANCH  32  35
HETATM   35  C   UNL     1      40.364  -9.552  12.978  1.00  0.00     0.084 C 
HETATM   36  C   UNL     1      41.094 -10.730  13.641  1.00  0.00     0.025 C 
HETATM   37  C   UNL     1      42.562 -10.807  13.220  1.00  0.00     0.002 C 
HETATM   38  C   UNL     1      43.293  -9.498  13.496  1.00  0.00     0.000 C 
HETATM   39  C   UNL     1      42.589  -8.303  12.862  1.00  0.00     0.002 C 
HETATM   40  C   UNL     1      41.108  -8.236  13.244  1.00  0.00     0.025 C 
ENDBRANCH  32  35
ENDBRANCH  30  31
ENDBRANCH  13  30
TORSDOF 8
ENDMDL
MODEL 4
REMARK VINA RESULT:      -9.9      1.671      2.277
REMARK  8 active torsions:
REMARK  status: ('A' for Active; 'I' for Inactive)
REMARK    1  A    between atoms: C_2  and  C_3 
REMARK    2  A    between atoms: C_6  and  N_7 
REMARK       I    between atoms: N_7  and  C_8 
REMARK    3  A    between atoms: C_8  and  C_9 
REMARK    4  A    between atoms: C_9  and  S_10 
REMARK    5  A    between atoms: S_10  and  C_11 
REMARK    6  A    between atoms: C_23  and  C_24 
REMARK    7  A    between atoms: C_24  and  C_25 
REMARK       I    between atoms: C_25  and  N_26 
REMARK    8  A    between atoms: N_26  and  C_27 
ROOT
HETATM    1  C   UNL     1      43.067 -17.362   5.545  1.00  0.00     0.178 A 
HETATM    2  N   UNL     1      42.207 -16.977   4.528  1.00  0.00    -0.241 N 
HETATM    3  C   UNL     1      42.202 -17.615   3.332  1.00  0.00     0.147 A 
HETATM    4  N   UNL     1      41.452 -17.127   2.393  1.00  0.00    -0.256 NA
HETATM    5  C   UNL     1      43.052 -18.796   3.185  1.00  0.00     0.039 A 
HETATM    6  C   UNL     1      43.845 -19.141   4.283  1.00  0.00     0.073 A 
HETATM    7  C   UNL     1      43.067 -19.545   2.004  1.00  0.00     0.018 A 
HETATM    8  C   UNL     1      43.899 -20.660   1.916  1.00  0.00     0.001 A 
HETATM    9  C   UNL     1      44.709 -21.011   2.997  1.00  0.00     0.002 A 
HETATM   10  C   UNL     1      44.683 -20.253   4.173  1.00  0.00     0.032 A 
HETATM   11  C   UNL     1      41.278 -15.963   4.459  1.00  0.00     0.257 A 
HETATM   12  O   UNL     1      40.882 -15.222   5.344  1.00  0.00    -0.270 OA
HETATM   13  C   UNL     1      40.771 -15.961   3.029  1.00  0.00     0.211 A 
HETATM   14  N   UNL     1      43.849 -18.393   5.475  1.00  0.00    -0.223 NA
ENDROOT
BRANCH   1  15
HETATM   15  S   UNL     1      43.192 -16.397   6.992  1.00  0.00    -0.082 SA
BRANCH  15  16
HETATM   16  C   UNL     1      44.259 -15.070   6.384  1.00  0.00     0.185 C 
BRANCH  16  17
HETATM   17  C   UNL     1      43.927 -13.686   6.929  1.00  0.00     0.231 C 
HETATM   18  N   UNL     1      44.506 -13.372   8.143  1.00  0.00    -0.327 N 
HETATM   19  H   UNL     1      45.225 -14.004   8.486  1.00  0.00     0.169 HD
HETATM   20  O   UNL     1      43.109 -12.990   6.329  1.00  0.00    -0.272 OA
BRANCH  18  21
HETATM   21  C   UNL     1      44.216 -12.276   8.981  1.00  0.00     0.034 A 
HETATM   22  C   UNL     1      43.175 -11.377   8.768  1.00  0.00     0.030 A 
HETATM   23  C   UNL     1      42.914 -10.356   9.693  1.00  0.00     0.010 A 
HETATM   24  C   UNL     1      43.678 -10.220  10.857  1.00  0.00    -0.055 A 
HETATM   25  C   UNL     1      44.744 -11.112  11.048  1.00  0.00     0.010 A 
HETATM   26  C   UNL     1      45.012 -12.120  10.119  1.00  0.00     0.030 A 
BRANCH  24  27
HETATM   27  C   UNL     1      43.407  -9.161  11.915  1.00  0.00     0.010 C 
HETATM   28  C   UNL     1      43.287  -9.696  13.346  1.00  0.00     0.015 C 
HETATM   29  C   UNL     1      42.160  -8.348  11.558  1.00  0.00     0.015 C 
ENDBRANCH  24  27
ENDBRANCH  18  21
ENDBRANCH  16  17
ENDBRANCH  15  16
ENDBRANCH   1  15
BRANCH  13  30
HETATM   30  C   UNL     1      41.182 -14.667   2.359  1.00  0.00     0.140 C 
BRANCH  30  31
HETATM   31  C   UNL     1      40.154 -14.221   1.351  1.00  0.00     0.220 C 
HETATM   32  N   UNL     1      40.525 -14.452   0.045  1.00  0.00    -0.356 N 
HETATM   33  H   UNL     1      41.420 -14.888  -0.128  1.00  0.00     0.162 HD
HETATM   34  O   UNL     1      39.107 -13.678   1.684  1.00  0.00    -0.274 OA
BRANCH  32  35
HETATM   35  C   UNL     1      39.824 -13.840  -1.078  1.00  0.00     0.084 C 
HETATM   36  C   UNL     1      40.389 -12.440  -1.368  1.00  0.00     0.025 C 
HETATM   37  C   UNL     1      41.811 -12.498  -1.927  1.00  0.00     0.002 C 
HETATM   38  C   UNL     1      41.888 -13.376  -3.171  1.00  0.00     0.000 C 
HETATM   39  C   UNL     1      41.324 -14.772  -2.923  1.00  0.00     0.002 C 
HETATM   40  C   UNL     1      39.916 -14.728  -2.326  1.00  0.00     0.025 C 
ENDBRANCH  32  35
ENDBRANCH  30  31
ENDBRANCH  13  30
TORSDOF 8
ENDMDL
MODEL 5
REMARK VINA RESULT:      -9.4      3.817      4.984
REMARK  8 active torsions:
REMARK  status: ('A' for Active; 'I' for Inactive)
REMARK    1  A    between atoms: C_2  and  C_3 
REMARK    2  A    between atoms: C_6  and  N_7 
REMARK       I    between atoms: N_7  and  C_8 
REMARK    3  A    between atoms: C_8  and  C_9 
REMARK    4  A    between atoms: C_9  and  S_10 
REMARK    5  A    between atoms: S_10  and  C_11 
REMARK    6  A    between atoms: C_23  and  C_24 
REMARK    7  A    between atoms: C_24  and  C_25 
REMARK       I    between atoms: C_25  and  N_26 
REMARK    8  A    between atoms: N_26  and  C_27 
ROOT
HETATM    1  C   UNL     1      42.532 -17.240   4.811  1.00  0.00     0.178 A 
HETATM    2  N   UNL     1      42.025 -17.143   3.524  1.00  0.00    -0.241 N 
HETATM    3  C   UNL     1      42.398 -18.014   2.555  1.00  0.00     0.147 A 
HETATM    4  N   UNL     1      41.970 -17.794   1.350  1.00  0.00    -0.256 NA
HETATM    5  C   UNL     1      43.264 -19.130   2.935  1.00  0.00     0.039 A 
HETATM    6  C   UNL     1      43.682 -19.176   4.269  1.00  0.00     0.073 A 
HETATM    7  C   UNL     1      43.651 -20.105   2.011  1.00  0.00     0.018 A 
HETATM    8  C   UNL     1      44.481 -21.144   2.426  1.00  0.00     0.001 A 
HETATM    9  C   UNL     1      44.920 -21.199   3.749  1.00  0.00     0.002 A 
HETATM   10  C   UNL     1      44.524 -20.217   4.664  1.00  0.00     0.032 A 
HETATM   11  C   UNL     1      41.153 -16.242   2.956  1.00  0.00     0.257 A 
HETATM   12  O   UNL     1      40.494 -15.367   3.494  1.00  0.00    -0.270 OA
HETATM   13  C   UNL     1      41.113 -16.578   1.477  1.00  0.00     0.211 A 
HETATM   14  N   UNL     1      43.308 -18.198   5.210  1.00  0.00    -0.223 NA
ENDROOT
BRANCH   1  15
HETATM   15  S   UNL     1      42.192 -15.988   5.977  1.00  0.00    -0.082 SA
BRANCH  15  16
HETATM   16  C   UNL     1      43.642 -14.936   5.728  1.00  0.00     0.185 C 
BRANCH  16  17
HETATM   17  C   UNL     1      43.426 -13.773   4.767  1.00  0.00     0.231 C 
HETATM   18  N   UNL     1      42.260 -13.057   4.954  1.00  0.00    -0.327 N 
HETATM   19  H   UNL     1      41.734 -13.250   5.803  1.00  0.00     0.169 HD
HETATM   20  O   UNL     1      44.225 -13.606   3.846  1.00  0.00    -0.272 OA
BRANCH  18  21
HETATM   21  C   UNL     1      41.695 -12.087   4.102  1.00  0.00     0.034 A 
HETATM   22  C   UNL     1      41.460 -12.275   2.743  1.00  0.00     0.030 A 
HETATM   23  C   UNL     1      40.828 -11.280   1.984  1.00  0.00     0.010 A 
HETATM   24  C   UNL     1      40.403 -10.082   2.570  1.00  0.00    -0.055 A 
HETATM   25  C   UNL     1      40.671  -9.889   3.933  1.00  0.00     0.010 A 
HETATM   26  C   UNL     1      41.315 -10.875   4.685  1.00  0.00     0.030 A 
BRANCH  24  27
HETATM   27  C   UNL     1      39.670  -8.992   1.803  1.00  0.00     0.010 C 
HETATM   28  C   UNL     1      40.474  -8.350   0.667  1.00  0.00     0.015 C 
HETATM   29  C   UNL     1      39.162  -7.908   2.757  1.00  0.00     0.015 C 
ENDBRANCH  24  27
ENDBRANCH  18  21
ENDBRANCH  16  17
ENDBRANCH  15  16
ENDBRANCH   1  15
BRANCH  13  30
HETATM   30  C   UNL     1      41.698 -15.422   0.692  1.00  0.00     0.140 C 
BRANCH  30  31
HETATM   31  C   UNL     1      40.821 -15.056  -0.478  1.00  0.00     0.220 C 
HETATM   32  N   UNL     1      39.873 -14.103  -0.183  1.00  0.00    -0.356 N 
HETATM   33  H   UNL     1      39.843 -13.735   0.758  1.00  0.00     0.162 HD
HETATM   34  O   UNL     1      40.940 -15.593  -1.574  1.00  0.00    -0.274 OA
BRANCH  32  35
HETATM   35  C   UNL     1      38.751 -13.826  -1.071  1.00  0.00     0.084 C 
HETATM   36  C   UNL     1      37.461 -13.620  -0.262  1.00  0.00     0.025 C 
HETATM   37  C   UNL     1      37.494 -12.327   0.554  1.00  0.00     0.002 C 
HETATM   38  C   UNL     1      37.774 -11.115  -0.328  1.00  0.00     0.000 C 
HETATM   39  C   UNL     1      39.044 -11.290  -1.156  1.00  0.00     0.002 C 
HETATM   40  C   UNL     1      39.040 -12.600  -1.947  1.00  0.00     0.025 C 
ENDBRANCH  32  35
ENDBRANCH  30  31
ENDBRANCH  13  30
TORSDOF 8
ENDMDL
MODEL 6
REMARK VINA RESULT:      -9.4      2.341      6.421
REMARK  8 active torsions:
REMARK  status: ('A' for Active; 'I' for Inactive)
REMARK    1  A    between atoms: C_2  and  C_3 
REMARK    2  A    between atoms: C_6  and  N_7 
REMARK       I    between atoms: N_7  and  C_8 
REMARK    3  A    between atoms: C_8  and  C_9 
REMARK    4  A    between atoms: C_9  and  S_10 
REMARK    5  A    between atoms: S_10  and  C_11 
REMARK    6  A    between atoms: C_23  and  C_24 
REMARK    7  A    between atoms: C_24  and  C_25 
REMARK       I    between atoms: C_25  and  N_26 
REMARK    8  A    between atoms: N_26  and  C_27 
ROOT
HETATM    1  C   UNL     1      40.873 -13.135   4.060  1.00  0.00     0.178 A 
HETATM    2  N   UNL     1      41.218 -14.266   3.334  1.00  0.00    -0.241 N 
HETATM    3  C   UNL     1      40.501 -14.651   2.251  1.00  0.00     0.147 A 
HETATM    4  N   UNL     1      40.814 -15.779   1.691  1.00  0.00    -0.256 NA
HETATM    5  C   UNL     1      39.419 -13.775   1.800  1.00  0.00     0.039 A 
HETATM    6  C   UNL     1      39.179 -12.629   2.563  1.00  0.00     0.073 A 
HETATM    7  C   UNL     1      38.665 -14.069   0.660  1.00  0.00     0.018 A 
HETATM    8  C   UNL     1      37.643 -13.201   0.278  1.00  0.00     0.001 A 
HETATM    9  C   UNL     1      37.380 -12.060   1.036  1.00  0.00     0.002 A 
HETATM   10  C   UNL     1      38.143 -11.778   2.174  1.00  0.00     0.032 A 
HETATM   11  C   UNL     1      42.222 -15.190   3.515  1.00  0.00     0.257 A 
HETATM   12  O   UNL     1      43.158 -15.165   4.297  1.00  0.00    -0.270 OA
HETATM   13  C   UNL     1      41.979 -16.275   2.482  1.00  0.00     0.211 A 
HETATM   14  N   UNL     1      39.923 -12.322   3.719  1.00  0.00    -0.223 NA
ENDROOT
BRANCH   1  15
HETATM   15  S   UNL     1      41.688 -12.782   5.560  1.00  0.00    -0.082 SA
BRANCH  15  16
HETATM   16  C   UNL     1      41.191 -11.057   5.780  1.00  0.00     0.185 C 
BRANCH  16  17
HETATM   17  C   UNL     1      41.790 -10.373   7.003  1.00  0.00     0.231 C 
HETATM   18  N   UNL     1      42.041 -11.199   8.081  1.00  0.00    -0.327 N 
HETATM   19  H   UNL     1      41.968 -12.201   7.919  1.00  0.00     0.169 HD
HETATM   20  O   UNL     1      41.917  -9.149   6.999  1.00  0.00    -0.272 OA
BRANCH  18  21
HETATM   21  C   UNL     1      42.381 -10.825   9.397  1.00  0.00     0.034 A 
HETATM   22  C   UNL     1      43.679 -10.819   9.902  1.00  0.00     0.030 A 
HETATM   23  C   UNL     1      43.936 -10.363  11.203  1.00  0.00     0.010 A 
HETATM   24  C   UNL     1      42.904  -9.890  12.021  1.00  0.00    -0.055 A 
HETATM   25  C   UNL     1      41.597  -9.927  11.514  1.00  0.00     0.010 A 
HETATM   26  C   UNL     1      41.340 -10.395  10.223  1.00  0.00     0.030 A 
BRANCH  24  27
HETATM   27  C   UNL     1      43.135  -9.339  13.421  1.00  0.00     0.010 C 
HETATM   28  C   UNL     1      42.531 -10.179  14.551  1.00  0.00     0.015 C 
HETATM   29  C   UNL     1      42.637  -7.895  13.522  1.00  0.00     0.015 C 
ENDBRANCH  24  27
ENDBRANCH  18  21
ENDBRANCH  16  17
ENDBRANCH  15  16
ENDBRANCH   1  15
BRANCH  13  30
HETATM   30  C   UNL     1      41.636 -17.567   3.194  1.00  0.00     0.140 C 
BRANCH  30  31
HETATM   31  C   UNL     1      42.875 -18.369   3.499  1.00  0.00     0.220 C 
HETATM   32  N   UNL     1      43.200 -18.397   4.836  1.00  0.00    -0.356 N 
HETATM   33  H   UNL     1      42.604 -17.900   5.484  1.00  0.00     0.162 HD
HETATM   34  O   UNL     1      43.533 -18.913   2.619  1.00  0.00    -0.274 OA
BRANCH  32  35
HETATM   35  C   UNL     1      44.500 -18.859   5.307  1.00  0.00     0.084 C 
HETATM   36  C   UNL     1      44.964 -18.026   6.513  1.00  0.00     0.025 C 
HETATM   37  C   UNL     1      44.111 -18.288   7.755  1.00  0.00     0.002 C 
HETATM   38  C   UNL     1      44.077 -19.771   8.108  1.00  0.00     0.000 C 
HETATM   39  C   UNL     1      43.631 -20.631   6.928  1.00  0.00     0.002 C 
HETATM   40  C   UNL     1      44.452 -20.350   5.667  1.00  0.00     0.025 C 
ENDBRANCH  32  35
ENDBRANCH  30  31
ENDBRANCH  13  30
TORSDOF 8
ENDMDL
MODEL 7
REMARK VINA RESULT:      -9.3      4.384      7.829
REMARK  8 active torsions:
REMARK  status: ('A' for Active; 'I' for Inactive)
REMARK    1  A    between atoms: C_2  and  C_3 
REMARK    2  A    between atoms: C_6  and  N_7 
REMARK       I    between atoms: N_7  and  C_8 
REMARK    3  A    between atoms: C_8  and  C_9 
REMARK    4  A    between atoms: C_9  and  S_10 
REMARK    5  A    between atoms: S_10  and  C_11 
REMARK    6  A    between atoms: C_23  and  C_24 
REMARK    7  A    between atoms: C_24  and  C_25 
REMARK       I    between atoms: C_25  and  N_26 
REMARK    8  A    between atoms: N_26  and  C_27 
ROOT
HETATM    1  C   UNL     1      40.093 -14.262   3.747  1.00  0.00     0.178 A 
HETATM    2  N   UNL     1      39.848 -13.021   3.178  1.00  0.00    -0.241 N 
HETATM    3  C   UNL     1      40.085 -12.792   1.863  1.00  0.00     0.147 A 
HETATM    4  N   UNL     1      39.940 -11.579   1.428  1.00  0.00    -0.256 NA
HETATM    5  C   UNL     1      40.500 -13.925   1.036  1.00  0.00     0.039 A 
HETATM    6  C   UNL     1      40.670 -15.150   1.687  1.00  0.00     0.073 A 
HETATM    7  C   UNL     1      40.712 -13.789  -0.340  1.00  0.00     0.018 A 
HETATM    8  C   UNL     1      41.110 -14.901  -1.079  1.00  0.00     0.001 A 
HETATM    9  C   UNL     1      41.299 -16.128  -0.445  1.00  0.00     0.002 A 
HETATM   10  C   UNL     1      41.083 -16.250   0.933  1.00  0.00     0.032 A 
HETATM   11  C   UNL     1      39.393 -11.844   3.727  1.00  0.00     0.257 A 
HETATM   12  O   UNL     1      38.956 -11.637   4.847  1.00  0.00    -0.270 OA
HETATM   13  C   UNL     1      39.484 -10.808   2.623  1.00  0.00     0.211 A 
HETATM   14  N   UNL     1      40.469 -15.303   3.072  1.00  0.00    -0.223 NA
ENDROOT
BRANCH   1  15
HETATM   15  S   UNL     1      39.973 -14.467   5.474  1.00  0.00    -0.082 SA
BRANCH  15  16
HETATM   16  C   UNL     1      41.711 -14.774   5.868  1.00  0.00     0.185 C 
BRANCH  16  17
HETATM   17  C   UNL     1      42.148 -16.228   5.728  1.00  0.00     0.231 C 
HETATM   18  N   UNL     1      43.185 -16.453   4.845  1.00  0.00    -0.327 N 
HETATM   19  H   UNL     1      43.676 -15.635   4.494  1.00  0.00     0.169 HD
HETATM   20  O   UNL     1      41.508 -17.101   6.313  1.00  0.00    -0.272 OA
BRANCH  18  21
HETATM   21  C   UNL     1      43.649 -17.690   4.354  1.00  0.00     0.034 A 
HETATM   22  C   UNL     1      44.361 -18.619   5.109  1.00  0.00     0.030 A 
HETATM   23  C   UNL     1      44.723 -19.857   4.560  1.00  0.00     0.010 A 
HETATM   24  C   UNL     1      44.368 -20.201   3.250  1.00  0.00    -0.055 A 
HETATM   25  C   UNL     1      43.676 -19.247   2.488  1.00  0.00     0.010 A 
HETATM   26  C   UNL     1      43.330 -18.008   3.031  1.00  0.00     0.030 A 
BRANCH  24  27
HETATM   27  C   UNL     1      44.693 -21.548   2.623  1.00  0.00     0.010 C 
HETATM   28  C   UNL     1      43.809 -21.936   1.433  1.00  0.00     0.015 C 
HETATM   29  C   UNL     1      44.659 -22.657   3.679  1.00  0.00     0.015 C 
ENDBRANCH  24  27
ENDBRANCH  18  21
ENDBRANCH  16  17
ENDBRANCH  15  16
ENDBRANCH   1  15
BRANCH  13  30
HETATM   30  C   UNL     1      40.508  -9.762   3.010  1.00  0.00     0.140 C 
BRANCH  30  31
HETATM   31  C   UNL     1      40.738  -8.779   1.891  1.00  0.00     0.220 C 
HETATM   32  N   UNL     1      41.606  -9.234   0.924  1.00  0.00    -0.356 N 
HETATM   33  H   UNL     1      42.003 -10.157   1.034  1.00  0.00     0.162 HD
HETATM   34  O   UNL     1      40.214  -7.671   1.879  1.00  0.00    -0.274 OA
BRANCH  32  35
HETATM   35  C   UNL     1      42.188  -8.345  -0.074  1.00  0.00     0.084 C 
HETATM   36  C   UNL     1      43.636  -8.755  -0.383  1.00  0.00     0.025 C 
HETATM   37  C   UNL     1      43.711 -10.090  -1.124  1.00  0.00     0.002 C 
HETATM   38  C   UNL     1      42.876 -10.070  -2.399  1.00  0.00     0.000 C 
HETATM   39  C   UNL     1      41.432  -9.655  -2.132  1.00  0.00     0.002 C 
HETATM   40  C   UNL     1      41.344  -8.339  -1.356  1.00  0.00     0.025 C 
ENDBRANCH  32  35
ENDBRANCH  30  31
ENDBRANCH  13  30
TORSDOF 8
ENDMDL
MODEL 8
REMARK VINA RESULT:      -9.3      2.900      9.796
REMARK  8 active torsions:
REMARK  status: ('A' for Active; 'I' for Inactive)
REMARK    1  A    between atoms: C_2  and  C_3 
REMARK    2  A    between atoms: C_6  and  N_7 
REMARK       I    between atoms: N_7  and  C_8 
REMARK    3  A    between atoms: C_8  and  C_9 
REMARK    4  A    between atoms: C_9  and  S_10 
REMARK    5  A    between atoms: S_10  and  C_11 
REMARK    6  A    between atoms: C_23  and  C_24 
REMARK    7  A    between atoms: C_24  and  C_25 
REMARK       I    between atoms: C_25  and  N_26 
REMARK    8  A    between atoms: N_26  and  C_27 
ROOT
HETATM    1  C   UNL     1      40.880 -13.047   5.226  1.00  0.00     0.178 A 
HETATM    2  N   UNL     1      40.776 -11.971   6.094  1.00  0.00    -0.241 N 
HETATM    3  C   UNL     1      41.726 -11.730   7.031  1.00  0.00     0.147 A 
HETATM    4  N   UNL     1      41.505 -10.774   7.880  1.00  0.00    -0.256 NA
HETATM    5  C   UNL     1      42.922 -12.572   7.025  1.00  0.00     0.039 A 
HETATM    6  C   UNL     1      42.963 -13.599   6.077  1.00  0.00     0.073 A 
HETATM    7  C   UNL     1      43.974 -12.357   7.920  1.00  0.00     0.018 A 
HETATM    8  C   UNL     1      45.089 -13.193   7.872  1.00  0.00     0.001 A 
HETATM    9  C   UNL     1      45.141 -14.232   6.944  1.00  0.00     0.002 A 
HETATM   10  C   UNL     1      44.080 -14.435   6.053  1.00  0.00     0.032 A 
HETATM   11  C   UNL     1      39.800 -11.012   6.239  1.00  0.00     0.257 A 
HETATM   12  O   UNL     1      38.830 -10.790   5.533  1.00  0.00    -0.270 OA
HETATM   13  C   UNL     1      40.190 -10.204   7.463  1.00  0.00     0.211 A 
HETATM   14  N   UNL     1      41.909 -13.835   5.174  1.00  0.00    -0.223 NA
ENDROOT
BRANCH   1  15
HETATM   15  S   UNL     1      39.549 -13.449   4.173  1.00  0.00    -0.082 SA
BRANCH  15  16
HETATM   16  C   UNL     1      40.466 -14.038   2.730  1.00  0.00     0.185 C 
BRANCH  16  17
HETATM   17  C   UNL     1      40.711 -15.542   2.703  1.00  0.00     0.231 C 
HETATM   18  N   UNL     1      41.989 -15.941   3.041  1.00  0.00    -0.327 N 
HETATM   19  H   UNL     1      42.602 -15.232   3.437  1.00  0.00     0.169 HD
HETATM   20  O   UNL     1      39.817 -16.283   2.296  1.00  0.00    -0.272 OA
BRANCH  18  21
HETATM   21  C   UNL     1      42.561 -17.221   2.898  1.00  0.00     0.034 A 
HETATM   22  C   UNL     1      42.289 -18.090   1.845  1.00  0.00     0.030 A 
HETATM   23  C   UNL     1      42.958 -19.318   1.742  1.00  0.00     0.010 A 
HETATM   24  C   UNL     1      43.924 -19.697   2.681  1.00  0.00    -0.055 A 
HETATM   25  C   UNL     1      44.171 -18.828   3.754  1.00  0.00     0.010 A 
HETATM   26  C   UNL     1      43.492 -17.612   3.863  1.00  0.00     0.030 A 
BRANCH  24  27
HETATM   27  C   UNL     1      44.713 -20.995   2.589  1.00  0.00     0.010 C 
HETATM   28  C   UNL     1      44.148 -22.025   1.605  1.00  0.00     0.015 C 
HETATM   29  C   UNL     1      44.870 -21.631   3.973  1.00  0.00     0.015 C 
ENDBRANCH  24  27
ENDBRANCH  18  21
ENDBRANCH  16  17
ENDBRANCH  15  16
ENDBRANCH   1  15
BRANCH  13  30
HETATM   30  C   UNL     1      39.148 -10.408   8.543  1.00  0.00     0.140 C 
BRANCH  30  31
HETATM   31  C   UNL     1      39.367  -9.467   9.700  1.00  0.00     0.220 C 
HETATM   32  N   UNL     1      40.490  -9.755  10.442  1.00  0.00    -0.356 N 
HETATM   33  H   UNL     1      41.060 -10.541  10.161  1.00  0.00     0.162 HD
HETATM   34  O   UNL     1      38.587  -8.557   9.956  1.00  0.00    -0.274 OA
BRANCH  32  35
HETATM   35  C   UNL     1      40.723  -9.166  11.755  1.00  0.00     0.084 C 
HETATM   36  C   UNL     1      40.683 -10.247  12.846  1.00  0.00     0.025 C 
HETATM   37  C   UNL     1      41.874 -11.201  12.756  1.00  0.00     0.002 C 
HETATM   38  C   UNL     1      43.199 -10.447  12.796  1.00  0.00     0.000 C 
HETATM   39  C   UNL     1      43.270  -9.356  11.732  1.00  0.00     0.002 C 
HETATM   40  C   UNL     1      42.062  -8.417  11.786  1.00  0.00     0.025 C 
ENDBRANCH  32  35
ENDBRANCH  30  31
ENDBRANCH  13  30
TORSDOF 8
ENDMDL
MODEL 9
REMARK VINA RESULT:      -9.3      2.154      2.697
REMARK  8 active torsions:
REMARK  status: ('A' for Active; 'I' for Inactive)
REMARK    1  A    between atoms: C_2  and  C_3 
REMARK    2  A    between atoms: C_6  and  N_7 
REMARK       I    between atoms: N_7  and  C_8 
REMARK    3  A    between atoms: C_8  and  C_9 
REMARK    4  A    between atoms: C_9  and  S_10 
REMARK    5  A    between atoms: S_10  and  C_11 
REMARK    6  A    between atoms: C_23  and  C_24 
REMARK    7  A    between atoms: C_24  and  C_25 
REMARK       I    between atoms: C_25  and  N_26 
REMARK    8  A    between atoms: N_26  and  C_27 
ROOT
HETATM    1  C   UNL     1      41.609 -15.186   4.457  1.00  0.00     0.178 A 
HETATM    2  N   UNL     1      41.462 -14.757   3.146  1.00  0.00    -0.241 N 
HETATM    3  C   UNL     1      42.030 -15.433   2.118  1.00  0.00     0.147 A 
HETATM    4  N   UNL     1      41.945 -14.911   0.934  1.00  0.00    -0.256 NA
HETATM    5  C   UNL     1      42.708 -16.693   2.421  1.00  0.00     0.039 A 
HETATM    6  C   UNL     1      42.760 -17.073   3.765  1.00  0.00     0.073 A 
HETATM    7  C   UNL     1      43.274 -17.482   1.414  1.00  0.00     0.018 A 
HETATM    8  C   UNL     1      43.912 -18.672   1.759  1.00  0.00     0.001 A 
HETATM    9  C   UNL     1      43.986 -19.059   3.097  1.00  0.00     0.002 A 
HETATM   10  C   UNL     1      43.416 -18.261   4.095  1.00  0.00     0.032 A 
HETATM   11  C   UNL     1      40.817 -13.663   2.615  1.00  0.00     0.257 A 
HETATM   12  O   UNL     1      40.086 -12.859   3.168  1.00  0.00    -0.270 OA
HETATM   13  C   UNL     1      41.148 -13.665   1.134  1.00  0.00     0.211 A 
HETATM   14  N   UNL     1      42.204 -16.287   4.792  1.00  0.00    -0.223 NA
ENDROOT
BRANCH   1  15
HETATM   15  S   UNL     1      41.042 -14.186   5.768  1.00  0.00    -0.082 SA
BRANCH  15  16
HETATM   16  C   UNL     1      42.424 -13.026   5.891  1.00  0.00     0.185 C 
BRANCH  16  17
HETATM   17  C   UNL     1      42.254 -11.943   6.949  1.00  0.00     0.231 C 
HETATM   18  N   UNL     1      43.194 -11.951   7.961  1.00  0.00    -0.327 N 
HETATM   19  H   UNL     1      44.003 -12.554   7.833  1.00  0.00     0.169 HD
HETATM   20  O   UNL     1      41.265 -11.213   6.900  1.00  0.00    -0.272 OA
BRANCH  18  21
HETATM   21  C   UNL     1      43.169 -11.225   9.169  1.00  0.00     0.034 A 
HETATM   22  C   UNL     1      42.195 -10.288   9.503  1.00  0.00     0.030 A 
HETATM   23  C   UNL     1      42.207  -9.663  10.758  1.00  0.00     0.010 A 
HETATM   24  C   UNL     1      43.183  -9.972  11.712  1.00  0.00    -0.055 A 
HETATM   25  C   UNL     1      44.178 -10.896  11.356  1.00  0.00     0.010 A 
HETATM   26  C   UNL     1      44.173 -11.506  10.099  1.00  0.00     0.030 A 
BRANCH  24  27
HETATM   27  C   UNL     1      43.213  -9.360  13.105  1.00  0.00     0.010 C 
HETATM   28  C   UNL     1      42.553 -10.208  14.197  1.00  0.00     0.015 C 
HETATM   29  C   UNL     1      42.598  -7.958  13.092  1.00  0.00     0.015 C 
ENDBRANCH  24  27
ENDBRANCH  18  21
ENDBRANCH  16  17
ENDBRANCH  15  16
ENDBRANCH   1  15
BRANCH  13  30
HETATM   30  C   UNL     1      41.976 -12.438   0.811  1.00  0.00     0.140 C 
BRANCH  30  31
HETATM   31  C   UNL     1      42.163 -12.280  -0.676  1.00  0.00     0.220 C 
HETATM   32  N   UNL     1      41.135 -12.809  -1.422  1.00  0.00    -0.356 N 
HETATM   33  H   UNL     1      40.364 -13.242  -0.934  1.00  0.00     0.162 HD
HETATM   34  O   UNL     1      43.161 -11.752  -1.154  1.00  0.00    -0.274 OA
BRANCH  32  35
HETATM   35  C   UNL     1      41.254 -13.025  -2.859  1.00  0.00     0.084 C 
HETATM   36  C   UNL     1      41.830 -14.420  -3.150  1.00  0.00     0.025 C 
HETATM   37  C   UNL     1      40.851 -15.535  -2.782  1.00  0.00     0.002 C 
HETATM   38  C   UNL     1      39.507 -15.353  -3.480  1.00  0.00     0.000 C 
HETATM   39  C   UNL     1      38.910 -13.972  -3.223  1.00  0.00     0.002 C 
HETATM   40  C   UNL     1      39.895 -12.847  -3.550  1.00  0.00     0.025 C 
ENDBRANCH  32  35
ENDBRANCH  30  31
ENDBRANCH  13  30
TORSDOF 8
ENDMDL
MODEL 10
REMARK VINA RESULT:      -9.1      2.118      9.350
REMARK  8 active torsions:
REMARK  status: ('A' for Active; 'I' for Inactive)
REMARK    1  A    between atoms: C_2  and  C_3 
REMARK    2  A    between atoms: C_6  and  N_7 
REMARK       I    between atoms: N_7  and  C_8 
REMARK    3  A    between atoms: C_8  and  C_9 
REMARK    4  A    between atoms: C_9  and  S_10 
REMARK    5  A    between atoms: S_10  and  C_11 
REMARK    6  A    between atoms: C_23  and  C_24 
REMARK    7  A    between atoms: C_24  and  C_25 
REMARK       I    between atoms: C_25  and  N_26 
REMARK    8  A    between atoms: N_26  and  C_27 
ROOT
HETATM    1  C   UNL     1      40.335 -14.041   4.478  1.00  0.00     0.178 A 
HETATM    2  N   UNL     1      41.689 -14.008   4.775  1.00  0.00    -0.241 N 
HETATM    3  C   UNL     1      42.556 -14.878   4.201  1.00  0.00     0.147 A 
HETATM    4  N   UNL     1      43.786 -14.861   4.612  1.00  0.00    -0.256 NA
HETATM    5  C   UNL     1      42.038 -15.780   3.173  1.00  0.00     0.039 A 
HETATM    6  C   UNL     1      40.669 -15.705   2.902  1.00  0.00     0.073 A 
HETATM    7  C   UNL     1      42.873 -16.671   2.492  1.00  0.00     0.018 A 
HETATM    8  C   UNL     1      42.326 -17.511   1.524  1.00  0.00     0.001 A 
HETATM    9  C   UNL     1      40.960 -17.461   1.250  1.00  0.00     0.002 A 
HETATM   10  C   UNL     1      40.135 -16.563   1.939  1.00  0.00     0.032 A 
HETATM   11  C   UNL     1      42.412 -13.214   5.637  1.00  0.00     0.257 A 
HETATM   12  O   UNL     1      42.048 -12.233   6.265  1.00  0.00    -0.270 OA
HETATM   13  C   UNL     1      43.824 -13.768   5.628  1.00  0.00     0.211 A 
HETATM   14  N   UNL     1      39.812 -14.820   3.584  1.00  0.00    -0.223 NA
ENDROOT
BRANCH   1  15
HETATM   15  S   UNL     1      39.222 -13.048   5.381  1.00  0.00    -0.082 SA
BRANCH  15  16
HETATM   16  C   UNL     1      39.313 -11.524   4.411  1.00  0.00     0.185 C 
BRANCH  16  17
HETATM   17  C   UNL     1      39.770 -11.714   2.970  1.00  0.00     0.231 C 
HETATM   18  N   UNL     1      38.856 -12.326   2.135  1.00  0.00    -0.327 N 
HETATM   19  H   UNL     1      37.912 -12.446   2.494  1.00  0.00     0.169 HD
HETATM   20  O   UNL     1      40.923 -11.414   2.666  1.00  0.00    -0.272 OA
BRANCH  18  21
HETATM   21  C   UNL     1      39.072 -12.822   0.832  1.00  0.00     0.034 A 
HETATM   22  C   UNL     1      40.296 -12.784   0.170  1.00  0.00     0.030 A 
HETATM   23  C   UNL     1      40.439 -13.365  -1.098  1.00  0.00     0.010 A 
HETATM   24  C   UNL     1      39.367 -14.009  -1.725  1.00  0.00    -0.055 A 
HETATM   25  C   UNL     1      38.130 -14.016  -1.063  1.00  0.00     0.010 A 
HETATM   26  C   UNL     1      37.985 -13.424   0.194  1.00  0.00     0.030 A 
BRANCH  24  27
HETATM   27  C   UNL     1      39.481 -14.697  -3.077  1.00  0.00     0.010 C 
HETATM   28  C   UNL     1      38.154 -15.190  -3.664  1.00  0.00     0.015 C 
HETATM   29  C   UNL     1      40.482 -15.853  -3.012  1.00  0.00     0.015 C 
ENDBRANCH  24  27
ENDBRANCH  18  21
ENDBRANCH  16  17
ENDBRANCH  15  16
ENDBRANCH   1  15
BRANCH  13  30
HETATM   30  C   UNL     1      44.147 -14.320   7.001  1.00  0.00     0.140 C 
BRANCH  30  31
HETATM   31  C   UNL     1      44.852 -13.295   7.852  1.00  0.00     0.220 C 
HETATM   32  N   UNL     1      44.027 -12.665   8.756  1.00  0.00    -0.356 N 
HETATM   33  H   UNL     1      43.053 -12.931   8.781  1.00  0.00     0.162 HD
HETATM   34  O   UNL     1      46.043 -13.041   7.712  1.00  0.00    -0.274 OA
BRANCH  32  35
HETATM   35  C   UNL     1      44.431 -11.453   9.459  1.00  0.00     0.084 C 
HETATM   36  C   UNL     1      43.225 -10.525   9.671  1.00  0.00     0.025 C 
HETATM   37  C   UNL     1      42.223 -11.104  10.671  1.00  0.00     0.002 C 
HETATM   38  C   UNL     1      42.889 -11.433  12.003  1.00  0.00     0.000 C 
HETATM   39  C   UNL     1      44.100 -12.344  11.829  1.00  0.00     0.002 C 
HETATM   40  C   UNL     1      45.092 -11.796  10.800  1.00  0.00     0.025 C 
ENDBRANCH  32  35
ENDBRANCH  30  31
ENDBRANCH  13  30
TORSDOF 8
ENDMDL
