MODEL 1
REMARK VINA RESULT:      -9.0      0.000      0.000
REMARK  3 active torsions:
REMARK  status: ('A' for Active; 'I' for Inactive)
REMARK    1  A    between atoms: O_2  and  C_3 
REMARK       I    between atoms: N_13  and  C_14 
REMARK       I    between atoms: C_14  and  N_15 
REMARK    2  A    between atoms: N_15  and  C_16 
REMARK    3  A    between atoms: C_22  and  C_23 
ROOT
HETATM    1  C   UNL     1      43.456 -10.346  10.520  1.00  0.00     0.069 A 
HETATM    2  C   UNL     1      42.927 -10.695   9.271  1.00  0.00     0.051 A 
HETATM    3  C   UNL     1      43.519 -11.731   8.523  1.00  0.00     0.002 A 
HETATM    4  C   UNL     1      44.649 -12.369   9.038  1.00  0.00     0.043 A 
HETATM    5  N   UNL     1      45.019 -13.343   8.135  1.00  0.00    -0.356 N 
HETATM    6  H   UNL     1      45.788 -13.986   8.273  1.00  0.00     0.166 HD
HETATM    7  C   UNL     1      44.122 -13.386   7.099  1.00  0.00     0.045 A 
HETATM    8  C   UNL     1      43.214 -12.367   7.294  1.00  0.00    -0.019 A 
HETATM    9  C   UNL     1      42.106 -12.145   6.337  1.00  0.00     0.061 C 
HETATM   10  C   UNL     1      42.473 -12.778   4.988  1.00  0.00     0.133 C 
HETATM   11  N   UNL     1      42.952 -14.178   5.087  1.00  0.00    -0.320 N 
HETATM   12  C   UNL     1      42.819 -14.881   3.882  1.00  0.00     0.319 C 
HETATM   13  N   UNL     1      43.085 -16.220   3.965  1.00  0.00    -0.338 N 
HETATM   14  O   UNL     1      42.438 -14.350   2.842  1.00  0.00    -0.247 OA
HETATM   15  C   UNL     1      44.119 -14.420   5.996  1.00  0.00     0.172 C 
HETATM   16  C   UNL     1      45.213 -12.015  10.268  1.00  0.00     0.033 A 
HETATM   17  C   UNL     1      44.594 -10.995  11.003  1.00  0.00     0.039 A 
HETATM   18  H   UNL     1      42.864 -16.601   4.871  1.00  0.00     0.164 HD
ENDROOT
BRANCH  15  19
HETATM   19  C   UNL     1      44.151 -15.810   6.632  1.00  0.00    -0.029 A 
HETATM   20  C   UNL     1      43.166 -16.180   7.567  1.00  0.00     0.012 A 
HETATM   21  C   UNL     1      43.184 -17.451   8.145  1.00  0.00     0.043 A 
HETATM   22  C   UNL     1      44.179 -18.353   7.789  1.00  0.00     0.116 A 
HETATM   23  F   UNL     1      44.192 -19.572   8.345  1.00  0.00    -0.206 F 
HETATM   24  C   UNL     1      45.159 -18.012   6.865  1.00  0.00     0.043 A 
HETATM   25  C   UNL     1      45.146 -16.743   6.286  1.00  0.00     0.012 A 
ENDBRANCH  15  19
BRANCH  13  26
HETATM   26  C   UNL     1      42.871 -17.167   2.887  1.00  0.00     0.086 C 
HETATM   27  C   UNL     1      43.919 -17.119   1.778  1.00  0.00     0.025 C 
HETATM   28  C   UNL     1      43.603 -18.367   0.968  1.00  0.00     0.002 C 
HETATM   29  C   UNL     1      43.145 -19.405   1.992  1.00  0.00     0.002 C 
HETATM   30  C   UNL     1      42.816 -18.641   3.278  1.00  0.00     0.025 C 
ENDBRANCH  13  26
BRANCH   1  31
HETATM   31  O   UNL     1      42.773  -9.350  11.167  1.00  0.00    -0.356 OA
HETATM   32  C   UNL     1      41.376  -9.276  10.917  1.00  0.00     0.210 C 
ENDBRANCH   1  31
TORSDOF 3
ENDMDL
MODEL 2
REMARK VINA RESULT:      -8.8      4.085      8.386
REMARK  3 active torsions:
REMARK  status: ('A' for Active; 'I' for Inactive)
REMARK    1  A    between atoms: O_2  and  C_3 
REMARK       I    between atoms: N_13  and  C_14 
REMARK       I    between atoms: C_14  and  N_15 
REMARK    2  A    between atoms: N_15  and  C_16 
REMARK    3  A    between atoms: C_22  and  C_23 
ROOT
HETATM    1  C   UNL     1      40.791 -12.876  -3.223  1.00  0.00     0.069 A 
HETATM    2  C   UNL     1      41.197 -12.571  -1.918  1.00  0.00     0.051 A 
HETATM    3  C   UNL     1      41.100 -13.547  -0.907  1.00  0.00     0.002 A 
HETATM    4  C   UNL     1      40.566 -14.796  -1.230  1.00  0.00     0.043 A 
HETATM    5  N   UNL     1      40.597 -15.565  -0.086  1.00  0.00    -0.356 N 
HETATM    6  H   UNL     1      40.304 -16.532  -0.040  1.00  0.00     0.166 HD
HETATM    7  C   UNL     1      41.193 -14.865   0.933  1.00  0.00     0.045 A 
HETATM    8  C   UNL     1      41.469 -13.600   0.460  1.00  0.00    -0.019 A 
HETATM    9  C   UNL     1      42.120 -12.592   1.328  1.00  0.00     0.061 C 
HETATM   10  C   UNL     1      41.901 -12.977   2.797  1.00  0.00     0.133 C 
HETATM   11  N   UNL     1      42.233 -14.388   3.108  1.00  0.00    -0.320 N 
HETATM   12  C   UNL     1      42.494 -14.594   4.470  1.00  0.00     0.319 C 
HETATM   13  N   UNL     1      42.971 -15.838   4.782  1.00  0.00    -0.338 N 
HETATM   14  O   UNL     1      42.362 -13.710   5.312  1.00  0.00    -0.247 OA
HETATM   15  C   UNL     1      41.534 -15.433   2.291  1.00  0.00     0.172 C 
HETATM   16  C   UNL     1      40.125 -15.111  -2.519  1.00  0.00     0.033 A 
HETATM   17  C   UNL     1      40.251 -14.129  -3.512  1.00  0.00     0.039 A 
HETATM   18  H   UNL     1      43.510 -16.242   4.033  1.00  0.00     0.164 HD
ENDROOT
BRANCH  15  19
HETATM   19  C   UNL     1      42.329 -16.723   2.095  1.00  0.00    -0.029 A 
HETATM   20  C   UNL     1      41.753 -17.964   2.427  1.00  0.00     0.012 A 
HETATM   21  C   UNL     1      42.471 -19.146   2.242  1.00  0.00     0.043 A 
HETATM   22  C   UNL     1      43.759 -19.095   1.721  1.00  0.00     0.116 A 
HETATM   23  F   UNL     1      44.443 -20.233   1.544  1.00  0.00    -0.206 F 
HETATM   24  C   UNL     1      44.346 -17.883   1.382  1.00  0.00     0.043 A 
HETATM   25  C   UNL     1      43.634 -16.697   1.567  1.00  0.00     0.012 A 
ENDBRANCH  15  19
BRANCH  13  26
HETATM   26  C   UNL     1      43.449 -16.226   6.096  1.00  0.00     0.086 C 
HETATM   27  C   UNL     1      42.392 -16.858   6.997  1.00  0.00     0.025 C 
HETATM   28  C   UNL     1      43.221 -17.401   8.151  1.00  0.00     0.002 C 
HETATM   29  C   UNL     1      44.535 -17.862   7.520  1.00  0.00     0.002 C 
HETATM   30  C   UNL     1      44.606 -17.220   6.132  1.00  0.00     0.025 C 
ENDBRANCH  13  26
BRANCH   1  31
HETATM   31  O   UNL     1      40.968 -11.859  -4.124  1.00  0.00    -0.356 OA
HETATM   32  C   UNL     1      42.291 -11.356  -4.259  1.00  0.00     0.210 C 
ENDBRANCH   1  31
TORSDOF 3
ENDMDL
MODEL 3
REMARK VINA RESULT:      -8.8      4.247      6.061
REMARK  3 active torsions:
REMARK  status: ('A' for Active; 'I' for Inactive)
REMARK    1  A    between atoms: O_2  and  C_3 
REMARK       I    between atoms: N_13  and  C_14 
REMARK       I    between atoms: C_14  and  N_15 
REMARK    2  A    between atoms: N_15  and  C_16 
REMARK    3  A    between atoms: C_22  and  C_23 
ROOT
HETATM    1  C   UNL     1      38.573 -12.227   2.268  1.00  0.00     0.069 A 
HETATM    2  C   UNL     1      39.009 -13.490   1.847  1.00  0.00     0.051 A 
HETATM    3  C   UNL     1      40.199 -14.031   2.370  1.00  0.00     0.002 A 
HETATM    4  C   UNL     1      40.938 -13.273   3.279  1.00  0.00     0.043 A 
HETATM    5  N   UNL     1      42.034 -14.025   3.648  1.00  0.00    -0.356 N 
HETATM    6  H   UNL     1      42.723 -13.734   4.328  1.00  0.00     0.166 HD
HETATM    7  C   UNL     1      41.977 -15.259   3.052  1.00  0.00     0.045 A 
HETATM    8  C   UNL     1      40.876 -15.268   2.221  1.00  0.00    -0.019 A 
HETATM    9  C   UNL     1      40.535 -16.470   1.426  1.00  0.00     0.061 C 
HETATM   10  C   UNL     1      41.789 -17.340   1.269  1.00  0.00     0.133 C 
HETATM   11  N   UNL     1      42.506 -17.604   2.540  1.00  0.00    -0.320 N 
HETATM   12  C   UNL     1      43.319 -18.744   2.475  1.00  0.00     0.319 C 
HETATM   13  N   UNL     1      43.866 -19.129   3.669  1.00  0.00    -0.338 N 
HETATM   14  O   UNL     1      43.484 -19.384   1.440  1.00  0.00    -0.247 OA
HETATM   15  C   UNL     1      42.925 -16.402   3.332  1.00  0.00     0.172 C 
HETATM   16  C   UNL     1      40.539 -11.997   3.689  1.00  0.00     0.033 A 
HETATM   17  C   UNL     1      39.340 -11.488   3.170  1.00  0.00     0.039 A 
HETATM   18  H   UNL     1      43.280 -18.894   4.454  1.00  0.00     0.164 HD
ENDROOT
BRANCH  15  19
HETATM   19  C   UNL     1      42.986 -16.625   4.842  1.00  0.00    -0.029 A 
HETATM   20  C   UNL     1      44.166 -16.331   5.551  1.00  0.00     0.012 A 
HETATM   21  C   UNL     1      44.226 -16.524   6.932  1.00  0.00     0.043 A 
HETATM   22  C   UNL     1      43.111 -17.005   7.608  1.00  0.00     0.116 A 
HETATM   23  F   UNL     1      43.173 -17.187   8.933  1.00  0.00    -0.206 F 
HETATM   24  C   UNL     1      41.934 -17.298   6.931  1.00  0.00     0.043 A 
HETATM   25  C   UNL     1      41.870 -17.109   5.550  1.00  0.00     0.012 A 
ENDBRANCH  15  19
BRANCH  13  26
HETATM   26  C   UNL     1      44.615 -20.355   3.869  1.00  0.00     0.086 C 
HETATM   27  C   UNL     1      44.598 -20.886   5.299  1.00  0.00     0.025 C 
HETATM   28  C   UNL     1      45.202 -22.274   5.146  1.00  0.00     0.002 C 
HETATM   29  C   UNL     1      44.711 -22.777   3.788  1.00  0.00     0.002 C 
HETATM   30  C   UNL     1      44.195 -21.555   3.025  1.00  0.00     0.025 C 
ENDBRANCH  13  26
BRANCH   1  31
HETATM   31  O   UNL     1      37.385 -11.825   1.717  1.00  0.00    -0.356 OA
HETATM   32  C   UNL     1      37.011 -12.447   0.495  1.00  0.00     0.210 C 
ENDBRANCH   1  31
TORSDOF 3
ENDMDL
MODEL 4
REMARK VINA RESULT:      -8.8      3.189      5.023
REMARK  3 active torsions:
REMARK  status: ('A' for Active; 'I' for Inactive)
REMARK    1  A    between atoms: O_2  and  C_3 
REMARK       I    between atoms: N_13  and  C_14 
REMARK       I    between atoms: C_14  and  N_15 
REMARK    2  A    between atoms: N_15  and  C_16 
REMARK    3  A    between atoms: C_22  and  C_23 
ROOT
HETATM    1  C   UNL     1      41.126 -10.694   6.605  1.00  0.00     0.069 A 
HETATM    2  C   UNL     1      42.057 -11.737   6.678  1.00  0.00     0.051 A 
HETATM    3  C   UNL     1      41.765 -12.981   6.086  1.00  0.00     0.002 A 
HETATM    4  C   UNL     1      40.527 -13.154   5.464  1.00  0.00     0.043 A 
HETATM    5  N   UNL     1      40.496 -14.435   4.956  1.00  0.00    -0.356 N 
HETATM    6  H   UNL     1      39.729 -14.819   4.421  1.00  0.00     0.166 HD
HETATM    7  C   UNL     1      41.699 -15.056   5.180  1.00  0.00     0.045 A 
HETATM    8  C   UNL     1      42.481 -14.193   5.917  1.00  0.00    -0.019 A 
HETATM    9  C   UNL     1      43.853 -14.572   6.326  1.00  0.00     0.061 C 
HETATM   10  C   UNL     1      43.980 -16.101   6.296  1.00  0.00     0.133 C 
HETATM   11  N   UNL     1      43.498 -16.725   5.041  1.00  0.00    -0.320 N 
HETATM   12  C   UNL     1      44.044 -17.998   4.826  1.00  0.00     0.319 C 
HETATM   13  N   UNL     1      43.767 -18.543   3.602  1.00  0.00    -0.338 N 
HETATM   14  O   UNL     1      44.764 -18.560   5.647  1.00  0.00    -0.247 OA
HETATM   15  C   UNL     1      42.088 -16.413   4.640  1.00  0.00     0.172 C 
HETATM   16  C   UNL     1      39.569 -12.136   5.408  1.00  0.00     0.033 A 
HETATM   17  C   UNL     1      39.892 -10.901   5.987  1.00  0.00     0.039 A 
HETATM   18  H   UNL     1      43.659 -17.843   2.885  1.00  0.00     0.164 HD
ENDROOT
BRANCH  15  19
HETATM   19  C   UNL     1      41.838 -16.428   3.132  1.00  0.00    -0.029 A 
HETATM   20  C   UNL     1      42.527 -15.531   2.294  1.00  0.00     0.012 A 
HETATM   21  C   UNL     1      42.309 -15.545   0.916  1.00  0.00     0.043 A 
HETATM   22  C   UNL     1      41.411 -16.454   0.371  1.00  0.00     0.116 A 
HETATM   23  F   UNL     1      41.207 -16.465  -0.953  1.00  0.00    -0.206 F 
HETATM   24  C   UNL     1      40.723 -17.353   1.177  1.00  0.00     0.043 A 
HETATM   25  C   UNL     1      40.935 -17.341   2.556  1.00  0.00     0.012 A 
ENDBRANCH  15  19
BRANCH  13  26
HETATM   26  C   UNL     1      44.345 -19.777   3.105  1.00  0.00     0.086 C 
HETATM   27  C   UNL     1      44.299 -20.944   4.087  1.00  0.00     0.025 C 
HETATM   28  C   UNL     1      44.699 -22.127   3.217  1.00  0.00     0.002 C 
HETATM   29  C   UNL     1      44.101 -21.834   1.841  1.00  0.00     0.002 C 
HETATM   30  C   UNL     1      43.736 -20.347   1.826  1.00  0.00     0.025 C 
ENDBRANCH  13  26
BRANCH   1  31
HETATM   31  O   UNL     1      41.538  -9.523   7.185  1.00  0.00    -0.356 OA
HETATM   32  C   UNL     1      41.678  -9.533   8.600  1.00  0.00     0.210 C 
ENDBRANCH   1  31
TORSDOF 3
ENDMDL
MODEL 5
REMARK VINA RESULT:      -8.7      3.769      8.564
REMARK  3 active torsions:
REMARK  status: ('A' for Active; 'I' for Inactive)
REMARK    1  A    between atoms: O_2  and  C_3 
REMARK       I    between atoms: N_13  and  C_14 
REMARK       I    between atoms: C_14  and  N_15 
REMARK    2  A    between atoms: N_15  and  C_16 
REMARK    3  A    between atoms: C_22  and  C_23 
ROOT
HETATM    1  C   UNL     1      44.391 -21.236   3.390  1.00  0.00     0.069 A 
HETATM    2  C   UNL     1      44.242 -20.173   4.290  1.00  0.00     0.051 A 
HETATM    3  C   UNL     1      44.006 -18.871   3.805  1.00  0.00     0.002 A 
HETATM    4  C   UNL     1      43.960 -18.668   2.425  1.00  0.00     0.043 A 
HETATM    5  N   UNL     1      43.702 -17.330   2.215  1.00  0.00    -0.356 N 
HETATM    6  H   UNL     1      43.579 -16.909   1.303  1.00  0.00     0.166 HD
HETATM    7  C   UNL     1      43.520 -16.693   3.416  1.00  0.00     0.045 A 
HETATM    8  C   UNL     1      43.750 -17.617   4.414  1.00  0.00    -0.019 A 
HETATM    9  C   UNL     1      43.632 -17.238   5.840  1.00  0.00     0.061 C 
HETATM   10  C   UNL     1      43.782 -15.717   5.969  1.00  0.00     0.133 C 
HETATM   11  N   UNL     1      42.928 -14.942   5.037  1.00  0.00    -0.320 N 
HETATM   12  C   UNL     1      42.706 -13.629   5.471  1.00  0.00     0.319 C 
HETATM   13  N   UNL     1      41.788 -12.928   4.738  1.00  0.00    -0.338 N 
HETATM   14  O   UNL     1      43.248 -13.158   6.468  1.00  0.00    -0.247 OA
HETATM   15  C   UNL     1      43.078 -15.257   3.579  1.00  0.00     0.172 C 
HETATM   16  C   UNL     1      44.138 -19.709   1.509  1.00  0.00     0.033 A 
HETATM   17  C   UNL     1      44.351 -20.998   2.016  1.00  0.00     0.039 A 
HETATM   18  H   UNL     1      41.078 -13.522   4.342  1.00  0.00     0.164 HD
ENDROOT
BRANCH  15  19
HETATM   19  C   UNL     1      41.814 -15.039   2.748  1.00  0.00    -0.029 A 
HETATM   20  C   UNL     1      41.836 -14.162   1.647  1.00  0.00     0.012 A 
HETATM   21  C   UNL     1      40.688 -13.965   0.879  1.00  0.00     0.043 A 
HETATM   22  C   UNL     1      39.519 -14.645   1.203  1.00  0.00     0.116 A 
HETATM   23  F   UNL     1      38.420 -14.454   0.462  1.00  0.00    -0.206 F 
HETATM   24  C   UNL     1      39.475 -15.519   2.282  1.00  0.00     0.043 A 
HETATM   25  C   UNL     1      40.619 -15.718   3.054  1.00  0.00     0.012 A 
ENDBRANCH  15  19
BRANCH  13  26
HETATM   26  C   UNL     1      41.292 -11.611   5.089  1.00  0.00     0.086 C 
HETATM   27  C   UNL     1      40.830 -10.766   3.905  1.00  0.00     0.025 C 
HETATM   28  C   UNL     1      40.125  -9.601   4.583  1.00  0.00     0.002 C 
HETATM   29  C   UNL     1      39.460 -10.200   5.822  1.00  0.00     0.002 C 
HETATM   30  C   UNL     1      40.113 -11.564   6.057  1.00  0.00     0.025 C 
ENDBRANCH  13  26
BRANCH   1  31
HETATM   31  O   UNL     1      44.578 -22.457   3.982  1.00  0.00    -0.356 OA
HETATM   32  C   UNL     1      45.154 -22.449   5.281  1.00  0.00     0.210 C 
ENDBRANCH   1  31
TORSDOF 3
ENDMDL
MODEL 6
REMARK VINA RESULT:      -8.7      3.874      8.436
REMARK  3 active torsions:
REMARK  status: ('A' for Active; 'I' for Inactive)
REMARK    1  A    between atoms: O_2  and  C_3 
REMARK       I    between atoms: N_13  and  C_14 
REMARK       I    between atoms: C_14  and  N_15 
REMARK    2  A    between atoms: N_15  and  C_16 
REMARK    3  A    between atoms: C_22  and  C_23 
ROOT
HETATM    1  C   UNL     1      44.417 -20.257   4.087  1.00  0.00     0.069 A 
HETATM    2  C   UNL     1      44.066 -19.158   4.882  1.00  0.00     0.051 A 
HETATM    3  C   UNL     1      43.753 -17.926   4.277  1.00  0.00     0.002 A 
HETATM    4  C   UNL     1      43.832 -17.822   2.887  1.00  0.00     0.043 A 
HETATM    5  N   UNL     1      43.464 -16.537   2.549  1.00  0.00    -0.356 N 
HETATM    6  H   UNL     1      43.396 -16.194   1.600  1.00  0.00     0.166 HD
HETATM    7  C   UNL     1      43.092 -15.845   3.673  1.00  0.00     0.045 A 
HETATM    8  C   UNL     1      43.307 -16.669   4.758  1.00  0.00    -0.019 A 
HETATM    9  C   UNL     1      43.000 -16.211   6.132  1.00  0.00     0.061 C 
HETATM   10  C   UNL     1      42.980 -14.677   6.156  1.00  0.00     0.133 C 
HETATM   11  N   UNL     1      42.156 -14.065   5.087  1.00  0.00    -0.320 N 
HETATM   12  C   UNL     1      41.757 -12.757   5.394  1.00  0.00     0.319 C 
HETATM   13  N   UNL     1      40.855 -12.211   4.521  1.00  0.00    -0.338 N 
HETATM   14  O   UNL     1      42.139 -12.164   6.399  1.00  0.00    -0.247 OA
HETATM   15  C   UNL     1      42.491 -14.458   3.680  1.00  0.00     0.172 C 
HETATM   16  C   UNL     1      44.212 -18.896   2.077  1.00  0.00     0.033 A 
HETATM   17  C   UNL     1      44.500 -20.118   2.701  1.00  0.00     0.039 A 
HETATM   18  H   UNL     1      40.255 -12.905   4.104  1.00  0.00     0.164 HD
ENDROOT
BRANCH  15  19
HETATM   19  C   UNL     1      41.307 -14.435   2.714  1.00  0.00    -0.029 A 
HETATM   20  C   UNL     1      41.373 -13.670   1.535  1.00  0.00     0.012 A 
HETATM   21  C   UNL     1      40.298 -13.651   0.644  1.00  0.00     0.043 A 
HETATM   22  C   UNL     1      39.161 -14.399   0.925  1.00  0.00     0.116 A 
HETATM   23  F   UNL     1      38.133 -14.380   0.066  1.00  0.00    -0.206 F 
HETATM   24  C   UNL     1      39.075 -15.167   2.079  1.00  0.00     0.043 A 
HETATM   25  C   UNL     1      40.145 -15.186   2.974  1.00  0.00     0.012 A 
ENDBRANCH  15  19
BRANCH  13  26
HETATM   26  C   UNL     1      40.193 -10.935   4.718  1.00  0.00     0.086 C 
HETATM   27  C   UNL     1      40.796  -9.776   3.931  1.00  0.00     0.025 C 
HETATM   28  C   UNL     1      39.758  -8.678   4.109  1.00  0.00     0.002 C 
HETATM   29  C   UNL     1      38.411  -9.399   4.131  1.00  0.00     0.002 C 
HETATM   30  C   UNL     1      38.707 -10.881   4.375  1.00  0.00     0.025 C 
ENDBRANCH  13  26
BRANCH   1  31
HETATM   31  O   UNL     1      44.664 -21.408   4.787  1.00  0.00    -0.356 OA
HETATM   32  C   UNL     1      44.639 -22.619   4.043  1.00  0.00     0.210 C 
ENDBRANCH   1  31
TORSDOF 3
ENDMDL
MODEL 7
REMARK VINA RESULT:      -8.7      3.366      4.607
REMARK  3 active torsions:
REMARK  status: ('A' for Active; 'I' for Inactive)
REMARK    1  A    between atoms: O_2  and  C_3 
REMARK       I    between atoms: N_13  and  C_14 
REMARK       I    between atoms: C_14  and  N_15 
REMARK    2  A    between atoms: N_15  and  C_16 
REMARK    3  A    between atoms: C_22  and  C_23 
ROOT
HETATM    1  C   UNL     1      38.597 -10.301   4.668  1.00  0.00     0.069 A 
HETATM    2  C   UNL     1      38.890 -11.347   3.784  1.00  0.00     0.051 A 
HETATM    3  C   UNL     1      40.061 -12.110   3.964  1.00  0.00     0.002 A 
HETATM    4  C   UNL     1      40.923 -11.778   5.010  1.00  0.00     0.043 A 
HETATM    5  N   UNL     1      41.970 -12.674   4.981  1.00  0.00    -0.356 N 
HETATM    6  H   UNL     1      42.727 -12.691   5.652  1.00  0.00     0.166 HD
HETATM    7  C   UNL     1      41.765 -13.602   3.991  1.00  0.00     0.045 A 
HETATM    8  C   UNL     1      40.615 -13.244   3.320  1.00  0.00    -0.019 A 
HETATM    9  C   UNL     1      40.117 -14.053   2.184  1.00  0.00     0.061 C 
HETATM   10  C   UNL     1      41.276 -14.878   1.609  1.00  0.00     0.133 C 
HETATM   11  N   UNL     1      42.049 -15.628   2.628  1.00  0.00    -0.320 N 
HETATM   12  C   UNL     1      42.753 -16.710   2.084  1.00  0.00     0.319 C 
HETATM   13  N   UNL     1      43.343 -17.534   3.004  1.00  0.00    -0.338 N 
HETATM   14  O   UNL     1      42.791 -16.939   0.878  1.00  0.00    -0.247 OA
HETATM   15  C   UNL     1      42.625 -14.822   3.753  1.00  0.00     0.172 C 
HETATM   16  C   UNL     1      40.666 -10.717   5.884  1.00  0.00     0.033 A 
HETATM   17  C   UNL     1      39.485  -9.986   5.697  1.00  0.00     0.039 A 
HETATM   18  H   UNL     1      42.833 -17.567   3.873  1.00  0.00     0.164 HD
ENDROOT
BRANCH  15  19
HETATM   19  C   UNL     1      42.768 -15.582   5.071  1.00  0.00    -0.029 A 
HETATM   20  C   UNL     1      43.992 -15.566   5.766  1.00  0.00     0.012 A 
HETATM   21  C   UNL     1      44.126 -16.250   6.975  1.00  0.00     0.043 A 
HETATM   22  C   UNL     1      43.041 -16.946   7.495  1.00  0.00     0.116 A 
HETATM   23  F   UNL     1      43.175 -17.601   8.656  1.00  0.00    -0.206 F 
HETATM   24  C   UNL     1      41.822 -16.973   6.830  1.00  0.00     0.043 A 
HETATM   25  C   UNL     1      41.683 -16.292   5.620  1.00  0.00     0.012 A 
ENDBRANCH  15  19
BRANCH  13  26
HETATM   26  C   UNL     1      43.993 -18.790   2.681  1.00  0.00     0.086 C 
HETATM   27  C   UNL     1      44.549 -19.548   3.883  1.00  0.00     0.025 C 
HETATM   28  C   UNL     1      44.900 -20.903   3.289  1.00  0.00     0.002 C 
HETATM   29  C   UNL     1      43.828 -21.168   2.232  1.00  0.00     0.002 C 
HETATM   30  C   UNL     1      43.143 -19.828   1.952  1.00  0.00     0.025 C 
ENDBRANCH  13  26
BRANCH   1  31
HETATM   31  O   UNL     1      37.415  -9.657   4.412  1.00  0.00    -0.356 OA
HETATM   32  C   UNL     1      37.136  -9.365   3.049  1.00  0.00     0.210 C 
ENDBRANCH   1  31
TORSDOF 3
ENDMDL
MODEL 8
REMARK VINA RESULT:      -8.3      4.838      8.121
REMARK  3 active torsions:
REMARK  status: ('A' for Active; 'I' for Inactive)
REMARK    1  A    between atoms: O_2  and  C_3 
REMARK       I    between atoms: N_13  and  C_14 
REMARK       I    between atoms: C_14  and  N_15 
REMARK    2  A    between atoms: N_15  and  C_16 
REMARK    3  A    between atoms: C_22  and  C_23 
ROOT
HETATM    1  C   UNL     1      44.402 -19.906   4.695  1.00  0.00     0.069 A 
HETATM    2  C   UNL     1      44.069 -19.297   3.478  1.00  0.00     0.051 A 
HETATM    3  C   UNL     1      43.034 -18.344   3.430  1.00  0.00     0.002 A 
HETATM    4  C   UNL     1      42.336 -18.052   4.604  1.00  0.00     0.043 A 
HETATM    5  N   UNL     1      41.398 -17.089   4.296  1.00  0.00    -0.356 N 
HETATM    6  H   UNL     1      40.776 -16.663   4.970  1.00  0.00     0.166 HD
HETATM    7  C   UNL     1      41.524 -16.716   2.982  1.00  0.00     0.045 A 
HETATM    8  C   UNL     1      42.497 -17.512   2.416  1.00  0.00    -0.019 A 
HETATM    9  C   UNL     1      42.871 -17.356   0.992  1.00  0.00     0.061 C 
HETATM   10  C   UNL     1      41.722 -16.668   0.244  1.00  0.00     0.133 C 
HETATM   11  N   UNL     1      41.219 -15.439   0.903  1.00  0.00    -0.320 N 
HETATM   12  C   UNL     1      40.548 -14.586   0.018  1.00  0.00     0.319 C 
HETATM   13  N   UNL     1      40.215 -13.364   0.536  1.00  0.00    -0.338 N 
HETATM   14  O   UNL     1      40.325 -14.885  -1.153  1.00  0.00    -0.247 OA
HETATM   15  C   UNL     1      40.767 -15.584   2.325  1.00  0.00     0.172 C 
HETATM   16  C   UNL     1      42.630 -18.671   5.823  1.00  0.00     0.033 A 
HETATM   17  C   UNL     1      43.678 -19.601   5.849  1.00  0.00     0.039 A 
HETATM   18  H   UNL     1      40.868 -13.054   1.238  1.00  0.00     0.164 HD
ENDROOT
BRANCH  15  19
HETATM   19  C   UNL     1      40.935 -14.327   3.177  1.00  0.00    -0.029 A 
HETATM   20  C   UNL     1      39.816 -13.741   3.799  1.00  0.00     0.012 A 
HETATM   21  C   UNL     1      39.964 -12.598   4.585  1.00  0.00     0.043 A 
HETATM   22  C   UNL     1      41.225 -12.040   4.757  1.00  0.00     0.116 A 
HETATM   23  F   UNL     1      41.362 -10.944   5.514  1.00  0.00    -0.206 F 
HETATM   24  C   UNL     1      42.345 -12.603   4.158  1.00  0.00     0.043 A 
HETATM   25  C   UNL     1      42.202 -13.745   3.369  1.00  0.00     0.012 A 
ENDBRANCH  15  19
BRANCH  13  26
HETATM   26  C   UNL     1      39.653 -12.272  -0.235  1.00  0.00     0.086 C 
HETATM   27  C   UNL     1      38.128 -12.242  -0.280  1.00  0.00     0.025 C 
HETATM   28  C   UNL     1      37.841 -10.880  -0.894  1.00  0.00     0.002 C 
HETATM   29  C   UNL     1      38.935  -9.958  -0.356  1.00  0.00     0.002 C 
HETATM   30  C   UNL     1      40.037 -10.861   0.204  1.00  0.00     0.025 C 
ENDBRANCH  13  26
BRANCH   1  31
HETATM   31  O   UNL     1      45.448 -20.787   4.622  1.00  0.00    -0.356 OA
HETATM   32  C   UNL     1      45.179 -22.123   5.024  1.00  0.00     0.210 C 
ENDBRANCH   1  31
TORSDOF 3
ENDMDL
MODEL 9
REMARK VINA RESULT:      -8.2      4.153      8.395
REMARK  3 active torsions:
REMARK  status: ('A' for Active; 'I' for Inactive)
REMARK    1  A    between atoms: O_2  and  C_3 
REMARK       I    between atoms: N_13  and  C_14 
REMARK       I    between atoms: C_14  and  N_15 
REMARK    2  A    between atoms: N_15  and  C_16 
REMARK    3  A    between atoms: C_22  and  C_23 
ROOT
HETATM    1  C   UNL     1      39.797 -13.611  -2.616  1.00  0.00     0.069 A 
HETATM    2  C   UNL     1      40.209 -14.755  -1.920  1.00  0.00     0.051 A 
HETATM    3  C   UNL     1      40.932 -14.622  -0.719  1.00  0.00     0.002 A 
HETATM    4  C   UNL     1      41.251 -13.341  -0.265  1.00  0.00     0.043 A 
HETATM    5  N   UNL     1      41.936 -13.484   0.922  1.00  0.00    -0.356 N 
HETATM    6  H   UNL     1      42.258 -12.712   1.492  1.00  0.00     0.166 HD
HETATM    7  C   UNL     1      42.003 -14.809   1.268  1.00  0.00     0.045 A 
HETATM    8  C   UNL     1      41.430 -15.534   0.245  1.00  0.00    -0.019 A 
HETATM    9  C   UNL     1      41.347 -17.011   0.316  1.00  0.00     0.061 C 
HETATM   10  C   UNL     1      42.401 -17.527   1.304  1.00  0.00     0.133 C 
HETATM   11  N   UNL     1      42.396 -16.830   2.613  1.00  0.00    -0.320 N 
HETATM   12  C   UNL     1      42.987 -17.589   3.632  1.00  0.00     0.319 C 
HETATM   13  N   UNL     1      42.855 -17.066   4.889  1.00  0.00    -0.338 N 
HETATM   14  O   UNL     1      43.532 -18.670   3.424  1.00  0.00    -0.247 OA
HETATM   15  C   UNL     1      42.550 -15.339   2.574  1.00  0.00     0.172 C 
HETATM   16  C   UNL     1      40.878 -12.187  -0.961  1.00  0.00     0.033 A 
HETATM   17  C   UNL     1      40.142 -12.344  -2.143  1.00  0.00     0.039 A 
HETATM   18  H   UNL     1      42.006 -16.534   4.997  1.00  0.00     0.164 HD
ENDROOT
BRANCH  15  19
HETATM   19  C   UNL     1      41.866 -14.600   3.724  1.00  0.00    -0.029 A 
HETATM   20  C   UNL     1      42.600 -13.699   4.519  1.00  0.00     0.012 A 
HETATM   21  C   UNL     1      41.980 -13.014   5.565  1.00  0.00     0.043 A 
HETATM   22  C   UNL     1      40.628 -13.221   5.815  1.00  0.00     0.116 A 
HETATM   23  F   UNL     1      40.037 -12.560   6.819  1.00  0.00    -0.206 F 
HETATM   24  C   UNL     1      39.882 -14.100   5.041  1.00  0.00     0.043 A 
HETATM   25  C   UNL     1      40.498 -14.789   3.996  1.00  0.00     0.012 A 
ENDBRANCH  15  19
BRANCH  13  26
HETATM   26  C   UNL     1      43.254 -17.747   6.106  1.00  0.00     0.086 C 
HETATM   27  C   UNL     1      44.756 -17.749   6.373  1.00  0.00     0.025 C 
HETATM   28  C   UNL     1      44.840 -18.262   7.802  1.00  0.00     0.002 C 
HETATM   29  C   UNL     1      43.607 -17.693   8.506  1.00  0.00     0.002 C 
HETATM   30  C   UNL     1      42.650 -17.224   7.407  1.00  0.00     0.025 C 
ENDBRANCH  13  26
BRANCH   1  31
HETATM   31  O   UNL     1      39.070 -13.867  -3.748  1.00  0.00    -0.356 OA
HETATM   32  C   UNL     1      38.456 -15.147  -3.830  1.00  0.00     0.210 C 
ENDBRANCH   1  31
TORSDOF 3
ENDMDL
MODEL 10
REMARK VINA RESULT:      -8.0      2.891      8.519
REMARK  3 active torsions:
REMARK  status: ('A' for Active; 'I' for Inactive)
REMARK    1  A    between atoms: O_2  and  C_3 
REMARK       I    between atoms: N_13  and  C_14 
REMARK       I    between atoms: C_14  and  N_15 
REMARK    2  A    between atoms: N_15  and  C_16 
REMARK    3  A    between atoms: C_22  and  C_23 
ROOT
HETATM    1  C   UNL     1      43.563 -19.203   2.894  1.00  0.00     0.069 A 
HETATM    2  C   UNL     1      43.840 -18.521   4.087  1.00  0.00     0.051 A 
HETATM    3  C   UNL     1      43.676 -17.124   4.150  1.00  0.00     0.002 A 
HETATM    4  C   UNL     1      43.269 -16.443   3.001  1.00  0.00     0.043 A 
HETATM    5  N   UNL     1      43.169 -15.107   3.327  1.00  0.00    -0.356 N 
HETATM    6  H   UNL     1      42.856 -14.386   2.691  1.00  0.00     0.166 HD
HETATM    7  C   UNL     1      43.434 -14.930   4.661  1.00  0.00     0.045 A 
HETATM    8  C   UNL     1      43.796 -16.156   5.178  1.00  0.00    -0.019 A 
HETATM    9  C   UNL     1      44.148 -16.302   6.610  1.00  0.00     0.061 C 
HETATM   10  C   UNL     1      44.557 -14.933   7.168  1.00  0.00     0.133 C 
HETATM   11  N   UNL     1      43.601 -13.843   6.860  1.00  0.00    -0.320 N 
HETATM   12  C   UNL     1      43.713 -12.760   7.742  1.00  0.00     0.319 C 
HETATM   13  N   UNL     1      42.741 -11.805   7.608  1.00  0.00    -0.338 N 
HETATM   14  O   UNL     1      44.581 -12.696   8.608  1.00  0.00    -0.247 OA
HETATM   15  C   UNL     1      43.280 -13.627   5.411  1.00  0.00     0.172 C 
HETATM   16  C   UNL     1      43.020 -17.099   1.791  1.00  0.00     0.033 A 
HETATM   17  C   UNL     1      43.170 -18.493   1.759  1.00  0.00     0.039 A 
HETATM   18  H   UNL     1      41.866 -12.190   7.290  1.00  0.00     0.164 HD
ENDROOT
BRANCH  15  19
HETATM   19  C   UNL     1      41.880 -13.075   5.146  1.00  0.00    -0.029 A 
HETATM   20  C   UNL     1      40.750 -13.743   5.655  1.00  0.00     0.012 A 
HETATM   21  C   UNL     1      39.469 -13.239   5.423  1.00  0.00     0.043 A 
HETATM   22  C   UNL     1      39.313 -12.069   4.690  1.00  0.00     0.116 A 
HETATM   23  F   UNL     1      38.082 -11.589   4.472  1.00  0.00    -0.206 F 
HETATM   24  C   UNL     1      40.413 -11.390   4.182  1.00  0.00     0.043 A 
HETATM   25  C   UNL     1      41.695 -11.890   4.408  1.00  0.00     0.012 A 
ENDBRANCH  15  19
BRANCH  13  26
HETATM   26  C   UNL     1      42.571 -10.678   8.504  1.00  0.00     0.086 C 
HETATM   27  C   UNL     1      41.457  -9.713   8.111  1.00  0.00     0.025 C 
HETATM   28  C   UNL     1      41.333  -8.828   9.342  1.00  0.00     0.002 C 
HETATM   29  C   UNL     1      41.611  -9.750  10.529  1.00  0.00     0.002 C 
HETATM   30  C   UNL     1      42.274 -11.009   9.965  1.00  0.00     0.025 C 
ENDBRANCH  13  26
BRANCH   1  31
HETATM   31  O   UNL     1      43.724 -20.561   2.967  1.00  0.00    -0.356 OA
HETATM   32  C   UNL     1      43.622 -21.276   1.743  1.00  0.00     0.210 C 
ENDBRANCH   1  31
TORSDOF 3
ENDMDL
