MODEL 1
REMARK VINA RESULT:      -8.5      0.000      0.000
REMARK  5 active torsions:
REMARK  status: ('A' for Active; 'I' for Inactive)
REMARK    1  A    between atoms: C_2  and  C_3 
REMARK    2  A    between atoms: C_7  and  C_8 
REMARK    3  A    between atoms: C_11  and  C_12 
REMARK       I    between atoms: C_12  and  N_13 
REMARK    4  A    between atoms: N_13  and  C_14 
REMARK    5  A    between atoms: C_17  and  N_18 
REMARK       I    between atoms: N_18  and  C_19 
ROOT
HETATM    1  C   UNL     1      41.576 -16.535   1.585  1.00  0.00     0.010 A 
HETATM    2  C   UNL     1      40.563 -15.656   1.995  1.00  0.00     0.016 A 
HETATM    3  C   UNL     1      39.933 -14.809   1.073  1.00  0.00     0.018 A 
HETATM    4  C   UNL     1      40.319 -14.834  -0.271  1.00  0.00     0.032 A 
HETATM    5  C   UNL     1      41.311 -15.734  -0.687  1.00  0.00     0.018 A 
HETATM    6  C   UNL     1      41.936 -16.582   0.233  1.00  0.00     0.016 A 
ENDROOT
BRANCH   4   7
HETATM    7  C   UNL     1      39.698 -13.958  -1.308  1.00  0.00     0.256 C 
HETATM    8  N   UNL     1      38.487 -14.398  -1.813  1.00  0.00    -0.323 N 
HETATM    9  H   UNL     1      38.104 -15.249  -1.427  1.00  0.00     0.169 HD
HETATM   10  O   UNL     1      40.276 -12.914  -1.590  1.00  0.00    -0.267 OA
BRANCH   8  11
HETATM   11  C   UNL     1      37.650 -13.717  -2.725  1.00  0.00     0.035 A 
HETATM   12  C   UNL     1      37.265 -12.385  -2.590  1.00  0.00     0.032 A 
HETATM   13  C   UNL     1      36.380 -11.795  -3.506  1.00  0.00     0.032 A 
HETATM   14  C   UNL     1      35.871 -12.526  -4.576  1.00  0.00     0.034 A 
HETATM   15  C   UNL     1      36.282 -13.855  -4.732  1.00  0.00     0.032 A 
HETATM   16  C   UNL     1      37.163 -14.444  -3.816  1.00  0.00     0.032 A 
BRANCH  14  17
HETATM   17  N   UNL     1      34.942 -12.022  -5.509  1.00  0.00    -0.328 N 
HETATM   18  C   UNL     1      33.566 -12.164  -5.486  1.00  0.00     0.218 C 
HETATM   19  C   UNL     1      32.904 -11.549  -6.695  1.00  0.00     0.117 C 
HETATM   20  O   UNL     1      32.892 -12.693  -4.611  1.00  0.00    -0.274 OA
HETATM   21  H   UNL     1      35.334 -11.517  -6.294  1.00  0.00     0.169 HD
ENDBRANCH  14  17
ENDBRANCH   8  11
ENDBRANCH   4   7
BRANCH   1  22
HETATM   22  C   UNL     1      42.208 -17.429   2.599  1.00  0.00     0.142 A 
HETATM   23  N   UNL     1      42.871 -18.481   2.222  1.00  0.00    -0.222 NA
HETATM   24  C   UNL     1      43.421 -19.210   3.229  1.00  0.00     0.116 A 
HETATM   25  C   UNL     1      43.334 -18.956   4.581  1.00  0.00     0.075 A 
HETATM   26  S   UNL     1      44.346 -20.600   2.909  1.00  0.00    -0.074 SA
HETATM   27  C   UNL     1      44.055 -19.914   5.381  1.00  0.00    -0.027 A 
HETATM   28  C   UNL     1      42.562 -17.797   4.983  1.00  0.00     0.260 A 
HETATM   29  C   UNL     1      44.660 -20.868   4.571  1.00  0.00    -0.012 A 
HETATM   30  C   UNL     1      45.504 -22.030   4.981  1.00  0.00     0.057 C 
HETATM   31  N   UNL     1      42.036 -17.083   3.930  1.00  0.00    -0.307 N 
HETATM   32  O   UNL     1      42.369 -17.453   6.145  1.00  0.00    -0.267 OA
HETATM   33  H   UNL     1      41.468 -16.300   4.210  1.00  0.00     0.170 HD
BRANCH  27  34
HETATM   34  C   UNL     1      44.151 -19.879   6.883  1.00  0.00     0.036 C 
HETATM   35  C   UNL     1      43.421 -21.044   7.535  1.00  0.00     0.010 C 
ENDBRANCH  27  34
ENDBRANCH   1  22
TORSDOF 5
ENDMDL
MODEL 2
REMARK VINA RESULT:      -8.3      3.519     12.673
REMARK  5 active torsions:
REMARK  status: ('A' for Active; 'I' for Inactive)
REMARK    1  A    between atoms: C_2  and  C_3 
REMARK    2  A    between atoms: C_7  and  C_8 
REMARK    3  A    between atoms: C_11  and  C_12 
REMARK       I    between atoms: C_12  and  N_13 
REMARK    4  A    between atoms: N_13  and  C_14 
REMARK    5  A    between atoms: C_17  and  N_18 
REMARK       I    between atoms: N_18  and  C_19 
ROOT
HETATM    1  C   UNL     1      38.228 -13.543  -2.924  1.00  0.00     0.010 A 
HETATM    2  C   UNL     1      39.366 -14.235  -3.365  1.00  0.00     0.016 A 
HETATM    3  C   UNL     1      40.316 -14.707  -2.448  1.00  0.00     0.018 A 
HETATM    4  C   UNL     1      40.133 -14.483  -1.080  1.00  0.00     0.032 A 
HETATM    5  C   UNL     1      38.981 -13.818  -0.637  1.00  0.00     0.018 A 
HETATM    6  C   UNL     1      38.031 -13.352  -1.552  1.00  0.00     0.016 A 
ENDROOT
BRANCH   4   7
HETATM    7  C   UNL     1      41.105 -14.951  -0.047  1.00  0.00     0.256 C 
HETATM    8  N   UNL     1      41.059 -16.302   0.245  1.00  0.00    -0.323 N 
HETATM    9  H   UNL     1      40.405 -16.869  -0.275  1.00  0.00     0.169 HD
HETATM   10  O   UNL     1      41.883 -14.125   0.416  1.00  0.00    -0.267 OA
BRANCH   8  11
HETATM   11  C   UNL     1      41.925 -17.014   1.106  1.00  0.00     0.035 A 
HETATM   12  C   UNL     1      43.216 -17.412   0.764  1.00  0.00     0.032 A 
HETATM   13  C   UNL     1      43.993 -18.170   1.653  1.00  0.00     0.032 A 
HETATM   14  C   UNL     1      43.496 -18.538   2.901  1.00  0.00     0.034 A 
HETATM   15  C   UNL     1      42.212 -18.111   3.259  1.00  0.00     0.032 A 
HETATM   16  C   UNL     1      41.434 -17.357   2.370  1.00  0.00     0.032 A 
BRANCH  14  17
HETATM   17  N   UNL     1      44.194 -19.338   3.828  1.00  0.00    -0.328 N 
HETATM   18  C   UNL     1      44.532 -20.672   3.700  1.00  0.00     0.218 C 
HETATM   19  C   UNL     1      45.216 -21.214   4.931  1.00  0.00     0.117 C 
HETATM   20  O   UNL     1      44.350 -21.391   2.724  1.00  0.00    -0.274 OA
HETATM   21  H   UNL     1      44.458 -18.883   4.693  1.00  0.00     0.169 HD
ENDBRANCH  14  17
ENDBRANCH   8  11
ENDBRANCH   4   7
BRANCH   1  22
HETATM   22  C   UNL     1      37.235 -13.072  -3.935  1.00  0.00     0.142 A 
HETATM   23  N   UNL     1      37.023 -11.800  -4.100  1.00  0.00    -0.222 NA
HETATM   24  C   UNL     1      36.114 -11.486  -5.060  1.00  0.00     0.116 A 
HETATM   25  C   UNL     1      35.401 -12.363  -5.848  1.00  0.00     0.075 A 
HETATM   26  S   UNL     1      35.740  -9.868  -5.425  1.00  0.00    -0.074 SA
HETATM   27  C   UNL     1      34.534 -11.699  -6.789  1.00  0.00    -0.027 A 
HETATM   28  C   UNL     1      35.627 -13.777  -5.625  1.00  0.00     0.260 A 
HETATM   29  C   UNL     1      34.638 -10.319  -6.655  1.00  0.00    -0.012 A 
HETATM   30  C   UNL     1      33.928  -9.258  -7.430  1.00  0.00     0.057 C 
HETATM   31  N   UNL     1      36.564 -14.047  -4.654  1.00  0.00    -0.307 N 
HETATM   32  O   UNL     1      35.053 -14.682  -6.225  1.00  0.00    -0.267 OA
HETATM   33  H   UNL     1      36.694 -15.030  -4.473  1.00  0.00     0.170 HD
BRANCH  27  34
HETATM   34  C   UNL     1      33.651 -12.400  -7.786  1.00  0.00     0.036 C 
HETATM   35  C   UNL     1      34.357 -12.641  -9.112  1.00  0.00     0.010 C 
ENDBRANCH  27  34
ENDBRANCH   1  22
TORSDOF 5
ENDMDL
MODEL 3
REMARK VINA RESULT:      -8.3      1.552      2.252
REMARK  5 active torsions:
REMARK  status: ('A' for Active; 'I' for Inactive)
REMARK    1  A    between atoms: C_2  and  C_3 
REMARK    2  A    between atoms: C_7  and  C_8 
REMARK    3  A    between atoms: C_11  and  C_12 
REMARK       I    between atoms: C_12  and  N_13 
REMARK    4  A    between atoms: N_13  and  C_14 
REMARK    5  A    between atoms: C_17  and  N_18 
REMARK       I    between atoms: N_18  and  C_19 
ROOT
HETATM    1  C   UNL     1      41.503 -16.124   1.476  1.00  0.00     0.010 A 
HETATM    2  C   UNL     1      41.852 -16.614   0.208  1.00  0.00     0.016 A 
HETATM    3  C   UNL     1      41.327 -16.030  -0.953  1.00  0.00     0.018 A 
HETATM    4  C   UNL     1      40.443 -14.952  -0.852  1.00  0.00     0.032 A 
HETATM    5  C   UNL     1      40.118 -14.443   0.413  1.00  0.00     0.018 A 
HETATM    6  C   UNL     1      40.645 -15.022   1.572  1.00  0.00     0.016 A 
ENDROOT
BRANCH   4   7
HETATM    7  C   UNL     1      39.841 -14.285  -2.045  1.00  0.00     0.256 C 
HETATM    8  N   UNL     1      38.461 -14.343  -2.128  1.00  0.00    -0.323 N 
HETATM    9  H   UNL     1      37.969 -14.796  -1.372  1.00  0.00     0.169 HD
HETATM   10  O   UNL     1      40.600 -13.710  -2.816  1.00  0.00    -0.267 OA
BRANCH   8  11
HETATM   11  C   UNL     1      37.643 -13.718  -3.095  1.00  0.00     0.035 A 
HETATM   12  C   UNL     1      37.468 -12.339  -3.201  1.00  0.00     0.032 A 
HETATM   13  C   UNL     1      36.589 -11.796  -4.150  1.00  0.00     0.032 A 
HETATM   14  C   UNL     1      35.874 -12.622  -5.014  1.00  0.00     0.034 A 
HETATM   15  C   UNL     1      36.072 -14.005  -4.931  1.00  0.00     0.032 A 
HETATM   16  C   UNL     1      36.948 -14.547  -3.982  1.00  0.00     0.032 A 
BRANCH  14  17
HETATM   17  N   UNL     1      34.937 -12.157  -5.959  1.00  0.00    -0.328 N 
HETATM   18  C   UNL     1      33.558 -12.184  -5.859  1.00  0.00     0.218 C 
HETATM   19  C   UNL     1      32.880 -11.664  -7.104  1.00  0.00     0.117 C 
HETATM   20  O   UNL     1      32.894 -12.551  -4.898  1.00  0.00    -0.274 OA
HETATM   21  H   UNL     1      35.324 -11.782  -6.816  1.00  0.00     0.169 HD
ENDBRANCH  14  17
ENDBRANCH   8  11
ENDBRANCH   4   7
BRANCH   1  22
HETATM   22  C   UNL     1      42.097 -16.766   2.685  1.00  0.00     0.142 A 
HETATM   23  N   UNL     1      42.022 -16.179   3.842  1.00  0.00    -0.222 NA
HETATM   24  C   UNL     1      42.579 -16.864   4.875  1.00  0.00     0.116 A 
HETATM   25  C   UNL     1      43.214 -18.086   4.815  1.00  0.00     0.075 A 
HETATM   26  S   UNL     1      42.541 -16.253   6.461  1.00  0.00    -0.074 SA
HETATM   27  C   UNL     1      43.670 -18.547   6.102  1.00  0.00    -0.027 A 
HETATM   28  C   UNL     1      43.316 -18.709   3.511  1.00  0.00     0.260 A 
HETATM   29  C   UNL     1      43.353 -17.623   7.091  1.00  0.00    -0.012 A 
HETATM   30  C   UNL     1      43.632 -17.702   8.557  1.00  0.00     0.057 C 
HETATM   31  N   UNL     1      42.727 -17.986   2.498  1.00  0.00    -0.307 N 
HETATM   32  O   UNL     1      43.872 -19.780   3.287  1.00  0.00    -0.267 OA
HETATM   33  H   UNL     1      42.832 -18.400   1.586  1.00  0.00     0.170 HD
BRANCH  27  34
HETATM   34  C   UNL     1      44.380 -19.852   6.344  1.00  0.00     0.036 C 
HETATM   35  C   UNL     1      43.477 -20.888   6.998  1.00  0.00     0.010 C 
ENDBRANCH  27  34
ENDBRANCH   1  22
TORSDOF 5
ENDMDL
MODEL 4
REMARK VINA RESULT:      -7.9      7.686     12.781
REMARK  5 active torsions:
REMARK  status: ('A' for Active; 'I' for Inactive)
REMARK    1  A    between atoms: C_2  and  C_3 
REMARK    2  A    between atoms: C_7  and  C_8 
REMARK    3  A    between atoms: C_11  and  C_12 
REMARK       I    between atoms: C_12  and  N_13 
REMARK    4  A    between atoms: N_13  and  C_14 
REMARK    5  A    between atoms: C_17  and  N_18 
REMARK       I    between atoms: N_18  and  C_19 
ROOT
HETATM    1  C   UNL     1      40.796 -11.941   3.767  1.00  0.00     0.010 A 
HETATM    2  C   UNL     1      41.157 -10.665   4.225  1.00  0.00     0.016 A 
HETATM    3  C   UNL     1      40.880 -10.272   5.542  1.00  0.00     0.018 A 
HETATM    4  C   UNL     1      40.234 -11.158   6.411  1.00  0.00     0.032 A 
HETATM    5  C   UNL     1      39.901 -12.444   5.963  1.00  0.00     0.018 A 
HETATM    6  C   UNL     1      40.181 -12.836   4.650  1.00  0.00     0.016 A 
ENDROOT
BRANCH   4   7
HETATM    7  C   UNL     1      39.903 -10.807   7.823  1.00  0.00     0.256 C 
HETATM    8  N   UNL     1      40.956 -10.879   8.718  1.00  0.00    -0.323 N 
HETATM    9  H   UNL     1      41.862 -11.128   8.350  1.00  0.00     0.169 HD
HETATM   10  O   UNL     1      38.757 -10.444   8.065  1.00  0.00    -0.267 OA
BRANCH   8  11
HETATM   11  C   UNL     1      40.936 -10.511  10.082  1.00  0.00     0.035 A 
HETATM   12  C   UNL     1      40.376 -11.286  11.095  1.00  0.00     0.032 A 
HETATM   13  C   UNL     1      40.342 -10.823  12.420  1.00  0.00     0.032 A 
HETATM   14  C   UNL     1      40.872  -9.580  12.755  1.00  0.00     0.034 A 
HETATM   15  C   UNL     1      41.464  -8.814  11.744  1.00  0.00     0.032 A 
HETATM   16  C   UNL     1      41.496  -9.274  10.422  1.00  0.00     0.032 A 
BRANCH  14  17
HETATM   17  N   UNL     1      40.832  -9.024  14.049  1.00  0.00    -0.328 N 
HETATM   18  C   UNL     1      41.835  -9.039  15.002  1.00  0.00     0.218 C 
HETATM   19  C   UNL     1      41.402  -8.407  16.303  1.00  0.00     0.117 C 
HETATM   20  O   UNL     1      42.972  -9.475  14.872  1.00  0.00    -0.274 OA
HETATM   21  H   UNL     1      39.959  -8.584  14.314  1.00  0.00     0.169 HD
ENDBRANCH  14  17
ENDBRANCH   8  11
ENDBRANCH   4   7
BRANCH   1  22
HETATM   22  C   UNL     1      41.123 -12.321   2.362  1.00  0.00     0.142 A 
HETATM   23  N   UNL     1      40.638 -13.413   1.849  1.00  0.00    -0.222 NA
HETATM   24  C   UNL     1      40.986 -13.648   0.556  1.00  0.00     0.116 A 
HETATM   25  C   UNL     1      41.795 -12.869  -0.242  1.00  0.00     0.075 A 
HETATM   26  S   UNL     1      40.413 -15.016  -0.276  1.00  0.00    -0.074 SA
HETATM   27  C   UNL     1      41.942 -13.392  -1.577  1.00  0.00    -0.027 A 
HETATM   28  C   UNL     1      42.353 -11.673   0.359  1.00  0.00     0.260 A 
HETATM   29  C   UNL     1      41.222 -14.572  -1.719  1.00  0.00    -0.012 A 
HETATM   30  C   UNL     1      41.090 -15.437  -2.930  1.00  0.00     0.057 C 
HETATM   31  N   UNL     1      41.963 -11.469   1.664  1.00  0.00    -0.307 N 
HETATM   32  O   UNL     1      43.110 -10.892  -0.209  1.00  0.00    -0.267 OA
HETATM   33  H   UNL     1      42.381 -10.659   2.093  1.00  0.00     0.170 HD
BRANCH  27  34
HETATM   34  C   UNL     1      42.752 -12.744  -2.668  1.00  0.00     0.036 C 
HETATM   35  C   UNL     1      41.923 -11.784  -3.508  1.00  0.00     0.010 C 
ENDBRANCH  27  34
ENDBRANCH   1  22
TORSDOF 5
ENDMDL
MODEL 5
REMARK VINA RESULT:      -7.9      3.021      3.578
REMARK  5 active torsions:
REMARK  status: ('A' for Active; 'I' for Inactive)
REMARK    1  A    between atoms: C_2  and  C_3 
REMARK    2  A    between atoms: C_7  and  C_8 
REMARK    3  A    between atoms: C_11  and  C_12 
REMARK       I    between atoms: C_12  and  N_13 
REMARK    4  A    between atoms: N_13  and  C_14 
REMARK    5  A    between atoms: C_17  and  N_18 
REMARK       I    between atoms: N_18  and  C_19 
ROOT
HETATM    1  C   UNL     1      39.982 -14.814   2.931  1.00  0.00     0.010 A 
HETATM    2  C   UNL     1      39.061 -15.126   1.920  1.00  0.00     0.016 A 
HETATM    3  C   UNL     1      38.243 -14.132   1.367  1.00  0.00     0.018 A 
HETATM    4  C   UNL     1      38.337 -12.815   1.829  1.00  0.00     0.032 A 
HETATM    5  C   UNL     1      39.279 -12.498   2.819  1.00  0.00     0.018 A 
HETATM    6  C   UNL     1      40.099 -13.489   3.367  1.00  0.00     0.016 A 
ENDROOT
BRANCH   4   7
HETATM    7  C   UNL     1      37.494 -11.707   1.291  1.00  0.00     0.256 C 
HETATM    8  N   UNL     1      36.366 -12.100   0.595  1.00  0.00    -0.323 N 
HETATM    9  H   UNL     1      36.180 -13.090   0.531  1.00  0.00     0.169 HD
HETATM   10  O   UNL     1      37.839 -10.558   1.545  1.00  0.00    -0.267 OA
BRANCH   8  11
HETATM   11  C   UNL     1      35.357 -11.260   0.070  1.00  0.00     0.035 A 
HETATM   12  C   UNL     1      34.263 -10.799   0.799  1.00  0.00     0.032 A 
HETATM   13  C   UNL     1      33.270 -10.018   0.189  1.00  0.00     0.032 A 
HETATM   14  C   UNL     1      33.358  -9.678  -1.159  1.00  0.00     0.034 A 
HETATM   15  C   UNL     1      34.472 -10.113  -1.885  1.00  0.00     0.032 A 
HETATM   16  C   UNL     1      35.462 -10.896  -1.277  1.00  0.00     0.032 A 
BRANCH  14  17
HETATM   17  N   UNL     1      32.379  -8.940  -1.855  1.00  0.00    -0.328 N 
HETATM   18  C   UNL     1      31.255  -9.429  -2.495  1.00  0.00     0.218 C 
HETATM   19  C   UNL     1      30.475  -8.344  -3.198  1.00  0.00     0.117 C 
HETATM   20  O   UNL     1      30.861 -10.588  -2.515  1.00  0.00    -0.274 OA
HETATM   21  H   UNL     1      32.534  -7.941  -1.906  1.00  0.00     0.169 HD
ENDBRANCH  14  17
ENDBRANCH   8  11
ENDBRANCH   4   7
BRANCH   1  22
HETATM   22  C   UNL     1      40.844 -15.902   3.481  1.00  0.00     0.142 A 
HETATM   23  N   UNL     1      41.543 -16.651   2.681  1.00  0.00    -0.222 NA
HETATM   24  C   UNL     1      42.306 -17.595   3.292  1.00  0.00     0.116 A 
HETATM   25  C   UNL     1      42.398 -17.841   4.645  1.00  0.00     0.075 A 
HETATM   26  S   UNL     1      43.304 -18.639   2.395  1.00  0.00    -0.074 SA
HETATM   27  C   UNL     1      43.321 -18.901   4.964  1.00  0.00    -0.027 A 
HETATM   28  C   UNL     1      41.585 -17.017   5.518  1.00  0.00     0.260 A 
HETATM   29  C   UNL     1      43.888 -19.417   3.805  1.00  0.00    -0.012 A 
HETATM   30  C   UNL     1      44.894 -20.514   3.674  1.00  0.00     0.057 C 
HETATM   31  N   UNL     1      40.840 -16.067   4.856  1.00  0.00    -0.307 N 
HETATM   32  O   UNL     1      41.535 -17.128   6.739  1.00  0.00    -0.267 OA
HETATM   33  H   UNL     1      40.246 -15.520   5.459  1.00  0.00     0.170 HD
BRANCH  27  34
HETATM   34  C   UNL     1      43.636 -19.375   6.357  1.00  0.00     0.036 C 
HETATM   35  C   UNL     1      44.714 -18.532   7.023  1.00  0.00     0.010 C 
ENDBRANCH  27  34
ENDBRANCH   1  22
TORSDOF 5
ENDMDL
MODEL 6
REMARK VINA RESULT:      -7.6      8.039      9.435
REMARK  5 active torsions:
REMARK  status: ('A' for Active; 'I' for Inactive)
REMARK    1  A    between atoms: C_2  and  C_3 
REMARK    2  A    between atoms: C_7  and  C_8 
REMARK    3  A    between atoms: C_11  and  C_12 
REMARK       I    between atoms: C_12  and  N_13 
REMARK    4  A    between atoms: N_13  and  C_14 
REMARK    5  A    between atoms: C_17  and  N_18 
REMARK       I    between atoms: N_18  and  C_19 
ROOT
HETATM    1  C   UNL     1      39.781 -10.603   7.705  1.00  0.00     0.010 A 
HETATM    2  C   UNL     1      39.576 -11.937   7.321  1.00  0.00     0.016 A 
HETATM    3  C   UNL     1      39.262 -12.259   5.994  1.00  0.00     0.018 A 
HETATM    4  C   UNL     1      39.144 -11.242   5.040  1.00  0.00     0.032 A 
HETATM    5  C   UNL     1      39.378  -9.913   5.418  1.00  0.00     0.018 A 
HETATM    6  C   UNL     1      39.697  -9.592   6.741  1.00  0.00     0.016 A 
ENDROOT
BRANCH   4   7
HETATM    7  C   UNL     1      38.807 -11.510   3.611  1.00  0.00     0.256 C 
HETATM    8  N   UNL     1      39.486 -12.563   3.025  1.00  0.00    -0.323 N 
HETATM    9  H   UNL     1      40.125 -13.085   3.606  1.00  0.00     0.169 HD
HETATM   10  O   UNL     1      37.937 -10.818   3.094  1.00  0.00    -0.267 OA
BRANCH   8  11
HETATM   11  C   UNL     1      39.288 -13.082   1.726  1.00  0.00     0.035 A 
HETATM   12  C   UNL     1      40.265 -13.106   0.733  1.00  0.00     0.032 A 
HETATM   13  C   UNL     1      39.973 -13.583  -0.554  1.00  0.00     0.032 A 
HETATM   14  C   UNL     1      38.699 -14.051  -0.868  1.00  0.00     0.034 A 
HETATM   15  C   UNL     1      37.725 -14.058   0.136  1.00  0.00     0.032 A 
HETATM   16  C   UNL     1      38.016 -13.579   1.420  1.00  0.00     0.032 A 
BRANCH  14  17
HETATM   17  N   UNL     1      38.314 -14.499  -2.148  1.00  0.00    -0.328 N 
HETATM   18  C   UNL     1      37.558 -13.818  -3.085  1.00  0.00     0.218 C 
HETATM   19  C   UNL     1      37.284 -14.648  -4.316  1.00  0.00     0.117 C 
HETATM   20  O   UNL     1      37.142 -12.669  -3.006  1.00  0.00    -0.274 OA
HETATM   21  H   UNL     1      38.610 -15.435  -2.395  1.00  0.00     0.169 HD
ENDBRANCH  14  17
ENDBRANCH   8  11
ENDBRANCH   4   7
BRANCH   1  22
HETATM   22  C   UNL     1      40.128 -10.308   9.127  1.00  0.00     0.142 A 
HETATM   23  N   UNL     1      39.461  -9.413   9.791  1.00  0.00    -0.222 NA
HETATM   24  C   UNL     1      39.850  -9.242  11.082  1.00  0.00     0.116 A 
HETATM   25  C   UNL     1      40.870  -9.899  11.736  1.00  0.00     0.075 A 
HETATM   26  S   UNL     1      39.063  -8.131  12.101  1.00  0.00    -0.074 SA
HETATM   27  C   UNL     1      41.005  -9.499  13.114  1.00  0.00    -0.027 A 
HETATM   28  C   UNL     1      41.623 -10.870  10.968  1.00  0.00     0.260 A 
HETATM   29  C   UNL     1      40.060  -8.531  13.435  1.00  0.00    -0.012 A 
HETATM   30  C   UNL     1      39.841  -7.849  14.746  1.00  0.00     0.057 C 
HETATM   31  N   UNL     1      41.185 -11.019   9.672  1.00  0.00    -0.307 N 
HETATM   32  O   UNL     1      42.574 -11.517  11.397  1.00  0.00    -0.267 OA
HETATM   33  H   UNL     1      41.733 -11.665   9.127  1.00  0.00     0.170 HD
BRANCH  27  34
HETATM   34  C   UNL     1      42.019 -10.059  14.075  1.00  0.00     0.036 C 
HETATM   35  C   UNL     1      43.330  -9.286  14.046  1.00  0.00     0.010 C 
ENDBRANCH  27  34
ENDBRANCH   1  22
TORSDOF 5
ENDMDL
MODEL 7
REMARK VINA RESULT:      -7.4      7.996      9.560
REMARK  5 active torsions:
REMARK  status: ('A' for Active; 'I' for Inactive)
REMARK    1  A    between atoms: C_2  and  C_3 
REMARK    2  A    between atoms: C_7  and  C_8 
REMARK    3  A    between atoms: C_11  and  C_12 
REMARK       I    between atoms: C_12  and  N_13 
REMARK    4  A    between atoms: N_13  and  C_14 
REMARK    5  A    between atoms: C_17  and  N_18 
REMARK       I    between atoms: N_18  and  C_19 
ROOT
HETATM    1  C   UNL     1      41.531 -10.164   7.187  1.00  0.00     0.010 A 
HETATM    2  C   UNL     1      41.470  -9.133   6.238  1.00  0.00     0.016 A 
HETATM    3  C   UNL     1      41.272  -9.421   4.880  1.00  0.00     0.018 A 
HETATM    4  C   UNL     1      41.139 -10.749   4.463  1.00  0.00     0.032 A 
HETATM    5  C   UNL     1      41.170 -11.777   5.415  1.00  0.00     0.018 A 
HETATM    6  C   UNL     1      41.363 -11.490   6.769  1.00  0.00     0.016 A 
ENDROOT
BRANCH   4   7
HETATM    7  C   UNL     1      40.931 -11.130   3.034  1.00  0.00     0.256 C 
HETATM    8  N   UNL     1      40.702 -12.475   2.803  1.00  0.00    -0.323 N 
HETATM    9  H   UNL     1      40.660 -13.084   3.607  1.00  0.00     0.169 HD
HETATM   10  O   UNL     1      40.934 -10.231   2.201  1.00  0.00    -0.267 OA
BRANCH   8  11
HETATM   11  C   UNL     1      40.384 -13.081   1.567  1.00  0.00     0.035 A 
HETATM   12  C   UNL     1      39.209 -12.842   0.857  1.00  0.00     0.032 A 
HETATM   13  C   UNL     1      38.937 -13.531  -0.336  1.00  0.00     0.032 A 
HETATM   14  C   UNL     1      39.838 -14.464  -0.841  1.00  0.00     0.034 A 
HETATM   15  C   UNL     1      41.033 -14.682  -0.147  1.00  0.00     0.032 A 
HETATM   16  C   UNL     1      41.303 -13.997   1.045  1.00  0.00     0.032 A 
BRANCH  14  17
HETATM   17  N   UNL     1      39.616 -15.231  -2.003  1.00  0.00    -0.328 N 
HETATM   18  C   UNL     1      39.644 -14.795  -3.316  1.00  0.00     0.218 C 
HETATM   19  C   UNL     1      39.284 -15.888  -4.293  1.00  0.00     0.117 C 
HETATM   20  O   UNL     1      39.937 -13.675  -3.717  1.00  0.00    -0.274 OA
HETATM   21  H   UNL     1      39.391 -16.206  -1.853  1.00  0.00     0.169 HD
ENDBRANCH  14  17
ENDBRANCH   8  11
ENDBRANCH   4   7
BRANCH   1  22
HETATM   22  C   UNL     1      41.729  -9.810   8.623  1.00  0.00     0.142 A 
HETATM   23  N   UNL     1      40.930  -8.967   9.206  1.00  0.00    -0.222 NA
HETATM   24  C   UNL     1      41.192  -8.735  10.519  1.00  0.00     0.116 A 
HETATM   25  C   UNL     1      42.208  -9.283  11.273  1.00  0.00     0.075 A 
HETATM   26  S   UNL     1      40.225  -7.683  11.440  1.00  0.00    -0.074 SA
HETATM   27  C   UNL     1      42.190  -8.844  12.646  1.00  0.00    -0.027 A 
HETATM   28  C   UNL     1      43.108 -10.195  10.596  1.00  0.00     0.260 A 
HETATM   29  C   UNL     1      41.137  -7.962  12.861  1.00  0.00    -0.012 A 
HETATM   30  C   UNL     1      40.748  -7.277  14.130  1.00  0.00     0.057 C 
HETATM   31  N   UNL     1      42.796 -10.409   9.273  1.00  0.00    -0.307 N 
HETATM   32  O   UNL     1      44.074 -10.743  11.119  1.00  0.00    -0.267 OA
HETATM   33  H   UNL     1      43.444 -11.013   8.793  1.00  0.00     0.170 HD
BRANCH  27  34
HETATM   34  C   UNL     1      43.165  -9.289  13.702  1.00  0.00     0.036 C 
HETATM   35  C   UNL     1      42.563 -10.318  14.647  1.00  0.00     0.010 C 
ENDBRANCH  27  34
ENDBRANCH   1  22
TORSDOF 5
ENDMDL
MODEL 8
REMARK VINA RESULT:      -7.3      3.409     12.873
REMARK  5 active torsions:
REMARK  status: ('A' for Active; 'I' for Inactive)
REMARK    1  A    between atoms: C_2  and  C_3 
REMARK    2  A    between atoms: C_7  and  C_8 
REMARK    3  A    between atoms: C_11  and  C_12 
REMARK       I    between atoms: C_12  and  N_13 
REMARK    4  A    between atoms: N_13  and  C_14 
REMARK    5  A    between atoms: C_17  and  N_18 
REMARK       I    between atoms: N_18  and  C_19 
ROOT
HETATM    1  C   UNL     1      37.333 -13.453  -3.647  1.00  0.00     0.010 A 
HETATM    2  C   UNL     1      37.692 -12.557  -2.629  1.00  0.00     0.016 A 
HETATM    3  C   UNL     1      38.730 -12.865  -1.739  1.00  0.00     0.018 A 
HETATM    4  C   UNL     1      39.413 -14.079  -1.859  1.00  0.00     0.032 A 
HETATM    5  C   UNL     1      39.075 -14.961  -2.895  1.00  0.00     0.018 A 
HETATM    6  C   UNL     1      38.043 -14.652  -3.786  1.00  0.00     0.016 A 
ENDROOT
BRANCH   4   7
HETATM    7  C   UNL     1      40.524 -14.475  -0.944  1.00  0.00     0.256 C 
HETATM    8  N   UNL     1      40.161 -15.280   0.121  1.00  0.00    -0.323 N 
HETATM    9  H   UNL     1      39.194 -15.562   0.182  1.00  0.00     0.169 HD
HETATM   10  O   UNL     1      41.656 -14.102  -1.230  1.00  0.00    -0.267 OA
BRANCH   8  11
HETATM   11  C   UNL     1      41.024 -15.870   1.072  1.00  0.00     0.035 A 
HETATM   12  C   UNL     1      41.501 -15.218   2.207  1.00  0.00     0.032 A 
HETATM   13  C   UNL     1      42.406 -15.851   3.074  1.00  0.00     0.032 A 
HETATM   14  C   UNL     1      42.843 -17.149   2.823  1.00  0.00     0.034 A 
HETATM   15  C   UNL     1      42.340 -17.817   1.702  1.00  0.00     0.032 A 
HETATM   16  C   UNL     1      41.439 -17.184   0.835  1.00  0.00     0.032 A 
BRANCH  14  17
HETATM   17  N   UNL     1      43.785 -17.835   3.617  1.00  0.00    -0.328 N 
HETATM   18  C   UNL     1      43.568 -18.451   4.835  1.00  0.00     0.218 C 
HETATM   19  C   UNL     1      44.835 -19.021   5.426  1.00  0.00     0.117 C 
HETATM   20  O   UNL     1      42.499 -18.579   5.419  1.00  0.00    -0.274 OA
HETATM   21  H   UNL     1      44.731 -17.857   3.258  1.00  0.00     0.169 HD
ENDBRANCH  14  17
ENDBRANCH   8  11
ENDBRANCH   4   7
BRANCH   1  22
HETATM   22  C   UNL     1      36.232 -13.078  -4.582  1.00  0.00     0.142 A 
HETATM   23  N   UNL     1      35.334 -12.210  -4.221  1.00  0.00    -0.222 NA
HETATM   24  C   UNL     1      34.391 -11.930  -5.159  1.00  0.00     0.116 A 
HETATM   25  C   UNL     1      34.287 -12.474  -6.421  1.00  0.00     0.075 A 
HETATM   26  S   UNL     1      33.162 -10.793  -4.862  1.00  0.00    -0.074 SA
HETATM   27  C   UNL     1      33.181 -11.939  -7.175  1.00  0.00    -0.027 A 
HETATM   28  C   UNL     1      35.277 -13.465  -6.791  1.00  0.00     0.260 A 
HETATM   29  C   UNL     1      32.488 -10.999  -6.422  1.00  0.00    -0.012 A 
HETATM   30  C   UNL     1      31.289 -10.199  -6.815  1.00  0.00     0.057 C 
HETATM   31  N   UNL     1      36.219 -13.706  -5.816  1.00  0.00    -0.307 N 
HETATM   32  O   UNL     1      35.306 -14.060  -7.865  1.00  0.00    -0.267 OA
HETATM   33  H   UNL     1      36.885 -14.423  -6.059  1.00  0.00     0.170 HD
BRANCH  27  34
HETATM   34  C   UNL     1      32.833 -12.334  -8.585  1.00  0.00     0.036 C 
HETATM   35  C   UNL     1      33.540 -11.468  -9.618  1.00  0.00     0.010 C 
ENDBRANCH  27  34
ENDBRANCH   1  22
TORSDOF 5
ENDMDL
MODEL 9
REMARK VINA RESULT:      -7.1      8.896     10.592
REMARK  5 active torsions:
REMARK  status: ('A' for Active; 'I' for Inactive)
REMARK    1  A    between atoms: C_2  and  C_3 
REMARK    2  A    between atoms: C_7  and  C_8 
REMARK    3  A    between atoms: C_11  and  C_12 
REMARK       I    between atoms: C_12  and  N_13 
REMARK    4  A    between atoms: N_13  and  C_14 
REMARK    5  A    between atoms: C_17  and  N_18 
REMARK       I    between atoms: N_18  and  C_19 
ROOT
HETATM    1  C   UNL     1      40.977 -10.569   8.943  1.00  0.00     0.010 A 
HETATM    2  C   UNL     1      42.229 -10.764   8.341  1.00  0.00     0.016 A 
HETATM    3  C   UNL     1      42.328 -11.341   7.067  1.00  0.00     0.018 A 
HETATM    4  C   UNL     1      41.170 -11.732   6.389  1.00  0.00     0.032 A 
HETATM    5  C   UNL     1      39.917 -11.510   6.977  1.00  0.00     0.018 A 
HETATM    6  C   UNL     1      39.818 -10.930   8.246  1.00  0.00     0.016 A 
ENDROOT
BRANCH   4   7
HETATM    7  C   UNL     1      41.199 -12.358   5.033  1.00  0.00     0.256 C 
HETATM    8  N   UNL     1      39.964 -12.665   4.491  1.00  0.00    -0.323 N 
HETATM    9  H   UNL     1      39.146 -12.418   5.029  1.00  0.00     0.169 HD
HETATM   10  O   UNL     1      42.293 -12.503   4.499  1.00  0.00    -0.267 OA
BRANCH   8  11
HETATM   11  C   UNL     1      39.707 -13.170   3.197  1.00  0.00     0.035 A 
HETATM   12  C   UNL     1      39.370 -14.494   2.925  1.00  0.00     0.032 A 
HETATM   13  C   UNL     1      39.190 -14.934   1.604  1.00  0.00     0.032 A 
HETATM   14  C   UNL     1      39.338 -14.056   0.534  1.00  0.00     0.034 A 
HETATM   15  C   UNL     1      39.646 -12.719   0.806  1.00  0.00     0.032 A 
HETATM   16  C   UNL     1      39.828 -12.280   2.124  1.00  0.00     0.032 A 
BRANCH  14  17
HETATM   17  N   UNL     1      39.223 -14.432  -0.820  1.00  0.00    -0.328 N 
HETATM   18  C   UNL     1      38.367 -13.902  -1.769  1.00  0.00     0.218 C 
HETATM   19  C   UNL     1      38.475 -14.609  -3.099  1.00  0.00     0.117 C 
HETATM   20  O   UNL     1      37.599 -12.959  -1.628  1.00  0.00    -0.274 OA
HETATM   21  H   UNL     1      39.823 -15.189  -1.120  1.00  0.00     0.169 HD
ENDBRANCH  14  17
ENDBRANCH   8  11
ENDBRANCH   4   7
BRANCH   1  22
HETATM   22  C   UNL     1      40.918  -9.938  10.294  1.00  0.00     0.142 A 
HETATM   23  N   UNL     1      39.794  -9.471  10.750  1.00  0.00    -0.222 NA
HETATM   24  C   UNL     1      39.855  -8.937  11.999  1.00  0.00     0.116 A 
HETATM   25  C   UNL     1      40.968  -8.831  12.805  1.00  0.00     0.075 A 
HETATM   26  S   UNL     1      38.469  -8.309  12.758  1.00  0.00    -0.074 SA
HETATM   27  C   UNL     1      40.682  -8.235  14.085  1.00  0.00    -0.027 A 
HETATM   28  C   UNL     1      42.218  -9.327  12.264  1.00  0.00     0.260 A 
HETATM   29  C   UNL     1      39.334  -7.908  14.180  1.00  0.00    -0.012 A 
HETATM   30  C   UNL     1      38.611  -7.282  15.327  1.00  0.00     0.057 C 
HETATM   31  N   UNL     1      42.106  -9.870  11.004  1.00  0.00    -0.307 N 
HETATM   32  O   UNL     1      43.299  -9.282  12.844  1.00  0.00    -0.267 OA
HETATM   33  H   UNL     1      42.982 -10.181  10.614  1.00  0.00     0.170 HD
BRANCH  27  34
HETATM   34  C   UNL     1      41.697  -8.009  15.173  1.00  0.00     0.036 C 
HETATM   35  C   UNL     1      41.785  -9.185  16.134  1.00  0.00     0.010 C 
ENDBRANCH  27  34
ENDBRANCH   1  22
TORSDOF 5
ENDMDL
MODEL 10
REMARK VINA RESULT:      -7.0      8.241      9.861
REMARK  5 active torsions:
REMARK  status: ('A' for Active; 'I' for Inactive)
REMARK    1  A    between atoms: C_2  and  C_3 
REMARK    2  A    between atoms: C_7  and  C_8 
REMARK    3  A    between atoms: C_11  and  C_12 
REMARK       I    between atoms: C_12  and  N_13 
REMARK    4  A    between atoms: N_13  and  C_14 
REMARK    5  A    between atoms: C_17  and  N_18 
REMARK       I    between atoms: N_18  and  C_19 
ROOT
HETATM    1  C   UNL     1      40.572 -10.786   7.629  1.00  0.00     0.010 A 
HETATM    2  C   UNL     1      39.624 -11.741   7.231  1.00  0.00     0.016 A 
HETATM    3  C   UNL     1      39.493 -12.101   5.883  1.00  0.00     0.018 A 
HETATM    4  C   UNL     1      40.310 -11.500   4.920  1.00  0.00     0.032 A 
HETATM    5  C   UNL     1      41.278 -10.568   5.321  1.00  0.00     0.018 A 
HETATM    6  C   UNL     1      41.411 -10.213   6.667  1.00  0.00     0.016 A 
ENDROOT
BRANCH   4   7
HETATM    7  C   UNL     1      40.223 -11.829   3.466  1.00  0.00     0.256 C 
HETATM    8  N   UNL     1      41.013 -11.059   2.632  1.00  0.00    -0.323 N 
HETATM    9  H   UNL     1      41.606 -10.365   3.063  1.00  0.00     0.169 HD
HETATM   10  O   UNL     1      39.507 -12.769   3.139  1.00  0.00    -0.267 OA
BRANCH   8  11
HETATM   11  C   UNL     1      41.189 -11.224   1.240  1.00  0.00     0.035 A 
HETATM   12  C   UNL     1      42.193 -11.999   0.663  1.00  0.00     0.032 A 
HETATM   13  C   UNL     1      42.340 -12.064  -0.732  1.00  0.00     0.032 A 
HETATM   14  C   UNL     1      41.481 -11.360  -1.573  1.00  0.00     0.034 A 
HETATM   15  C   UNL     1      40.453 -10.607  -0.996  1.00  0.00     0.032 A 
HETATM   16  C   UNL     1      40.308 -10.539   0.396  1.00  0.00     0.032 A 
BRANCH  14  17
HETATM   17  N   UNL     1      41.594 -11.334  -2.977  1.00  0.00    -0.328 N 
HETATM   18  C   UNL     1      42.233 -10.384  -3.752  1.00  0.00     0.218 C 
HETATM   19  C   UNL     1      42.082 -10.650  -5.231  1.00  0.00     0.117 C 
HETATM   20  O   UNL     1      42.883  -9.424  -3.358  1.00  0.00    -0.274 OA
HETATM   21  H   UNL     1      41.134 -12.090  -3.471  1.00  0.00     0.169 HD
ENDBRANCH  14  17
ENDBRANCH   8  11
ENDBRANCH   4   7
BRANCH   1  22
HETATM   22  C   UNL     1      40.686 -10.445   9.077  1.00  0.00     0.142 A 
HETATM   23  N   UNL     1      39.941  -9.512   9.591  1.00  0.00    -0.222 NA
HETATM   24  C   UNL     1      40.116  -9.300  10.922  1.00  0.00     0.116 A 
HETATM   25  C   UNL     1      40.995  -9.952  11.759  1.00  0.00     0.075 A 
HETATM   26  S   UNL     1      39.200  -8.136  11.757  1.00  0.00    -0.074 SA
HETATM   27  C   UNL     1      40.911  -9.503  13.126  1.00  0.00    -0.027 A 
HETATM   28  C   UNL     1      41.841 -10.966  11.160  1.00  0.00     0.260 A 
HETATM   29  C   UNL     1      39.951  -8.505  13.251  1.00  0.00    -0.012 A 
HETATM   30  C   UNL     1      39.536  -7.769  14.483  1.00  0.00     0.057 C 
HETATM   31  N   UNL     1      41.620 -11.155   9.815  1.00  0.00    -0.307 N 
HETATM   32  O   UNL     1      42.690 -11.615  11.763  1.00  0.00    -0.267 OA
HETATM   33  H   UNL     1      42.233 -11.833   9.391  1.00  0.00     0.170 HD
BRANCH  27  34
HETATM   34  C   UNL     1      41.737 -10.046  14.261  1.00  0.00     0.036 C 
HETATM   35  C   UNL     1      43.048  -9.293  14.431  1.00  0.00     0.010 C 
ENDBRANCH  27  34
ENDBRANCH   1  22
TORSDOF 5
ENDMDL
