MODEL 1
REMARK VINA RESULT:      -8.4      0.000      0.000
REMARK  4 active torsions:
REMARK  status: ('A' for Active; 'I' for Inactive)
REMARK    1  A    between atoms: C_3  and  C_4 
REMARK    2  A    between atoms: C_4  and  N_5 
REMARK    3  A    between atoms: N_8  and  C_10 
REMARK    4  A    between atoms: C_10  and  C_11 
ROOT
HETATM    1  N   UNL     1      41.866 -13.984   0.557  1.00  0.00    -0.405 N 
HETATM    2  C   UNL     1      42.491 -13.939   1.881  1.00  0.00     0.150 C 
HETATM    3  C   UNL     1      41.936 -14.793   3.050  1.00  0.00     0.206 C 
HETATM    4  N   UNL     1      42.174 -16.295   2.888  1.00  0.00    -0.061 N 
HETATM    5  H   UNL     1      41.934 -16.675   3.813  1.00  0.00     0.280 HD
HETATM    6  C   UNL     1      41.244 -16.984   1.928  1.00  0.00     0.242 C 
HETATM    7  C   UNL     1      40.363 -16.001   1.174  1.00  0.00     0.029 C 
HETATM    8  C   UNL     1      41.186 -15.205   0.143  1.00  0.00     0.123 C 
HETATM    9  C   UNL     1      40.437 -14.567   3.275  1.00  0.00     0.035 C 
HETATM   10  C   UNL     1      39.567 -15.139   2.155  1.00  0.00     0.010 C 
ENDROOT
BRANCH   4  11
HETATM   11  C   UNL     1      43.616 -16.725   2.703  1.00  0.00     0.274 C 
BRANCH  11  12
HETATM   12  C   UNL     1      43.911 -18.088   3.262  1.00  0.00    -0.032 A 
HETATM   13  C   UNL     1      43.931 -19.201   2.396  1.00  0.00     0.022 A 
HETATM   14  C   UNL     1      44.233 -20.479   2.904  1.00  0.00    -0.008 A 
HETATM   15  C   UNL     1      44.497 -20.615   4.264  1.00  0.00     0.042 A 
HETATM   16  C   UNL     1      44.359 -21.767   2.317  1.00  0.00     0.030 A 
HETATM   17  N   UNL     1      44.777 -21.945   4.491  1.00  0.00    -0.365 N 
HETATM   18  C   UNL     1      44.471 -19.533   5.150  1.00  0.00     0.031 A 
HETATM   19  H   UNL     1      45.021 -22.340   5.390  1.00  0.00     0.165 HD
HETATM   20  C   UNL     1      44.697 -22.649   3.318  1.00  0.00     0.089 A 
HETATM   21  C   UNL     1      44.177 -18.269   4.625  1.00  0.00     0.011 A 
ENDBRANCH  11  12
ENDBRANCH   4  11
BRANCH   1  22
HETATM   22  C   UNL     1      41.104 -12.763   0.206  1.00  0.00     0.176 C 
BRANCH  22  23
HETATM   23  C   UNL     1      41.828 -11.795  -0.712  1.00  0.00     0.051 A 
HETATM   24  C   UNL     1      41.465 -11.676  -2.052  1.00  0.00     0.029 A 
HETATM   25  C   UNL     1      42.133 -10.748  -2.847  1.00  0.00     0.003 A 
HETATM   26  C   UNL     1      43.133  -9.964  -2.285  1.00  0.00     0.019 A 
HETATM   27  C   UNL     1      43.439 -10.151  -0.948  1.00  0.00     0.117 A 
HETATM   28  N   UNL     1      42.822 -11.056  -0.155  1.00  0.00    -0.264 NA
ENDBRANCH  22  23
ENDBRANCH   1  22
TORSDOF 4
ENDMDL
MODEL 2
REMARK VINA RESULT:      -8.4      2.696      8.414
REMARK  4 active torsions:
REMARK  status: ('A' for Active; 'I' for Inactive)
REMARK    1  A    between atoms: C_3  and  C_4 
REMARK    2  A    between atoms: C_4  and  N_5 
REMARK    3  A    between atoms: N_8  and  C_10 
REMARK    4  A    between atoms: C_10  and  C_11 
ROOT
HETATM    1  N   UNL     1      42.581 -16.655   2.240  1.00  0.00    -0.405 N 
HETATM    2  C   UNL     1      41.440 -16.592   1.323  1.00  0.00     0.150 C 
HETATM    3  C   UNL     1      40.493 -15.365   1.319  1.00  0.00     0.206 C 
HETATM    4  N   UNL     1      41.130 -14.092   0.759  1.00  0.00    -0.061 N 
HETATM    5  H   UNL     1      40.330 -13.457   0.645  1.00  0.00     0.280 HD
HETATM    6  C   UNL     1      42.064 -13.383   1.700  1.00  0.00     0.242 C 
HETATM    7  C   UNL     1      42.322 -14.183   2.966  1.00  0.00     0.029 C 
HETATM    8  C   UNL     1      43.205 -15.410   2.671  1.00  0.00     0.123 C 
HETATM    9  C   UNL     1      39.942 -15.051   2.714  1.00  0.00     0.035 C 
HETATM   10  C   UNL     1      41.002 -14.504   3.672  1.00  0.00     0.010 C 
ENDROOT
BRANCH   4  11
HETATM   11  C   UNL     1      41.693 -14.192  -0.645  1.00  0.00     0.274 C 
BRANCH  11  12
HETATM   12  C   UNL     1      40.655 -14.504  -1.686  1.00  0.00    -0.032 A 
HETATM   13  C   UNL     1      39.523 -13.671  -1.804  1.00  0.00     0.022 A 
HETATM   14  C   UNL     1      38.557 -13.937  -2.793  1.00  0.00    -0.008 A 
HETATM   15  C   UNL     1      38.741 -15.034  -3.632  1.00  0.00     0.042 A 
HETATM   16  C   UNL     1      37.350 -13.300  -3.188  1.00  0.00     0.030 A 
HETATM   17  N   UNL     1      37.677 -15.056  -4.507  1.00  0.00    -0.365 N 
HETATM   18  C   UNL     1      39.845 -15.886  -3.530  1.00  0.00     0.031 A 
HETATM   19  H   UNL     1      37.548 -15.737  -5.245  1.00  0.00     0.165 HD
HETATM   20  C   UNL     1      36.831 -14.010  -4.246  1.00  0.00     0.089 A 
HETATM   21  C   UNL     1      40.799 -15.600  -2.546  1.00  0.00     0.011 A 
ENDBRANCH  11  12
ENDBRANCH   4  11
BRANCH   1  22
HETATM   22  C   UNL     1      42.413 -17.620   3.350  1.00  0.00     0.176 C 
BRANCH  22  23
HETATM   23  C   UNL     1      43.173 -18.924   3.190  1.00  0.00     0.051 A 
HETATM   24  C   UNL     1      43.047 -19.685   2.029  1.00  0.00     0.029 A 
HETATM   25  C   UNL     1      43.792 -20.856   1.911  1.00  0.00     0.003 A 
HETATM   26  C   UNL     1      44.644 -21.228   2.943  1.00  0.00     0.019 A 
HETATM   27  C   UNL     1      44.705 -20.421   4.066  1.00  0.00     0.117 A 
HETATM   28  N   UNL     1      43.980 -19.290   4.219  1.00  0.00    -0.264 NA
ENDBRANCH  22  23
ENDBRANCH   1  22
TORSDOF 4
ENDMDL
MODEL 3
REMARK VINA RESULT:      -8.4      1.756      2.355
REMARK  4 active torsions:
REMARK  status: ('A' for Active; 'I' for Inactive)
REMARK    1  A    between atoms: C_3  and  C_4 
REMARK    2  A    between atoms: C_4  and  N_5 
REMARK    3  A    between atoms: N_8  and  C_10 
REMARK    4  A    between atoms: C_10  and  C_11 
ROOT
HETATM    1  N   UNL     1      41.771 -14.451   0.512  1.00  0.00    -0.405 N 
HETATM    2  C   UNL     1      42.338 -14.157   1.830  1.00  0.00     0.150 C 
HETATM    3  C   UNL     1      41.797 -14.861   3.101  1.00  0.00     0.206 C 
HETATM    4  N   UNL     1      42.145 -16.349   3.182  1.00  0.00    -0.061 N 
HETATM    5  H   UNL     1      41.895 -16.599   4.147  1.00  0.00     0.280 HD
HETATM    6  C   UNL     1      41.304 -17.244   2.314  1.00  0.00     0.242 C 
HETATM    7  C   UNL     1      40.388 -16.457   1.391  1.00  0.00     0.029 C 
HETATM    8  C   UNL     1      41.194 -15.769   0.274  1.00  0.00     0.123 C 
HETATM    9  C   UNL     1      40.279 -14.716   3.245  1.00  0.00     0.035 C 
HETATM   10  C   UNL     1      39.495 -15.516   2.203  1.00  0.00     0.010 C 
ENDROOT
BRANCH   4  11
HETATM   11  C   UNL     1      43.619 -16.693   3.108  1.00  0.00     0.274 C 
BRANCH  11  12
HETATM   12  C   UNL     1      43.936 -18.080   3.591  1.00  0.00    -0.032 A 
HETATM   13  C   UNL     1      43.935 -19.149   2.672  1.00  0.00     0.022 A 
HETATM   14  C   UNL     1      44.256 -20.449   3.108  1.00  0.00    -0.008 A 
HETATM   15  C   UNL     1      44.560 -20.649   4.452  1.00  0.00     0.042 A 
HETATM   16  C   UNL     1      44.371 -21.706   2.457  1.00  0.00     0.030 A 
HETATM   17  N   UNL     1      44.852 -21.987   4.606  1.00  0.00    -0.365 N 
HETATM   18  C   UNL     1      44.555 -19.611   5.390  1.00  0.00     0.031 A 
HETATM   19  H   UNL     1      45.123 -22.424   5.478  1.00  0.00     0.165 HD
HETATM   20  C   UNL     1      44.741 -22.634   3.403  1.00  0.00     0.089 A 
HETATM   21  C   UNL     1      44.241 -18.325   4.936  1.00  0.00     0.011 A 
ENDBRANCH  11  12
ENDBRANCH   4  11
BRANCH   1  22
HETATM   22  C   UNL     1      40.941 -13.359  -0.046  1.00  0.00     0.176 C 
BRANCH  22  23
HETATM   23  C   UNL     1      40.114 -13.736  -1.262  1.00  0.00     0.051 A 
HETATM   24  C   UNL     1      38.728 -13.854  -1.174  1.00  0.00     0.029 A 
HETATM   25  C   UNL     1      38.008 -14.166  -2.324  1.00  0.00     0.003 A 
HETATM   26  C   UNL     1      38.684 -14.343  -3.524  1.00  0.00     0.019 A 
HETATM   27  C   UNL     1      40.062 -14.218  -3.525  1.00  0.00     0.117 A 
HETATM   28  N   UNL     1      40.792 -13.935  -2.422  1.00  0.00    -0.264 NA
ENDBRANCH  22  23
ENDBRANCH   1  22
TORSDOF 4
ENDMDL
MODEL 4
REMARK VINA RESULT:      -8.2      2.352      7.858
REMARK  4 active torsions:
REMARK  status: ('A' for Active; 'I' for Inactive)
REMARK    1  A    between atoms: C_3  and  C_4 
REMARK    2  A    between atoms: C_4  and  N_5 
REMARK    3  A    between atoms: N_8  and  C_10 
REMARK    4  A    between atoms: C_10  and  C_11 
ROOT
HETATM    1  N   UNL     1      43.215 -17.651   4.659  1.00  0.00    -0.405 N 
HETATM    2  C   UNL     1      42.107 -17.822   5.602  1.00  0.00     0.150 C 
HETATM    3  C   UNL     1      41.909 -16.833   6.780  1.00  0.00     0.206 C 
HETATM    4  N   UNL     1      41.449 -15.439   6.349  1.00  0.00    -0.061 N 
HETATM    5  H   UNL     1      41.181 -14.993   7.236  1.00  0.00     0.280 HD
HETATM    6  C   UNL     1      42.530 -14.563   5.780  1.00  0.00     0.242 C 
HETATM    7  C   UNL     1      43.837 -15.314   5.584  1.00  0.00     0.029 C 
HETATM    8  C   UNL     1      43.728 -16.309   4.414  1.00  0.00     0.123 C 
HETATM    9  C   UNL     1      43.175 -16.678   7.629  1.00  0.00     0.035 C 
HETATM   10  C   UNL     1      44.298 -15.933   6.905  1.00  0.00     0.010 C 
ENDROOT
BRANCH   4  11
HETATM   11  C   UNL     1      40.172 -15.382   5.535  1.00  0.00     0.274 C 
BRANCH  11  12
HETATM   12  C   UNL     1      40.362 -14.798   4.163  1.00  0.00    -0.032 A 
HETATM   13  C   UNL     1      40.648 -15.656   3.081  1.00  0.00     0.022 A 
HETATM   14  C   UNL     1      40.801 -15.124   1.786  1.00  0.00    -0.008 A 
HETATM   15  C   UNL     1      40.675 -13.749   1.608  1.00  0.00     0.042 A 
HETATM   16  C   UNL     1      41.058 -15.694   0.511  1.00  0.00     0.030 A 
HETATM   17  N   UNL     1      40.849 -13.498   0.264  1.00  0.00    -0.365 N 
HETATM   18  C   UNL     1      40.406 -12.871   2.663  1.00  0.00     0.031 A 
HETATM   19  H   UNL     1      40.798 -12.582  -0.166  1.00  0.00     0.165 HD
HETATM   20  C   UNL     1      41.081 -14.670  -0.407  1.00  0.00     0.089 A 
HETATM   21  C   UNL     1      40.249 -13.420   3.941  1.00  0.00     0.011 A 
ENDBRANCH  11  12
ENDBRANCH   4  11
BRANCH   1  22
HETATM   22  C   UNL     1      44.295 -18.654   4.808  1.00  0.00     0.176 C 
BRANCH  22  23
HETATM   23  C   UNL     1      44.211 -19.835   3.858  1.00  0.00     0.051 A 
HETATM   24  C   UNL     1      43.656 -19.691   2.588  1.00  0.00     0.029 A 
HETATM   25  C   UNL     1      43.633 -20.793   1.737  1.00  0.00     0.003 A 
HETATM   26  C   UNL     1      44.170 -21.999   2.171  1.00  0.00     0.019 A 
HETATM   27  C   UNL     1      44.694 -22.061   3.450  1.00  0.00     0.117 A 
HETATM   28  N   UNL     1      44.713 -21.015   4.307  1.00  0.00    -0.264 NA
ENDBRANCH  22  23
ENDBRANCH   1  22
TORSDOF 4
ENDMDL
MODEL 5
REMARK VINA RESULT:      -8.1      3.438      5.334
REMARK  4 active torsions:
REMARK  status: ('A' for Active; 'I' for Inactive)
REMARK    1  A    between atoms: C_3  and  C_4 
REMARK    2  A    between atoms: C_4  and  N_5 
REMARK    3  A    between atoms: N_8  and  C_10 
REMARK    4  A    between atoms: C_10  and  C_11 
ROOT
HETATM    1  N   UNL     1      40.789 -13.359   5.495  1.00  0.00    -0.405 N 
HETATM    2  C   UNL     1      40.598 -14.800   5.317  1.00  0.00     0.150 C 
HETATM    3  C   UNL     1      41.005 -15.496   3.993  1.00  0.00     0.206 C 
HETATM    4  N   UNL     1      42.517 -15.577   3.774  1.00  0.00    -0.061 N 
HETATM    5  H   UNL     1      42.608 -16.224   2.980  1.00  0.00     0.280 HD
HETATM    6  C   UNL     1      43.159 -14.298   3.312  1.00  0.00     0.242 C 
HETATM    7  C   UNL     1      42.190 -13.127   3.330  1.00  0.00     0.029 C 
HETATM    8  C   UNL     1      41.871 -12.699   4.774  1.00  0.00     0.123 C 
HETATM    9  C   UNL     1      40.379 -14.825   2.766  1.00  0.00     0.035 C 
HETATM   10  C   UNL     1      40.961 -13.441   2.473  1.00  0.00     0.010 C 
ENDROOT
BRANCH   4  11
HETATM   11  C   UNL     1      43.313 -16.260   4.868  1.00  0.00     0.274 C 
BRANCH  11  12
HETATM   12  C   UNL     1      43.710 -17.669   4.530  1.00  0.00    -0.032 A 
HETATM   13  C   UNL     1      43.293 -18.229   3.304  1.00  0.00     0.022 A 
HETATM   14  C   UNL     1      43.681 -19.539   2.965  1.00  0.00    -0.008 A 
HETATM   15  C   UNL     1      44.466 -20.260   3.861  1.00  0.00     0.042 A 
HETATM   16  C   UNL     1      43.463 -20.368   1.831  1.00  0.00     0.030 A 
HETATM   17  N   UNL     1      44.715 -21.486   3.285  1.00  0.00    -0.365 N 
HETATM   18  C   UNL     1      44.882 -19.737   5.090  1.00  0.00     0.031 A 
HETATM   19  H   UNL     1      45.275 -22.220   3.702  1.00  0.00     0.165 HD
HETATM   20  C   UNL     1      44.113 -21.560   2.056  1.00  0.00     0.089 A 
HETATM   21  C   UNL     1      44.494 -18.430   5.406  1.00  0.00     0.011 A 
ENDBRANCH  11  12
ENDBRANCH   4  11
BRANCH   1  22
HETATM   22  C   UNL     1      39.532 -12.575   5.475  1.00  0.00     0.176 C 
BRANCH  22  23
HETATM   23  C   UNL     1      39.390 -11.559   6.593  1.00  0.00     0.051 A 
HETATM   24  C   UNL     1      39.422 -11.958   7.928  1.00  0.00     0.029 A 
HETATM   25  C   UNL     1      39.325 -10.986   8.920  1.00  0.00     0.003 A 
HETATM   26  C   UNL     1      39.208  -9.651   8.557  1.00  0.00     0.019 A 
HETATM   27  C   UNL     1      39.175  -9.339   7.209  1.00  0.00     0.117 A 
HETATM   28  N   UNL     1      39.247 -10.260   6.222  1.00  0.00    -0.264 NA
ENDBRANCH  22  23
ENDBRANCH   1  22
TORSDOF 4
ENDMDL
MODEL 6
REMARK VINA RESULT:      -8.1      2.102      3.826
REMARK  4 active torsions:
REMARK  status: ('A' for Active; 'I' for Inactive)
REMARK    1  A    between atoms: C_3  and  C_4 
REMARK    2  A    between atoms: C_4  and  N_5 
REMARK    3  A    between atoms: N_8  and  C_10 
REMARK    4  A    between atoms: C_10  and  C_11 
ROOT
HETATM    1  N   UNL     1      41.912 -13.188   2.378  1.00  0.00    -0.405 N 
HETATM    2  C   UNL     1      41.975 -14.280   3.352  1.00  0.00     0.150 C 
HETATM    3  C   UNL     1      41.368 -15.669   3.026  1.00  0.00     0.206 C 
HETATM    4  N   UNL     1      42.142 -16.450   1.962  1.00  0.00    -0.061 N 
HETATM    5  H   UNL     1      41.735 -17.393   2.017  1.00  0.00     0.280 HD
HETATM    6  C   UNL     1      41.903 -16.001   0.548  1.00  0.00     0.242 C 
HETATM    7  C   UNL     1      41.068 -14.733   0.479  1.00  0.00     0.029 C 
HETATM    8  C   UNL     1      41.879 -13.514   0.958  1.00  0.00     0.123 C 
HETATM    9  C   UNL     1      39.905 -15.575   2.581  1.00  0.00     0.035 C 
HETATM   10  C   UNL     1      39.735 -14.934   1.203  1.00  0.00     0.010 C 
ENDROOT
BRANCH   4  11
HETATM   11  C   UNL     1      43.610 -16.692   2.251  1.00  0.00     0.274 C 
BRANCH  11  12
HETATM   12  C   UNL     1      43.883 -18.019   2.902  1.00  0.00    -0.032 A 
HETATM   13  C   UNL     1      43.904 -19.185   2.110  1.00  0.00     0.022 A 
HETATM   14  C   UNL     1      44.185 -20.431   2.703  1.00  0.00    -0.008 A 
HETATM   15  C   UNL     1      44.426 -20.481   4.074  1.00  0.00     0.042 A 
HETATM   16  C   UNL     1      44.307 -21.755   2.204  1.00  0.00     0.030 A 
HETATM   17  N   UNL     1      44.689 -21.796   4.391  1.00  0.00    -0.365 N 
HETATM   18  C   UNL     1      44.398 -19.343   4.888  1.00  0.00     0.031 A 
HETATM   19  H   UNL     1      44.915 -22.134   5.318  1.00  0.00     0.165 HD
HETATM   20  C   UNL     1      44.619 -22.574   3.264  1.00  0.00     0.089 A 
HETATM   21  C   UNL     1      44.125 -18.113   4.278  1.00  0.00     0.011 A 
ENDBRANCH  11  12
ENDBRANCH   4  11
BRANCH   1  22
HETATM   22  C   UNL     1      40.957 -12.113   2.736  1.00  0.00     0.176 C 
BRANCH  22  23
HETATM   23  C   UNL     1      40.642 -12.000   4.217  1.00  0.00     0.051 A 
HETATM   24  C   UNL     1      39.480 -12.561   4.743  1.00  0.00     0.029 A 
HETATM   25  C   UNL     1      39.251 -12.465   6.114  1.00  0.00     0.003 A 
HETATM   26  C   UNL     1      40.186 -11.824   6.917  1.00  0.00     0.019 A 
HETATM   27  C   UNL     1      41.310 -11.286   6.314  1.00  0.00     0.117 A 
HETATM   28  N   UNL     1      41.551 -11.346   4.984  1.00  0.00    -0.264 NA
ENDBRANCH  22  23
ENDBRANCH   1  22
TORSDOF 4
ENDMDL
MODEL 7
REMARK VINA RESULT:      -8.0      1.870      7.860
REMARK  4 active torsions:
REMARK  status: ('A' for Active; 'I' for Inactive)
REMARK    1  A    between atoms: C_3  and  C_4 
REMARK    2  A    between atoms: C_4  and  N_5 
REMARK    3  A    between atoms: N_8  and  C_10 
REMARK    4  A    between atoms: C_10  and  C_11 
ROOT
HETATM    1  N   UNL     1      42.686 -17.087   3.203  1.00  0.00    -0.405 N 
HETATM    2  C   UNL     1      41.383 -16.878   3.840  1.00  0.00     0.150 C 
HETATM    3  C   UNL     1      40.998 -15.494   4.423  1.00  0.00     0.206 C 
HETATM    4  N   UNL     1      40.754 -14.420   3.360  1.00  0.00    -0.061 N 
HETATM    5  H   UNL     1      40.326 -13.652   3.893  1.00  0.00     0.280 HD
HETATM    6  C   UNL     1      41.998 -13.832   2.756  1.00  0.00     0.242 C 
HETATM    7  C   UNL     1      43.255 -14.560   3.203  1.00  0.00     0.029 C 
HETATM    8  C   UNL     1      43.341 -15.956   2.557  1.00  0.00     0.123 C 
HETATM    9  C   UNL     1      42.047 -14.964   5.406  1.00  0.00     0.035 C 
HETATM   10  C   UNL     1      43.357 -14.559   4.730  1.00  0.00     0.010 C 
ENDROOT
BRANCH   4  11
HETATM   11  C   UNL     1      39.703 -14.743   2.317  1.00  0.00     0.274 C 
BRANCH  11  12
HETATM   12  C   UNL     1      40.236 -14.749   0.912  1.00  0.00    -0.032 A 
HETATM   13  C   UNL     1      40.181 -13.566   0.146  1.00  0.00     0.022 A 
HETATM   14  C   UNL     1      40.702 -13.553  -1.161  1.00  0.00    -0.008 A 
HETATM   15  C   UNL     1      41.254 -14.724  -1.675  1.00  0.00     0.042 A 
HETATM   16  C   UNL     1      40.827 -12.552  -2.162  1.00  0.00     0.030 A 
HETATM   17  N   UNL     1      41.700 -14.436  -2.947  1.00  0.00    -0.365 N 
HETATM   18  C   UNL     1      41.309 -15.916  -0.946  1.00  0.00     0.031 A 
HETATM   19  H   UNL     1      42.161 -15.095  -3.562  1.00  0.00     0.165 HD
HETATM   20  C   UNL     1      41.446 -13.124  -3.249  1.00  0.00     0.089 A 
HETATM   21  C   UNL     1      40.794 -15.907   0.355  1.00  0.00     0.011 A 
ENDBRANCH  11  12
ENDBRANCH   4  11
BRANCH   1  22
HETATM   22  C   UNL     1      43.626 -17.906   4.003  1.00  0.00     0.176 C 
BRANCH  22  23
HETATM   23  C   UNL     1      43.848 -19.317   3.488  1.00  0.00     0.051 A 
HETATM   24  C   UNL     1      43.366 -19.704   2.239  1.00  0.00     0.029 A 
HETATM   25  C   UNL     1      43.625 -20.997   1.793  1.00  0.00     0.003 A 
HETATM   26  C   UNL     1      44.361 -21.860   2.595  1.00  0.00     0.019 A 
HETATM   27  C   UNL     1      44.796 -21.400   3.826  1.00  0.00     0.117 A 
HETATM   28  N   UNL     1      44.544 -20.157   4.296  1.00  0.00    -0.264 NA
ENDBRANCH  22  23
ENDBRANCH   1  22
TORSDOF 4
ENDMDL
MODEL 8
REMARK VINA RESULT:      -8.0      2.337      3.374
REMARK  4 active torsions:
REMARK  status: ('A' for Active; 'I' for Inactive)
REMARK    1  A    between atoms: C_3  and  C_4 
REMARK    2  A    between atoms: C_4  and  N_5 
REMARK    3  A    between atoms: N_8  and  C_10 
REMARK    4  A    between atoms: C_10  and  C_11 
ROOT
HETATM    1  N   UNL     1      39.798 -14.267   0.898  1.00  0.00    -0.405 N 
HETATM    2  C   UNL     1      40.985 -15.095   1.127  1.00  0.00     0.150 C 
HETATM    3  C   UNL     1      41.994 -14.740   2.248  1.00  0.00     0.206 C 
HETATM    4  N   UNL     1      41.454 -14.964   3.662  1.00  0.00    -0.061 N 
HETATM    5  H   UNL     1      42.291 -14.877   4.253  1.00  0.00     0.280 HD
HETATM    6  C   UNL     1      40.513 -13.900   4.157  1.00  0.00     0.242 C 
HETATM    7  C   UNL     1      40.151 -12.901   3.070  1.00  0.00     0.029 C 
HETATM    8  C   UNL     1      39.220 -13.542   2.023  1.00  0.00     0.123 C 
HETATM    9  C   UNL     1      42.491 -13.294   2.149  1.00  0.00     0.035 C 
HETATM   10  C   UNL     1      41.415 -12.262   2.490  1.00  0.00     0.010 C 
ENDROOT
BRANCH   4  11
HETATM   11  C   UNL     1      40.957 -16.362   3.972  1.00  0.00     0.274 C 
BRANCH  11  12
HETATM   12  C   UNL     1      42.050 -17.392   4.007  1.00  0.00    -0.032 A 
HETATM   13  C   UNL     1      42.186 -18.293   2.931  1.00  0.00     0.022 A 
HETATM   14  C   UNL     1      43.223 -19.245   2.940  1.00  0.00    -0.008 A 
HETATM   15  C   UNL     1      44.091 -19.280   4.029  1.00  0.00     0.042 A 
HETATM   16  C   UNL     1      43.645 -20.251   2.030  1.00  0.00     0.030 A 
HETATM   17  N   UNL     1      45.010 -20.277   3.781  1.00  0.00    -0.365 N 
HETATM   18  C   UNL     1      43.973 -18.410   5.117  1.00  0.00     0.031 A 
HETATM   19  H   UNL     1      45.776 -20.524   4.395  1.00  0.00     0.165 HD
HETATM   20  C   UNL     1      44.748 -20.869   2.573  1.00  0.00     0.089 A 
HETATM   21  C   UNL     1      42.941 -17.465   5.086  1.00  0.00     0.011 A 
ENDBRANCH  11  12
ENDBRANCH   4  11
BRANCH   1  22
HETATM   22  C   UNL     1      39.860 -13.448  -0.334  1.00  0.00     0.176 C 
BRANCH  22  23
HETATM   23  C   UNL     1      39.397 -14.151  -1.598  1.00  0.00     0.051 A 
HETATM   24  C   UNL     1      38.062 -14.098  -1.994  1.00  0.00     0.029 A 
HETATM   25  C   UNL     1      37.690 -14.728  -3.180  1.00  0.00     0.003 A 
HETATM   26  C   UNL     1      38.655 -15.379  -3.937  1.00  0.00     0.019 A 
HETATM   27  C   UNL     1      39.958 -15.392  -3.468  1.00  0.00     0.117 A 
HETATM   28  N   UNL     1      40.346 -14.808  -2.312  1.00  0.00    -0.264 NA
ENDBRANCH  22  23
ENDBRANCH   1  22
TORSDOF 4
ENDMDL
MODEL 9
REMARK VINA RESULT:      -7.9      1.406      2.420
REMARK  4 active torsions:
REMARK  status: ('A' for Active; 'I' for Inactive)
REMARK    1  A    between atoms: C_3  and  C_4 
REMARK    2  A    between atoms: C_4  and  N_5 
REMARK    3  A    between atoms: N_8  and  C_10 
REMARK    4  A    between atoms: C_10  and  C_11 
ROOT
HETATM    1  N   UNL     1      40.900 -12.821   1.725  1.00  0.00    -0.405 N 
HETATM    2  C   UNL     1      42.014 -13.771   1.765  1.00  0.00     0.150 C 
HETATM    3  C   UNL     1      42.528 -14.335   3.114  1.00  0.00     0.206 C 
HETATM    4  N   UNL     1      41.557 -15.305   3.791  1.00  0.00    -0.061 N 
HETATM    5  H   UNL     1      42.122 -15.723   4.540  1.00  0.00     0.280 HD
HETATM    6  C   UNL     1      40.396 -14.655   4.491  1.00  0.00     0.242 C 
HETATM    7  C   UNL     1      40.330 -13.159   4.228  1.00  0.00     0.029 C 
HETATM    8  C   UNL     1      39.894 -12.874   2.779  1.00  0.00     0.123 C 
HETATM    9  C   UNL     1      42.872 -13.227   4.115  1.00  0.00     0.035 C 
HETATM   10  C   UNL     1      41.641 -12.487   4.642  1.00  0.00     0.010 C 
ENDROOT
BRANCH   4  11
HETATM   11  C   UNL     1      41.135 -16.506   2.968  1.00  0.00     0.274 C 
BRANCH  11  12
HETATM   12  C   UNL     1      42.138 -17.625   2.983  1.00  0.00    -0.032 A 
HETATM   13  C   UNL     1      42.764 -17.976   4.196  1.00  0.00     0.022 A 
HETATM   14  C   UNL     1      43.685 -19.040   4.228  1.00  0.00    -0.008 A 
HETATM   15  C   UNL     1      43.965 -19.719   3.045  1.00  0.00     0.042 A 
HETATM   16  C   UNL     1      44.450 -19.650   5.258  1.00  0.00     0.030 A 
HETATM   17  N   UNL     1      44.871 -20.711   3.354  1.00  0.00    -0.365 N 
HETATM   18  C   UNL     1      43.372 -19.385   1.824  1.00  0.00     0.031 A 
HETATM   19  H   UNL     1      45.248 -21.377   2.691  1.00  0.00     0.165 HD
HETATM   20  C   UNL     1      45.169 -20.677   4.691  1.00  0.00     0.089 A 
HETATM   21  C   UNL     1      42.452 -18.330   1.814  1.00  0.00     0.011 A 
ENDBRANCH  11  12
ENDBRANCH   4  11
BRANCH   1  22
HETATM   22  C   UNL     1      41.299 -11.434   1.390  1.00  0.00     0.176 C 
BRANCH  22  23
HETATM   23  C   UNL     1      41.763 -11.227  -0.041  1.00  0.00     0.051 A 
HETATM   24  C   UNL     1      40.891 -11.427  -1.109  1.00  0.00     0.029 A 
HETATM   25  C   UNL     1      41.350 -11.189  -2.402  1.00  0.00     0.003 A 
HETATM   26  C   UNL     1      42.655 -10.752  -2.592  1.00  0.00     0.019 A 
HETATM   27  C   UNL     1      43.459 -10.586  -1.477  1.00  0.00     0.117 A 
HETATM   28  N   UNL     1      43.049 -10.828  -0.212  1.00  0.00    -0.264 NA
ENDBRANCH  22  23
ENDBRANCH   1  22
TORSDOF 4
ENDMDL
MODEL 10
REMARK VINA RESULT:      -7.7      1.854      8.907
REMARK  4 active torsions:
REMARK  status: ('A' for Active; 'I' for Inactive)
REMARK    1  A    between atoms: C_3  and  C_4 
REMARK    2  A    between atoms: C_4  and  N_5 
REMARK    3  A    between atoms: N_8  and  C_10 
REMARK    4  A    between atoms: C_10  and  C_11 
ROOT
HETATM    1  N   UNL     1      42.821 -17.341   2.031  1.00  0.00    -0.405 N 
HETATM    2  C   UNL     1      41.504 -17.435   1.396  1.00  0.00     0.150 C 
HETATM    3  C   UNL     1      40.530 -16.229   1.408  1.00  0.00     0.206 C 
HETATM    4  N   UNL     1      40.975 -15.064   0.522  1.00  0.00    -0.061 N 
HETATM    5  H   UNL     1      40.144 -14.460   0.490  1.00  0.00     0.280 HD
HETATM    6  C   UNL     1      42.063 -14.205   1.104  1.00  0.00     0.242 C 
HETATM    7  C   UNL     1      42.627 -14.784   2.391  1.00  0.00     0.029 C 
HETATM    8  C   UNL     1      43.473 -16.039   2.106  1.00  0.00     0.123 C 
HETATM    9  C   UNL     1      40.288 -15.691   2.822  1.00  0.00     0.035 C 
HETATM   10  C   UNL     1      41.510 -14.989   3.417  1.00  0.00     0.010 C 
ENDROOT
BRANCH   4  11
HETATM   11  C   UNL     1      41.217 -15.393  -0.938  1.00  0.00     0.274 C 
BRANCH  11  12
HETATM   12  C   UNL     1      40.801 -14.295  -1.876  1.00  0.00    -0.032 A 
HETATM   13  C   UNL     1      41.791 -13.525  -2.521  1.00  0.00     0.022 A 
HETATM   14  C   UNL     1      41.414 -12.512  -3.423  1.00  0.00    -0.008 A 
HETATM   15  C   UNL     1      40.058 -12.287  -3.650  1.00  0.00     0.042 A 
HETATM   16  C   UNL     1      42.136 -11.598  -4.236  1.00  0.00     0.030 A 
HETATM   17  N   UNL     1      39.966 -11.269  -4.574  1.00  0.00    -0.365 N 
HETATM   18  C   UNL     1      39.054 -13.024  -3.015  1.00  0.00     0.031 A 
HETATM   19  H   UNL     1      39.100 -10.899  -4.944  1.00  0.00     0.165 HD
HETATM   20  C   UNL     1      41.219 -10.847  -4.936  1.00  0.00     0.089 A 
HETATM   21  C   UNL     1      39.448 -14.033  -2.128  1.00  0.00     0.011 A 
ENDBRANCH  11  12
ENDBRANCH   4  11
BRANCH   1  22
HETATM   22  C   UNL     1      42.942 -18.109   3.291  1.00  0.00     0.176 C 
BRANCH  22  23
HETATM   23  C   UNL     1      43.514 -19.507   3.139  1.00  0.00     0.051 A 
HETATM   24  C   UNL     1      43.318 -20.235   1.967  1.00  0.00     0.029 A 
HETATM   25  C   UNL     1      43.893 -21.498   1.859  1.00  0.00     0.003 A 
HETATM   26  C   UNL     1      44.650 -21.995   2.912  1.00  0.00     0.019 A 
HETATM   27  C   UNL     1      44.789 -21.212   4.045  1.00  0.00     0.117 A 
HETATM   28  N   UNL     1      44.227 -19.991   4.189  1.00  0.00    -0.264 NA
ENDBRANCH  22  23
ENDBRANCH   1  22
TORSDOF 4
ENDMDL
