MODEL 1
REMARK VINA RESULT:      -8.8      0.000      0.000
REMARK  9 active torsions:
REMARK  status: ('A' for Active; 'I' for Inactive)
REMARK    1  A    between atoms: C_5  and  N_6 
REMARK       I    between atoms: N_6  and  C_7 
REMARK    2  A    between atoms: C_7  and  C_8 
REMARK    3  A    between atoms: C_8  and  C_9 
REMARK    4  A    between atoms: C_9  and  C_10 
REMARK       I    between atoms: C_10  and  N_11 
REMARK    5  A    between atoms: N_11  and  C_12 
REMARK    6  A    between atoms: N_11  and  C_29 
REMARK    7  A    between atoms: C_12  and  C_13 
REMARK       I    between atoms: C_13  and  N_14 
REMARK    8  A    between atoms: N_14  and  C_15 
REMARK    9  A    between atoms: C_29  and  C_30 
ROOT
HETATM    1  C   UNL     1      43.534 -13.825   4.649  1.00  0.00     0.221 C 
HETATM    2  N   UNL     1      42.336 -14.092   3.976  1.00  0.00    -0.328 N 
HETATM    3  O   UNL     1      44.583 -13.627   4.020  1.00  0.00    -0.273 OA
ENDROOT
BRANCH   2   4
HETATM    4  C   UNL     1      40.989 -14.518   4.578  1.00  0.00     0.119 C 
HETATM    5  C   UNL     1      39.803 -14.547   3.565  1.00  0.00     0.069 C 
HETATM    6  C   UNL     1      39.525 -13.196   2.953  1.00  0.00     0.237 C 
HETATM    7  N   UNL     1      39.052 -12.280   4.049  1.00  0.00    -0.075 N 
HETATM    8  H   UNL     1      38.183 -12.685   4.434  1.00  0.00     0.279 HD
HETATM    9  C   UNL     1      38.662 -10.932   3.496  1.00  0.00     0.269 C 
HETATM   10  C   UNL     1      40.038 -12.167   5.179  1.00  0.00     0.237 C 
HETATM   11  C   UNL     1      40.464 -13.548   5.695  1.00  0.00     0.069 C 
BRANCH   4  12
HETATM   12  C   UNL     1      41.019 -15.926   5.267  1.00  0.00     0.246 C 
HETATM   13  N   UNL     1      42.013 -16.807   4.907  1.00  0.00    -0.354 N 
HETATM   14  H   UNL     1      42.695 -16.537   4.204  1.00  0.00     0.162 HD
HETATM   15  O   UNL     1      40.288 -16.142   6.234  1.00  0.00    -0.271 OA
BRANCH  13  16
HETATM   16  C   UNL     1      42.310 -17.997   5.723  1.00  0.00     0.084 C 
HETATM   17  C   UNL     1      43.087 -19.098   4.975  1.00  0.00     0.025 C 
HETATM   18  C   UNL     1      44.586 -18.833   4.839  1.00  0.00     0.002 C 
HETATM   19  C   UNL     1      45.235 -18.459   6.164  1.00  0.00     0.000 C 
HETATM   20  C   UNL     1      44.503 -17.298   6.824  1.00  0.00     0.002 C 
HETATM   21  C   UNL     1      43.025 -17.624   7.030  1.00  0.00     0.025 C 
ENDBRANCH  13  16
ENDBRANCH   4  12
ENDBRANCH   2   4
BRANCH   2  22
HETATM   22  C   UNL     1      42.489 -13.952   2.504  1.00  0.00     0.192 C 
BRANCH  22  23
HETATM   23  C   UNL     1      42.639 -15.254   1.801  1.00  0.00     0.070 A 
HETATM   24  O   UNL     1      41.686 -15.573   0.881  1.00  0.00    -0.325 OA
HETATM   25  C   UNL     1      41.949 -16.842   0.467  1.00  0.00     0.142 A 
HETATM   26  C   UNL     1      43.079 -17.327   1.082  1.00  0.00     0.027 A 
HETATM   27  C   UNL     1      43.523 -16.304   1.950  1.00  0.00     0.036 A 
ENDBRANCH  22  23
ENDBRANCH   2  22
BRANCH   1  28
HETATM   28  C   UNL     1      43.635 -13.650   6.145  1.00  0.00     0.112 C 
BRANCH  28  29
HETATM   29  C   UNL     1      45.083 -13.724   6.578  1.00  0.00     0.112 C 
BRANCH  29  30
HETATM   30  C   UNL     1      45.312 -12.998   7.888  1.00  0.00     0.223 C 
HETATM   31  N   UNL     1      44.180 -12.955   8.675  1.00  0.00    -0.310 N 
HETATM   32  H   UNL     1      43.300 -13.306   8.319  1.00  0.00     0.170 HD
HETATM   33  O   UNL     1      46.420 -12.543   8.143  1.00  0.00    -0.273 OA
BRANCH  31  34
HETATM   34  C   UNL     1      44.129 -12.391   9.935  1.00  0.00     0.160 A 
HETATM   35  N   UNL     1      44.397 -13.010  11.085  1.00  0.00    -0.110 NA
HETATM   36  O   UNL     1      44.223 -12.071  12.082  1.00  0.00    -0.216 OA
HETATM   37  C   UNL     1      43.842 -10.893  11.527  1.00  0.00     0.078 A 
HETATM   38  C   UNL     1      43.612  -9.772  12.453  1.00  0.00     0.079 C 
HETATM   39  C   UNL     1      43.770 -11.042  10.165  1.00  0.00     0.087 A 
ENDBRANCH  31  34
ENDBRANCH  29  30
ENDBRANCH  28  29
ENDBRANCH   1  28
TORSDOF 9
ENDMDL
MODEL 2
REMARK VINA RESULT:      -8.3      3.575      6.198
REMARK  9 active torsions:
REMARK  status: ('A' for Active; 'I' for Inactive)
REMARK    1  A    between atoms: C_5  and  N_6 
REMARK       I    between atoms: N_6  and  C_7 
REMARK    2  A    between atoms: C_7  and  C_8 
REMARK    3  A    between atoms: C_8  and  C_9 
REMARK    4  A    between atoms: C_9  and  C_10 
REMARK       I    between atoms: C_10  and  N_11 
REMARK    5  A    between atoms: N_11  and  C_12 
REMARK    6  A    between atoms: N_11  and  C_29 
REMARK    7  A    between atoms: C_12  and  C_13 
REMARK       I    between atoms: C_13  and  N_14 
REMARK    8  A    between atoms: N_14  and  C_15 
REMARK    9  A    between atoms: C_29  and  C_30 
ROOT
HETATM    1  C   UNL     1      38.950 -13.167   0.275  1.00  0.00     0.221 C 
HETATM    2  N   UNL     1      39.882 -13.176  -0.770  1.00  0.00    -0.328 N 
HETATM    3  O   UNL     1      37.811 -12.713   0.102  1.00  0.00    -0.273 OA
ENDROOT
BRANCH   2   4
HETATM    4  C   UNL     1      41.371 -13.543  -0.704  1.00  0.00     0.119 C 
HETATM    5  C   UNL     1      42.153 -12.883   0.473  1.00  0.00     0.069 C 
HETATM    6  C   UNL     1      42.144 -11.376   0.408  1.00  0.00     0.237 C 
HETATM    7  N   UNL     1      42.910 -10.962  -0.820  1.00  0.00    -0.075 N 
HETATM    8  H   UNL     1      43.876 -11.311  -0.712  1.00  0.00     0.279 HD
HETATM    9  C   UNL     1      43.027  -9.461  -0.904  1.00  0.00     0.269 C 
HETATM   10  C   UNL     1      42.352 -11.560  -2.083  1.00  0.00     0.237 C 
HETATM   11  C   UNL     1      42.189 -13.081  -1.962  1.00  0.00     0.069 C 
BRANCH   4  12
HETATM   12  C   UNL     1      41.641 -15.085  -0.608  1.00  0.00     0.246 C 
HETATM   13  N   UNL     1      42.277 -15.567   0.512  1.00  0.00    -0.354 N 
HETATM   14  H   UNL     1      42.564 -14.923   1.244  1.00  0.00     0.162 HD
HETATM   15  O   UNL     1      41.119 -15.843  -1.427  1.00  0.00    -0.271 OA
BRANCH  13  16
HETATM   16  C   UNL     1      42.274 -17.004   0.833  1.00  0.00     0.084 C 
HETATM   17  C   UNL     1      43.531 -17.487   1.582  1.00  0.00     0.025 C 
HETATM   18  C   UNL     1      43.540 -17.168   3.075  1.00  0.00     0.002 C 
HETATM   19  C   UNL     1      42.251 -17.588   3.769  1.00  0.00     0.000 C 
HETATM   20  C   UNL     1      41.034 -17.005   3.063  1.00  0.00     0.002 C 
HETATM   21  C   UNL     1      41.003 -17.414   1.591  1.00  0.00     0.025 C 
ENDBRANCH  13  16
ENDBRANCH   4  12
ENDBRANCH   2   4
BRANCH   2  22
HETATM   22  C   UNL     1      39.274 -12.733  -2.052  1.00  0.00     0.192 C 
BRANCH  22  23
HETATM   23  C   UNL     1      38.803 -13.860  -2.901  1.00  0.00     0.070 A 
HETATM   24  O   UNL     1      37.490 -14.210  -2.790  1.00  0.00    -0.325 OA
HETATM   25  C   UNL     1      37.318 -15.329  -3.547  1.00  0.00     0.142 A 
HETATM   26  C   UNL     1      38.493 -15.677  -4.170  1.00  0.00     0.027 A 
HETATM   27  C   UNL     1      39.456 -14.733  -3.749  1.00  0.00     0.036 A 
ENDBRANCH  22  23
ENDBRANCH   2  22
BRANCH   1  28
HETATM   28  C   UNL     1      39.199 -13.791   1.626  1.00  0.00     0.112 C 
BRANCH  28  29
HETATM   29  C   UNL     1      39.020 -12.755   2.715  1.00  0.00     0.112 C 
BRANCH  29  30
HETATM   30  C   UNL     1      40.300 -12.537   3.496  1.00  0.00     0.223 C 
HETATM   31  N   UNL     1      41.015 -13.704   3.675  1.00  0.00    -0.310 N 
HETATM   32  H   UNL     1      40.627 -14.589   3.375  1.00  0.00     0.170 HD
HETATM   33  O   UNL     1      40.595 -11.411   3.875  1.00  0.00    -0.273 OA
BRANCH  31  34
HETATM   34  C   UNL     1      42.237 -13.776   4.315  1.00  0.00     0.160 A 
HETATM   35  N   UNL     1      43.414 -13.406   3.807  1.00  0.00    -0.110 NA
HETATM   36  O   UNL     1      44.354 -13.650   4.787  1.00  0.00    -0.216 OA
HETATM   37  C   UNL     1      43.740 -14.175   5.877  1.00  0.00     0.078 A 
HETATM   38  C   UNL     1      44.601 -14.498   7.028  1.00  0.00     0.079 C 
HETATM   39  C   UNL     1      42.395 -14.274   5.630  1.00  0.00     0.087 A 
ENDBRANCH  31  34
ENDBRANCH  29  30
ENDBRANCH  28  29
ENDBRANCH   1  28
TORSDOF 9
ENDMDL
MODEL 3
REMARK VINA RESULT:      -8.1      4.807      8.108
REMARK  9 active torsions:
REMARK  status: ('A' for Active; 'I' for Inactive)
REMARK    1  A    between atoms: C_5  and  N_6 
REMARK       I    between atoms: N_6  and  C_7 
REMARK    2  A    between atoms: C_7  and  C_8 
REMARK    3  A    between atoms: C_8  and  C_9 
REMARK    4  A    between atoms: C_9  and  C_10 
REMARK       I    between atoms: C_10  and  N_11 
REMARK    5  A    between atoms: N_11  and  C_12 
REMARK    6  A    between atoms: N_11  and  C_29 
REMARK    7  A    between atoms: C_12  and  C_13 
REMARK       I    between atoms: C_13  and  N_14 
REMARK    8  A    between atoms: N_14  and  C_15 
REMARK    9  A    between atoms: C_29  and  C_30 
ROOT
HETATM    1  C   UNL     1      39.694 -14.685   2.060  1.00  0.00     0.221 C 
HETATM    2  N   UNL     1      39.469 -13.483   1.377  1.00  0.00    -0.328 N 
HETATM    3  O   UNL     1      38.841 -15.583   2.058  1.00  0.00    -0.273 OA
ENDROOT
BRANCH   2   4
HETATM    4  C   UNL     1      40.326 -12.210   1.399  1.00  0.00     0.119 C 
HETATM    5  C   UNL     1      40.717 -11.713   2.826  1.00  0.00     0.069 C 
HETATM    6  C   UNL     1      39.517 -11.368   3.673  1.00  0.00     0.237 C 
HETATM    7  N   UNL     1      38.833 -10.184   3.045  1.00  0.00    -0.075 N 
HETATM    8  H   UNL     1      39.508  -9.403   3.045  1.00  0.00     0.279 HD
HETATM    9  C   UNL     1      37.673  -9.718   3.890  1.00  0.00     0.269 C 
HETATM   10  C   UNL     1      38.430 -10.434   1.617  1.00  0.00     0.237 C 
HETATM   11  C   UNL     1      39.608 -10.957   0.784  1.00  0.00     0.069 C 
BRANCH   4  12
HETATM   12  C   UNL     1      41.663 -12.330   0.589  1.00  0.00     0.246 C 
HETATM   13  N   UNL     1      41.625 -12.111  -0.768  1.00  0.00    -0.354 N 
HETATM   14  H   UNL     1      40.741 -11.885  -1.217  1.00  0.00     0.162 HD
HETATM   15  O   UNL     1      42.732 -12.426   1.195  1.00  0.00    -0.271 OA
BRANCH  13  16
HETATM   16  C   UNL     1      42.859 -11.880  -1.539  1.00  0.00     0.084 C 
HETATM   17  C   UNL     1      42.877 -12.562  -2.921  1.00  0.00     0.025 C 
HETATM   18  C   UNL     1      42.082 -11.827  -3.999  1.00  0.00     0.002 C 
HETATM   19  C   UNL     1      42.431 -10.347  -4.075  1.00  0.00     0.000 C 
HETATM   20  C   UNL     1      42.300  -9.684  -2.710  1.00  0.00     0.002 C 
HETATM   21  C   UNL     1      43.174 -10.383  -1.671  1.00  0.00     0.025 C 
ENDBRANCH  13  16
ENDBRANCH   4  12
ENDBRANCH   2   4
BRANCH   2  22
HETATM   22  C   UNL     1      38.212 -13.528   0.587  1.00  0.00     0.192 C 
BRANCH  22  23
HETATM   23  C   UNL     1      38.441 -13.666  -0.877  1.00  0.00     0.070 A 
HETATM   24  O   UNL     1      39.509 -14.419  -1.266  1.00  0.00    -0.325 OA
HETATM   25  C   UNL     1      39.599 -14.300  -2.619  1.00  0.00     0.142 A 
HETATM   26  C   UNL     1      38.583 -13.513  -3.105  1.00  0.00     0.027 A 
HETATM   27  C   UNL     1      37.837 -13.096  -1.980  1.00  0.00     0.036 A 
ENDBRANCH  22  23
ENDBRANCH   2  22
BRANCH   1  28
HETATM   28  C   UNL     1      40.995 -15.030   2.744  1.00  0.00     0.112 C 
BRANCH  28  29
HETATM   29  C   UNL     1      40.719 -15.652   4.095  1.00  0.00     0.112 C 
BRANCH  29  30
HETATM   30  C   UNL     1      41.355 -17.021   4.221  1.00  0.00     0.223 C 
HETATM   31  N   UNL     1      42.256 -17.281   3.209  1.00  0.00    -0.310 N 
HETATM   32  H   UNL     1      42.366 -16.627   2.446  1.00  0.00     0.170 HD
HETATM   33  O   UNL     1      41.052 -17.747   5.160  1.00  0.00    -0.273 OA
BRANCH  31  34
HETATM   34  C   UNL     1      43.005 -18.438   3.113  1.00  0.00     0.160 A 
HETATM   35  N   UNL     1      43.995 -18.805   3.927  1.00  0.00    -0.110 NA
HETATM   36  O   UNL     1      44.453 -20.020   3.460  1.00  0.00    -0.216 OA
HETATM   37  C   UNL     1      43.741 -20.376   2.361  1.00  0.00     0.078 A 
HETATM   38  C   UNL     1      44.099 -21.657   1.730  1.00  0.00     0.079 C 
HETATM   39  C   UNL     1      42.807 -19.406   2.099  1.00  0.00     0.087 A 
ENDBRANCH  31  34
ENDBRANCH  29  30
ENDBRANCH  28  29
ENDBRANCH   1  28
TORSDOF 9
ENDMDL
MODEL 4
REMARK VINA RESULT:      -7.6      3.183      7.769
REMARK  9 active torsions:
REMARK  status: ('A' for Active; 'I' for Inactive)
REMARK    1  A    between atoms: C_5  and  N_6 
REMARK       I    between atoms: N_6  and  C_7 
REMARK    2  A    between atoms: C_7  and  C_8 
REMARK    3  A    between atoms: C_8  and  C_9 
REMARK    4  A    between atoms: C_9  and  C_10 
REMARK       I    between atoms: C_10  and  N_11 
REMARK    5  A    between atoms: N_11  and  C_12 
REMARK    6  A    between atoms: N_11  and  C_29 
REMARK    7  A    between atoms: C_12  and  C_13 
REMARK       I    between atoms: C_13  and  N_14 
REMARK    8  A    between atoms: N_14  and  C_15 
REMARK    9  A    between atoms: C_29  and  C_30 
ROOT
HETATM    1  C   UNL     1      42.907 -15.338   3.146  1.00  0.00     0.221 C 
HETATM    2  N   UNL     1      42.142 -15.993   4.119  1.00  0.00    -0.328 N 
HETATM    3  O   UNL     1      43.162 -15.889   2.066  1.00  0.00    -0.273 OA
ENDROOT
BRANCH   2   4
HETATM    4  C   UNL     1      41.863 -15.544   5.560  1.00  0.00     0.119 C 
HETATM    5  C   UNL     1      43.125 -15.086   6.355  1.00  0.00     0.069 C 
HETATM    6  C   UNL     1      44.153 -16.180   6.500  1.00  0.00     0.237 C 
HETATM    7  N   UNL     1      43.556 -17.266   7.352  1.00  0.00    -0.075 N 
HETATM    8  H   UNL     1      43.341 -16.852   8.273  1.00  0.00     0.279 HD
HETATM    9  C   UNL     1      44.562 -18.358   7.622  1.00  0.00     0.269 C 
HETATM   10  C   UNL     1      42.270 -17.807   6.789  1.00  0.00     0.237 C 
HETATM   11  C   UNL     1      41.277 -16.681   6.471  1.00  0.00     0.069 C 
BRANCH   4  12
HETATM   12  C   UNL     1      40.820 -14.379   5.671  1.00  0.00     0.246 C 
HETATM   13  N   UNL     1      41.186 -13.238   6.347  1.00  0.00    -0.354 N 
HETATM   14  H   UNL     1      42.111 -13.175   6.763  1.00  0.00     0.162 HD
HETATM   15  O   UNL     1      39.787 -14.426   5.002  1.00  0.00    -0.271 OA
BRANCH  13  16
HETATM   16  C   UNL     1      40.411 -11.992   6.217  1.00  0.00     0.084 C 
HETATM   17  C   UNL     1      39.294 -11.832   7.268  1.00  0.00     0.025 C 
HETATM   18  C   UNL     1      39.779 -11.372   8.642  1.00  0.00     0.002 C 
HETATM   19  C   UNL     1      40.684 -10.151   8.562  1.00  0.00     0.000 C 
HETATM   20  C   UNL     1      41.836 -10.385   7.594  1.00  0.00     0.002 C 
HETATM   21  C   UNL     1      41.321 -10.756   6.204  1.00  0.00     0.025 C 
ENDBRANCH  13  16
ENDBRANCH   4  12
ENDBRANCH   2   4
BRANCH   2  22
HETATM   22  C   UNL     1      41.602 -17.284   3.617  1.00  0.00     0.192 C 
BRANCH  22  23
HETATM   23  C   UNL     1      42.661 -18.266   3.261  1.00  0.00     0.070 A 
HETATM   24  O   UNL     1      42.513 -18.933   2.081  1.00  0.00    -0.325 OA
HETATM   25  C   UNL     1      43.511 -19.857   2.026  1.00  0.00     0.142 A 
HETATM   26  C   UNL     1      44.317 -19.766   3.136  1.00  0.00     0.027 A 
HETATM   27  C   UNL     1      43.766 -18.743   3.938  1.00  0.00     0.036 A 
ENDBRANCH  22  23
ENDBRANCH   2  22
BRANCH   1  28
HETATM   28  C   UNL     1      43.380 -13.911   3.271  1.00  0.00     0.112 C 
BRANCH  28  29
HETATM   29  C   UNL     1      42.260 -12.961   2.907  1.00  0.00     0.112 C 
BRANCH  29  30
HETATM   30  C   UNL     1      41.944 -13.009   1.426  1.00  0.00     0.223 C 
HETATM   31  N   UNL     1      40.955 -13.923   1.125  1.00  0.00    -0.310 N 
HETATM   32  H   UNL     1      40.588 -14.530   1.846  1.00  0.00     0.170 HD
HETATM   33  O   UNL     1      42.542 -12.269   0.655  1.00  0.00    -0.273 OA
BRANCH  31  34
HETATM   34  C   UNL     1      40.450 -14.132  -0.143  1.00  0.00     0.160 A 
HETATM   35  N   UNL     1      41.052 -14.799  -1.129  1.00  0.00    -0.110 NA
HETATM   36  O   UNL     1      40.190 -14.759  -2.207  1.00  0.00    -0.216 OA
HETATM   37  C   UNL     1      39.078 -14.061  -1.867  1.00  0.00     0.078 A 
HETATM   38  C   UNL     1      38.044 -13.921  -2.906  1.00  0.00     0.079 C 
HETATM   39  C   UNL     1      39.192 -13.642  -0.566  1.00  0.00     0.087 A 
ENDBRANCH  31  34
ENDBRANCH  29  30
ENDBRANCH  28  29
ENDBRANCH   1  28
TORSDOF 9
ENDMDL
MODEL 5
REMARK VINA RESULT:      -7.6      5.388      8.882
REMARK  9 active torsions:
REMARK  status: ('A' for Active; 'I' for Inactive)
REMARK    1  A    between atoms: C_5  and  N_6 
REMARK       I    between atoms: N_6  and  C_7 
REMARK    2  A    between atoms: C_7  and  C_8 
REMARK    3  A    between atoms: C_8  and  C_9 
REMARK    4  A    between atoms: C_9  and  C_10 
REMARK       I    between atoms: C_10  and  N_11 
REMARK    5  A    between atoms: N_11  and  C_12 
REMARK    6  A    between atoms: N_11  and  C_29 
REMARK    7  A    between atoms: C_12  and  C_13 
REMARK       I    between atoms: C_13  and  N_14 
REMARK    8  A    between atoms: N_14  and  C_15 
REMARK    9  A    between atoms: C_29  and  C_30 
ROOT
HETATM    1  C   UNL     1      40.513 -15.862   1.088  1.00  0.00     0.221 C 
HETATM    2  N   UNL     1      40.010 -14.728   0.437  1.00  0.00    -0.328 N 
HETATM    3  O   UNL     1      39.923 -16.344   2.065  1.00  0.00    -0.273 OA
ENDROOT
BRANCH   2   4
HETATM    4  C   UNL     1      40.677 -13.903  -0.672  1.00  0.00     0.119 C 
HETATM    5  C   UNL     1      39.684 -13.137  -1.600  1.00  0.00     0.069 C 
HETATM    6  C   UNL     1      38.744 -14.058  -2.337  1.00  0.00     0.237 C 
HETATM    7  N   UNL     1      39.563 -14.894  -3.284  1.00  0.00    -0.075 N 
HETATM    8  H   UNL     1      40.023 -14.248  -3.945  1.00  0.00     0.279 HD
HETATM    9  C   UNL     1      38.679 -15.778  -4.128  1.00  0.00     0.269 C 
HETATM   10  C   UNL     1      40.645 -15.673  -2.586  1.00  0.00     0.237 C 
HETATM   11  C   UNL     1      41.501 -14.768  -1.690  1.00  0.00     0.069 C 
BRANCH   4  12
HETATM   12  C   UNL     1      41.702 -12.841  -0.144  1.00  0.00     0.246 C 
HETATM   13  N   UNL     1      41.705 -11.593  -0.724  1.00  0.00    -0.354 N 
HETATM   14  H   UNL     1      41.058 -11.388  -1.480  1.00  0.00     0.162 HD
HETATM   15  O   UNL     1      42.338 -13.072   0.886  1.00  0.00    -0.271 OA
BRANCH  13  16
HETATM   16  C   UNL     1      42.387 -10.456  -0.083  1.00  0.00     0.084 C 
HETATM   17  C   UNL     1      43.548  -9.869  -0.910  1.00  0.00     0.025 C 
HETATM   18  C   UNL     1      43.112  -8.948  -2.049  1.00  0.00     0.002 C 
HETATM   19  C   UNL     1      42.124  -7.884  -1.592  1.00  0.00     0.000 C 
HETATM   20  C   UNL     1      40.938  -8.510  -0.871  1.00  0.00     0.002 C 
HETATM   21  C   UNL     1      41.398  -9.352   0.317  1.00  0.00     0.025 C 
ENDBRANCH  13  16
ENDBRANCH   4  12
ENDBRANCH   2   4
BRANCH   2  22
HETATM   22  C   UNL     1      38.682 -14.331   0.973  1.00  0.00     0.192 C 
BRANCH  22  23
HETATM   23  C   UNL     1      38.724 -13.085   1.785  1.00  0.00     0.070 A 
HETATM   24  O   UNL     1      39.373 -13.149   2.982  1.00  0.00    -0.325 OA
HETATM   25  C   UNL     1      39.174 -11.953   3.600  1.00  0.00     0.142 A 
HETATM   26  C   UNL     1      38.439 -11.112   2.801  1.00  0.00     0.027 A 
HETATM   27  C   UNL     1      38.141 -11.843   1.630  1.00  0.00     0.036 A 
ENDBRANCH  22  23
ENDBRANCH   2  22
BRANCH   1  28
HETATM   28  C   UNL     1      41.713 -16.641   0.608  1.00  0.00     0.112 C 
BRANCH  28  29
HETATM   29  C   UNL     1      42.820 -16.570   1.636  1.00  0.00     0.112 C 
BRANCH  29  30
HETATM   30  C   UNL     1      42.900 -17.838   2.462  1.00  0.00     0.223 C 
HETATM   31  N   UNL     1      43.724 -18.788   1.895  1.00  0.00    -0.310 N 
HETATM   32  H   UNL     1      44.127 -18.630   0.980  1.00  0.00     0.170 HD
HETATM   33  O   UNL     1      42.277 -17.917   3.514  1.00  0.00    -0.273 OA
BRANCH  31  34
HETATM   34  C   UNL     1      44.004 -20.014   2.465  1.00  0.00     0.160 A 
HETATM   35  N   UNL     1      43.789 -21.208   1.910  1.00  0.00    -0.110 NA
HETATM   36  O   UNL     1      44.216 -22.146   2.827  1.00  0.00    -0.216 OA
HETATM   37  C   UNL     1      44.679 -21.513   3.934  1.00  0.00     0.078 A 
HETATM   38  C   UNL     1      45.180 -22.370   5.023  1.00  0.00     0.079 C 
HETATM   39  C   UNL     1      44.568 -20.158   3.755  1.00  0.00     0.087 A 
ENDBRANCH  31  34
ENDBRANCH  29  30
ENDBRANCH  28  29
ENDBRANCH   1  28
TORSDOF 9
ENDMDL
MODEL 6
REMARK VINA RESULT:      -7.5      4.097      8.750
REMARK  9 active torsions:
REMARK  status: ('A' for Active; 'I' for Inactive)
REMARK    1  A    between atoms: C_5  and  N_6 
REMARK       I    between atoms: N_6  and  C_7 
REMARK    2  A    between atoms: C_7  and  C_8 
REMARK    3  A    between atoms: C_8  and  C_9 
REMARK    4  A    between atoms: C_9  and  C_10 
REMARK       I    between atoms: C_10  and  N_11 
REMARK    5  A    between atoms: N_11  and  C_12 
REMARK    6  A    between atoms: N_11  and  C_29 
REMARK    7  A    between atoms: C_12  and  C_13 
REMARK       I    between atoms: C_13  and  N_14 
REMARK    8  A    between atoms: N_14  and  C_15 
REMARK    9  A    between atoms: C_29  and  C_30 
ROOT
HETATM    1  C   UNL     1      41.783 -12.484   0.489  1.00  0.00     0.221 C 
HETATM    2  N   UNL     1      40.865 -12.390   1.543  1.00  0.00    -0.328 N 
HETATM    3  O   UNL     1      42.693 -11.652   0.367  1.00  0.00    -0.273 OA
ENDROOT
BRANCH   2   4
HETATM    4  C   UNL     1      39.592 -13.219   1.762  1.00  0.00     0.119 C 
HETATM    5  C   UNL     1      38.788 -13.534   0.462  1.00  0.00     0.069 C 
HETATM    6  C   UNL     1      38.305 -12.290  -0.241  1.00  0.00     0.237 C 
HETATM    7  N   UNL     1      37.304 -11.611   0.656  1.00  0.00    -0.075 N 
HETATM    8  H   UNL     1      36.522 -12.269   0.798  1.00  0.00     0.279 HD
HETATM    9  C   UNL     1      36.703 -10.404  -0.021  1.00  0.00     0.269 C 
HETATM   10  C   UNL     1      37.868 -11.279   2.011  1.00  0.00     0.237 C 
HETATM   11  C   UNL     1      38.523 -12.504   2.663  1.00  0.00     0.069 C 
BRANCH   4  12
HETATM   12  C   UNL     1      39.844 -14.594   2.472  1.00  0.00     0.246 C 
HETATM   13  N   UNL     1      40.447 -15.599   1.752  1.00  0.00    -0.354 N 
HETATM   14  H   UNL     1      40.707 -15.438   0.783  1.00  0.00     0.162 HD
HETATM   15  O   UNL     1      39.680 -14.685   3.690  1.00  0.00    -0.271 OA
BRANCH  13  16
HETATM   16  C   UNL     1      41.011 -16.784   2.421  1.00  0.00     0.084 C 
HETATM   17  C   UNL     1      41.544 -17.860   1.454  1.00  0.00     0.025 C 
HETATM   18  C   UNL     1      42.919 -17.555   0.863  1.00  0.00     0.002 C 
HETATM   19  C   UNL     1      43.939 -17.170   1.926  1.00  0.00     0.000 C 
HETATM   20  C   UNL     1      43.420 -16.032   2.795  1.00  0.00     0.002 C 
HETATM   21  C   UNL     1      42.088 -16.398   3.445  1.00  0.00     0.025 C 
ENDBRANCH  13  16
ENDBRANCH   4  12
ENDBRANCH   2   4
BRANCH   2  22
HETATM   22  C   UNL     1      41.232 -11.312   2.497  1.00  0.00     0.192 C 
BRANCH  22  23
HETATM   23  C   UNL     1      41.625 -11.821   3.839  1.00  0.00     0.070 A 
HETATM   24  O   UNL     1      42.568 -12.805   3.874  1.00  0.00    -0.325 OA
HETATM   25  C   UNL     1      42.672 -13.201   5.172  1.00  0.00     0.142 A 
HETATM   26  C   UNL     1      41.836 -12.460   5.973  1.00  0.00     0.027 A 
HETATM   27  C   UNL     1      41.153 -11.571   5.112  1.00  0.00     0.036 A 
ENDBRANCH  22  23
ENDBRANCH   2  22
BRANCH   1  28
HETATM   28  C   UNL     1      41.816 -13.627  -0.496  1.00  0.00     0.112 C 
BRANCH  28  29
HETATM   29  C   UNL     1      42.278 -13.132  -1.848  1.00  0.00     0.112 C 
BRANCH  29  30
HETATM   30  C   UNL     1      41.212 -13.321  -2.908  1.00  0.00     0.223 C 
HETATM   31  N   UNL     1      40.345 -14.352  -2.607  1.00  0.00    -0.310 N 
HETATM   32  H   UNL     1      40.513 -14.939  -1.801  1.00  0.00     0.170 HD
HETATM   33  O   UNL     1      41.189 -12.583  -3.885  1.00  0.00    -0.273 OA
BRANCH  31  34
HETATM   34  C   UNL     1      39.259 -14.705  -3.384  1.00  0.00     0.160 A 
HETATM   35  N   UNL     1      39.204 -15.724  -4.243  1.00  0.00    -0.110 NA
HETATM   36  O   UNL     1      37.937 -15.702  -4.791  1.00  0.00    -0.216 OA
HETATM   37  C   UNL     1      37.238 -14.666  -4.265  1.00  0.00     0.078 A 
HETATM   38  C   UNL     1      35.855 -14.493  -4.742  1.00  0.00     0.079 C 
HETATM   39  C   UNL     1      38.032 -14.001  -3.365  1.00  0.00     0.087 A 
ENDBRANCH  31  34
ENDBRANCH  29  30
ENDBRANCH  28  29
ENDBRANCH   1  28
TORSDOF 9
ENDMDL
MODEL 7
REMARK VINA RESULT:      -7.3      3.761      6.810
REMARK  9 active torsions:
REMARK  status: ('A' for Active; 'I' for Inactive)
REMARK    1  A    between atoms: C_5  and  N_6 
REMARK       I    between atoms: N_6  and  C_7 
REMARK    2  A    between atoms: C_7  and  C_8 
REMARK    3  A    between atoms: C_8  and  C_9 
REMARK    4  A    between atoms: C_9  and  C_10 
REMARK       I    between atoms: C_10  and  N_11 
REMARK    5  A    between atoms: N_11  and  C_12 
REMARK    6  A    between atoms: N_11  and  C_29 
REMARK    7  A    between atoms: C_12  and  C_13 
REMARK       I    between atoms: C_13  and  N_14 
REMARK    8  A    between atoms: N_14  and  C_15 
REMARK    9  A    between atoms: C_29  and  C_30 
ROOT
HETATM    1  C   UNL     1      39.554 -14.449   1.891  1.00  0.00     0.221 C 
HETATM    2  N   UNL     1      39.354 -13.261   1.176  1.00  0.00    -0.328 N 
HETATM    3  O   UNL     1      38.695 -15.341   1.888  1.00  0.00    -0.273 OA
ENDROOT
BRANCH   2   4
HETATM    4  C   UNL     1      40.220 -11.993   1.191  1.00  0.00     0.119 C 
HETATM    5  C   UNL     1      40.593 -11.476   2.615  1.00  0.00     0.069 C 
HETATM    6  C   UNL     1      39.383 -11.109   3.439  1.00  0.00     0.237 C 
HETATM    7  N   UNL     1      38.717  -9.931   2.782  1.00  0.00    -0.075 N 
HETATM    8  H   UNL     1      39.397  -9.154   2.780  1.00  0.00     0.279 HD
HETATM    9  C   UNL     1      37.548  -9.444   3.603  1.00  0.00     0.269 C 
HETATM   10  C   UNL     1      38.333 -10.201   1.353  1.00  0.00     0.237 C 
HETATM   11  C   UNL     1      39.519 -10.745   0.545  1.00  0.00     0.069 C 
BRANCH   4  12
HETATM   12  C   UNL     1      41.567 -12.136   0.403  1.00  0.00     0.246 C 
HETATM   13  N   UNL     1      41.545 -11.970  -0.963  1.00  0.00    -0.354 N 
HETATM   14  H   UNL     1      40.665 -11.769  -1.431  1.00  0.00     0.162 HD
HETATM   15  O   UNL     1      42.629 -12.199   1.025  1.00  0.00    -0.271 OA
BRANCH  13  16
HETATM   16  C   UNL     1      42.787 -11.761  -1.726  1.00  0.00     0.084 C 
HETATM   17  C   UNL     1      42.754 -12.338  -3.155  1.00  0.00     0.025 C 
HETATM   18  C   UNL     1      42.002 -11.477  -4.169  1.00  0.00     0.002 C 
HETATM   19  C   UNL     1      42.444 -10.021  -4.138  1.00  0.00     0.000 C 
HETATM   20  C   UNL     1      42.362  -9.453  -2.727  1.00  0.00     0.002 C 
HETATM   21  C   UNL     1      43.195 -10.281  -1.751  1.00  0.00     0.025 C 
ENDBRANCH  13  16
ENDBRANCH   4  12
ENDBRANCH   2   4
BRANCH   2  22
HETATM   22  C   UNL     1      38.115 -13.314   0.358  1.00  0.00     0.192 C 
BRANCH  22  23
HETATM   23  C   UNL     1      38.372 -13.572  -1.084  1.00  0.00     0.070 A 
HETATM   24  O   UNL     1      39.459 -14.336  -1.391  1.00  0.00    -0.325 OA
HETATM   25  C   UNL     1      39.572 -14.330  -2.747  1.00  0.00     0.142 A 
HETATM   26  C   UNL     1      38.552 -13.604  -3.315  1.00  0.00     0.027 A 
HETATM   27  C   UNL     1      37.779 -13.108  -2.242  1.00  0.00     0.036 A 
ENDBRANCH  22  23
ENDBRANCH   2  22
BRANCH   1  28
HETATM   28  C   UNL     1      40.836 -14.788   2.611  1.00  0.00     0.112 C 
BRANCH  28  29
HETATM   29  C   UNL     1      40.594 -15.911   3.596  1.00  0.00     0.112 C 
BRANCH  29  30
HETATM   30  C   UNL     1      41.176 -15.595   4.959  1.00  0.00     0.223 C 
HETATM   31  N   UNL     1      42.541 -15.400   4.919  1.00  0.00    -0.310 N 
HETATM   32  H   UNL     1      43.052 -15.558   4.060  1.00  0.00     0.170 HD
HETATM   33  O   UNL     1      40.437 -15.526   5.933  1.00  0.00    -0.273 OA
BRANCH  31  34
HETATM   34  C   UNL     1      43.310 -15.057   6.014  1.00  0.00     0.160 A 
HETATM   35  N   UNL     1      43.620 -15.854   7.038  1.00  0.00    -0.110 NA
HETATM   36  O   UNL     1      44.400 -15.101   7.893  1.00  0.00    -0.216 OA
HETATM   37  C   UNL     1      44.548 -13.853   7.384  1.00  0.00     0.078 A 
HETATM   38  C   UNL     1      45.358 -12.910   8.174  1.00  0.00     0.079 C 
HETATM   39  C   UNL     1      43.876 -13.773   6.190  1.00  0.00     0.087 A 
ENDBRANCH  31  34
ENDBRANCH  29  30
ENDBRANCH  28  29
ENDBRANCH   1  28
TORSDOF 9
ENDMDL
MODEL 8
REMARK VINA RESULT:      -7.2      3.814      7.296
REMARK  9 active torsions:
REMARK  status: ('A' for Active; 'I' for Inactive)
REMARK    1  A    between atoms: C_5  and  N_6 
REMARK       I    between atoms: N_6  and  C_7 
REMARK    2  A    between atoms: C_7  and  C_8 
REMARK    3  A    between atoms: C_8  and  C_9 
REMARK    4  A    between atoms: C_9  and  C_10 
REMARK       I    between atoms: C_10  and  N_11 
REMARK    5  A    between atoms: N_11  and  C_12 
REMARK    6  A    between atoms: N_11  and  C_29 
REMARK    7  A    between atoms: C_12  and  C_13 
REMARK       I    between atoms: C_13  and  N_14 
REMARK    8  A    between atoms: N_14  and  C_15 
REMARK    9  A    between atoms: C_29  and  C_30 
ROOT
HETATM    1  C   UNL     1      39.848 -15.134   1.466  1.00  0.00     0.221 C 
HETATM    2  N   UNL     1      40.610 -15.139   0.292  1.00  0.00    -0.328 N 
HETATM    3  O   UNL     1      39.656 -16.181   2.100  1.00  0.00    -0.273 OA
ENDROOT
BRANCH   2   4
HETATM    4  C   UNL     1      40.819 -13.989  -0.703  1.00  0.00     0.119 C 
HETATM    5  C   UNL     1      39.532 -13.169  -1.030  1.00  0.00     0.069 C 
HETATM    6  C   UNL     1      38.448 -14.010  -1.657  1.00  0.00     0.237 C 
HETATM    7  N   UNL     1      38.941 -14.473  -3.001  1.00  0.00    -0.075 N 
HETATM    8  H   UNL     1      39.116 -13.631  -3.572  1.00  0.00     0.279 HD
HETATM    9  C   UNL     1      37.871 -15.245  -3.733  1.00  0.00     0.269 C 
HETATM   10  C   UNL     1      40.234 -15.238  -2.915  1.00  0.00     0.237 C 
HETATM   11  C   UNL     1      41.294 -14.463  -2.122  1.00  0.00     0.069 C 
BRANCH   4  12
HETATM   12  C   UNL     1      41.905 -12.951  -0.254  1.00  0.00     0.246 C 
HETATM   13  N   UNL     1      42.066 -11.810  -1.005  1.00  0.00    -0.354 N 
HETATM   14  H   UNL     1      41.492 -11.665  -1.831  1.00  0.00     0.162 HD
HETATM   15  O   UNL     1      42.447 -13.079   0.845  1.00  0.00    -0.271 OA
BRANCH  13  16
HETATM   16  C   UNL     1      42.812 -10.652  -0.483  1.00  0.00     0.084 C 
HETATM   17  C   UNL     1      43.633  -9.898  -1.548  1.00  0.00     0.025 C 
HETATM   18  C   UNL     1      42.814  -8.956  -2.429  1.00  0.00     0.002 C 
HETATM   19  C   UNL     1      41.920  -8.029  -1.618  1.00  0.00     0.000 C 
HETATM   20  C   UNL     1      41.046  -8.818  -0.652  1.00  0.00     0.002 C 
HETATM   21  C   UNL     1      41.896  -9.683   0.278  1.00  0.00     0.025 C 
ENDBRANCH  13  16
ENDBRANCH   4  12
ENDBRANCH   2   4
BRANCH   2  22
HETATM   22  C   UNL     1      41.229 -16.467   0.044  1.00  0.00     0.192 C 
BRANCH  22  23
HETATM   23  C   UNL     1      42.240 -16.846   1.067  1.00  0.00     0.070 A 
HETATM   24  O   UNL     1      42.073 -18.050   1.685  1.00  0.00    -0.325 OA
HETATM   25  C   UNL     1      43.022 -18.126   2.657  1.00  0.00     0.142 A 
HETATM   26  C   UNL     1      43.818 -17.005   2.645  1.00  0.00     0.027 A 
HETATM   27  C   UNL     1      43.311 -16.174   1.623  1.00  0.00     0.036 A 
ENDBRANCH  22  23
ENDBRANCH   2  22
BRANCH   1  28
HETATM   28  C   UNL     1      39.302 -13.882   2.107  1.00  0.00     0.112 C 
BRANCH  28  29
HETATM   29  C   UNL     1      40.293 -13.343   3.116  1.00  0.00     0.112 C 
BRANCH  29  30
HETATM   30  C   UNL     1      40.301 -14.167   4.387  1.00  0.00     0.223 C 
HETATM   31  N   UNL     1      41.362 -15.048   4.440  1.00  0.00    -0.310 N 
HETATM   32  H   UNL     1      41.977 -15.151   3.643  1.00  0.00     0.170 HD
HETATM   33  O   UNL     1      39.429 -13.992   5.229  1.00  0.00    -0.273 OA
BRANCH  31  34
HETATM   34  C   UNL     1      41.626 -15.883   5.508  1.00  0.00     0.160 A 
HETATM   35  N   UNL     1      40.829 -16.849   5.967  1.00  0.00    -0.110 NA
HETATM   36  O   UNL     1      41.490 -17.423   7.035  1.00  0.00    -0.216 OA
HETATM   37  C   UNL     1      42.677 -16.793   7.218  1.00  0.00     0.078 A 
HETATM   38  C   UNL     1      43.519 -17.283   8.323  1.00  0.00     0.079 C 
HETATM   39  C   UNL     1      42.813 -15.808   6.273  1.00  0.00     0.087 A 
ENDBRANCH  31  34
ENDBRANCH  29  30
ENDBRANCH  28  29
ENDBRANCH   1  28
TORSDOF 9
ENDMDL
MODEL 9
REMARK VINA RESULT:      -7.2      2.878      4.425
REMARK  9 active torsions:
REMARK  status: ('A' for Active; 'I' for Inactive)
REMARK    1  A    between atoms: C_5  and  N_6 
REMARK       I    between atoms: N_6  and  C_7 
REMARK    2  A    between atoms: C_7  and  C_8 
REMARK    3  A    between atoms: C_8  and  C_9 
REMARK    4  A    between atoms: C_9  and  C_10 
REMARK       I    between atoms: C_10  and  N_11 
REMARK    5  A    between atoms: N_11  and  C_12 
REMARK    6  A    between atoms: N_11  and  C_29 
REMARK    7  A    between atoms: C_12  and  C_13 
REMARK       I    between atoms: C_13  and  N_14 
REMARK    8  A    between atoms: N_14  and  C_15 
REMARK    9  A    between atoms: C_29  and  C_30 
ROOT
HETATM    1  C   UNL     1      40.410 -12.460   5.193  1.00  0.00     0.221 C 
HETATM    2  N   UNL     1      40.419 -13.671   4.491  1.00  0.00    -0.328 N 
HETATM    3  O   UNL     1      39.796 -12.354   6.264  1.00  0.00    -0.273 OA
ENDROOT
BRANCH   2   4
HETATM    4  C   UNL     1      40.978 -13.946   3.088  1.00  0.00     0.119 C 
HETATM    5  C   UNL     1      41.022 -12.700   2.149  1.00  0.00     0.069 C 
HETATM    6  C   UNL     1      39.657 -12.111   1.896  1.00  0.00     0.237 C 
HETATM    7  N   UNL     1      38.853 -13.123   1.126  1.00  0.00    -0.075 N 
HETATM    8  H   UNL     1      39.342 -13.290   0.233  1.00  0.00     0.279 HD
HETATM    9  C   UNL     1      37.501 -12.568   0.751  1.00  0.00     0.269 C 
HETATM   10  C   UNL     1      38.746 -14.445   1.838  1.00  0.00     0.237 C 
HETATM   11  C   UNL     1      40.125 -14.970   2.259  1.00  0.00     0.069 C 
BRANCH   4  12
HETATM   12  C   UNL     1      42.424 -14.552   3.089  1.00  0.00     0.246 C 
HETATM   13  N   UNL     1      42.559 -15.916   3.212  1.00  0.00    -0.354 N 
HETATM   14  H   UNL     1      41.730 -16.497   3.307  1.00  0.00     0.162 HD
HETATM   15  O   UNL     1      43.381 -13.836   2.791  1.00  0.00    -0.271 OA
BRANCH  13  16
HETATM   16  C   UNL     1      43.830 -16.589   2.895  1.00  0.00     0.084 C 
HETATM   17  C   UNL     1      44.161 -17.779   3.817  1.00  0.00     0.025 C 
HETATM   18  C   UNL     1      43.412 -19.067   3.482  1.00  0.00     0.002 C 
HETATM   19  C   UNL     1      43.505 -19.429   2.006  1.00  0.00     0.000 C 
HETATM   20  C   UNL     1      43.069 -18.264   1.127  1.00  0.00     0.002 C 
HETATM   21  C   UNL     1      43.896 -17.013   1.421  1.00  0.00     0.025 C 
ENDBRANCH  13  16
ENDBRANCH   4  12
ENDBRANCH   2   4
BRANCH   2  22
HETATM   22  C   UNL     1      39.759 -14.758   5.261  1.00  0.00     0.192 C 
BRANCH  22  23
HETATM   23  C   UNL     1      40.720 -15.651   5.962  1.00  0.00     0.070 A 
HETATM   24  O   UNL     1      41.949 -15.133   6.248  1.00  0.00    -0.325 OA
HETATM   25  C   UNL     1      42.693 -16.150   6.761  1.00  0.00     0.142 A 
HETATM   26  C   UNL     1      41.947 -17.302   6.842  1.00  0.00     0.027 A 
HETATM   27  C   UNL     1      40.674 -16.983   6.320  1.00  0.00     0.036 A 
ENDBRANCH  22  23
ENDBRANCH   2  22
BRANCH   1  28
HETATM   28  C   UNL     1      41.209 -11.247   4.783  1.00  0.00     0.112 C 
BRANCH  28  29
HETATM   29  C   UNL     1      40.516  -9.987   5.254  1.00  0.00     0.112 C 
BRANCH  29  30
HETATM   30  C   UNL     1      40.913  -9.626   6.670  1.00  0.00     0.223 C 
HETATM   31  N   UNL     1      39.908  -9.875   7.581  1.00  0.00    -0.310 N 
HETATM   32  H   UNL     1      38.996 -10.177   7.263  1.00  0.00     0.170 HD
HETATM   33  O   UNL     1      42.033  -9.181   6.892  1.00  0.00    -0.273 OA
BRANCH  31  34
HETATM   34  C   UNL     1      40.025  -9.676   8.943  1.00  0.00     0.160 A 
HETATM   35  N   UNL     1      40.120  -8.497   9.561  1.00  0.00    -0.110 NA
HETATM   36  O   UNL     1      40.217  -8.772  10.910  1.00  0.00    -0.216 OA
HETATM   37  C   UNL     1      40.190 -10.115  11.097  1.00  0.00     0.078 A 
HETATM   38  C   UNL     1      40.283 -10.589  12.489  1.00  0.00     0.079 C 
HETATM   39  C   UNL     1      40.068 -10.735   9.880  1.00  0.00     0.087 A 
ENDBRANCH  31  34
ENDBRANCH  29  30
ENDBRANCH  28  29
ENDBRANCH   1  28
TORSDOF 9
ENDMDL
MODEL 10
REMARK VINA RESULT:      -7.2      3.893      7.097
REMARK  9 active torsions:
REMARK  status: ('A' for Active; 'I' for Inactive)
REMARK    1  A    between atoms: C_5  and  N_6 
REMARK       I    between atoms: N_6  and  C_7 
REMARK    2  A    between atoms: C_7  and  C_8 
REMARK    3  A    between atoms: C_8  and  C_9 
REMARK    4  A    between atoms: C_9  and  C_10 
REMARK       I    between atoms: C_10  and  N_11 
REMARK    5  A    between atoms: N_11  and  C_12 
REMARK    6  A    between atoms: N_11  and  C_29 
REMARK    7  A    between atoms: C_12  and  C_13 
REMARK       I    between atoms: C_13  and  N_14 
REMARK    8  A    between atoms: N_14  and  C_15 
REMARK    9  A    between atoms: C_29  and  C_30 
ROOT
HETATM    1  C   UNL     1      41.388 -15.144  -0.190  1.00  0.00     0.221 C 
HETATM    2  N   UNL     1      41.333 -13.852   0.349  1.00  0.00    -0.328 N 
HETATM    3  O   UNL     1      41.585 -15.316  -1.401  1.00  0.00    -0.273 OA
ENDROOT
BRANCH   2   4
HETATM    4  C   UNL     1      40.942 -13.440   1.775  1.00  0.00     0.119 C 
HETATM    5  C   UNL     1      39.641 -14.114   2.314  1.00  0.00     0.069 C 
HETATM    6  C   UNL     1      38.425 -13.784   1.485  1.00  0.00     0.237 C 
HETATM    7  N   UNL     1      38.159 -12.309   1.622  1.00  0.00    -0.075 N 
HETATM    8  H   UNL     1      37.974 -12.122   2.620  1.00  0.00     0.279 HD
HETATM    9  C   UNL     1      36.897 -11.917   0.894  1.00  0.00     0.269 C 
HETATM   10  C   UNL     1      39.336 -11.465   1.213  1.00  0.00     0.237 C 
HETATM   11  C   UNL     1      40.621 -11.911   1.922  1.00  0.00     0.069 C 
BRANCH   4  12
HETATM   12  C   UNL     1      42.058 -13.710   2.842  1.00  0.00     0.246 C 
HETATM   13  N   UNL     1      41.736 -14.468   3.944  1.00  0.00    -0.354 N 
HETATM   14  H   UNL     1      40.791 -14.827   4.050  1.00  0.00     0.162 HD
HETATM   15  O   UNL     1      43.225 -13.411   2.586  1.00  0.00    -0.271 OA
BRANCH  13  16
HETATM   16  C   UNL     1      42.783 -15.038   4.810  1.00  0.00     0.084 C 
HETATM   17  C   UNL     1      42.397 -15.113   6.301  1.00  0.00     0.025 C 
HETATM   18  C   UNL     1      41.483 -16.283   6.659  1.00  0.00     0.002 C 
HETATM   19  C   UNL     1      41.997 -17.611   6.122  1.00  0.00     0.000 C 
HETATM   20  C   UNL     1      42.266 -17.529   4.625  1.00  0.00     0.002 C 
HETATM   21  C   UNL     1      43.254 -16.409   4.304  1.00  0.00     0.025 C 
ENDBRANCH  13  16
ENDBRANCH   4  12
ENDBRANCH   2   4
BRANCH   2  22
HETATM   22  C   UNL     1      41.680 -12.820  -0.662  1.00  0.00     0.192 C 
BRANCH  22  23
HETATM   23  C   UNL     1      40.703 -12.739  -1.781  1.00  0.00     0.070 A 
HETATM   24  O   UNL     1      41.197 -12.422  -3.011  1.00  0.00    -0.325 OA
HETATM   25  C   UNL     1      40.126 -12.278  -3.839  1.00  0.00     0.142 A 
HETATM   26  C   UNL     1      38.956 -12.536  -3.164  1.00  0.00     0.027 A 
HETATM   27  C   UNL     1      39.326 -12.827  -1.833  1.00  0.00     0.036 A 
ENDBRANCH  22  23
ENDBRANCH   2  22
BRANCH   1  28
HETATM   28  C   UNL     1      41.326 -16.402   0.640  1.00  0.00     0.112 C 
BRANCH  28  29
HETATM   29  C   UNL     1      42.700 -17.029   0.733  1.00  0.00     0.112 C 
BRANCH  29  30
HETATM   30  C   UNL     1      42.648 -18.398   1.381  1.00  0.00     0.223 C 
HETATM   31  N   UNL     1      43.899 -18.870   1.719  1.00  0.00    -0.310 N 
HETATM   32  H   UNL     1      44.727 -18.354   1.452  1.00  0.00     0.170 HD
HETATM   33  O   UNL     1      41.566 -18.944   1.558  1.00  0.00    -0.273 OA
BRANCH  31  34
HETATM   34  C   UNL     1      44.129 -20.072   2.361  1.00  0.00     0.160 A 
HETATM   35  N   UNL     1      43.964 -21.287   1.838  1.00  0.00    -0.110 NA
HETATM   36  O   UNL     1      44.310 -22.186   2.827  1.00  0.00    -0.216 OA
HETATM   37  C   UNL     1      44.673 -21.507   3.943  1.00  0.00     0.078 A 
HETATM   38  C   UNL     1      45.077 -22.317   5.105  1.00  0.00     0.079 C 
HETATM   39  C   UNL     1      44.577 -20.160   3.700  1.00  0.00     0.087 A 
ENDBRANCH  31  34
ENDBRANCH  29  30
ENDBRANCH  28  29
ENDBRANCH   1  28
TORSDOF 9
ENDMDL
