MODEL 1
REMARK VINA RESULT:      -8.8      0.000      0.000
REMARK  5 active torsions:
REMARK  status: ('A' for Active; 'I' for Inactive)
REMARK    1  A    between atoms: C_6  and  O_7 
REMARK    2  A    between atoms: O_7  and  C_8 
REMARK    3  A    between atoms: C_12  and  C_13 
REMARK       I    between atoms: C_13  and  N_14 
REMARK    4  A    between atoms: N_14  and  C_15 
REMARK    5  A    between atoms: C_15  and  C_16 
ROOT
HETATM    1  C   UNL     1      44.415 -22.571   3.701  1.00  0.00     0.002 A 
HETATM    2  C   UNL     1      44.363 -21.890   4.918  1.00  0.00     0.025 A 
HETATM    3  C   UNL     1      44.316 -20.490   4.941  1.00  0.00     0.078 A 
HETATM    4  C   UNL     1      44.272 -19.815   6.206  1.00  0.00     0.102 C 
HETATM    5  N   UNL     1      44.245 -19.294   7.244  1.00  0.00    -0.191 NA
HETATM    6  C   UNL     1      44.313 -19.770   3.736  1.00  0.00     0.096 A 
HETATM    7  C   UNL     1      44.389 -20.461   2.518  1.00  0.00     0.039 A 
HETATM    8  C   UNL     1      44.432 -21.856   2.505  1.00  0.00     0.003 A 
ENDROOT
BRANCH   6   9
HETATM    9  O   UNL     1      44.282 -18.392   3.828  1.00  0.00    -0.308 OA
BRANCH   9  10
HETATM   10  C   UNL     1      43.391 -17.701   3.043  1.00  0.00     0.098 A 
HETATM   11  C   UNL     1      42.083 -17.397   3.446  1.00  0.00     0.068 A 
HETATM   12 CL   UNL     1      41.453 -17.903   4.972  1.00  0.00    -0.081 Cl
HETATM   13  C   UNL     1      41.257 -16.631   2.619  1.00  0.00     0.044 A 
HETATM   14  C   UNL     1      41.748 -16.147   1.400  1.00  0.00     0.033 A 
HETATM   15  C   UNL     1      43.068 -16.418   1.019  1.00  0.00     0.020 A 
HETATM   16  C   UNL     1      43.887 -17.194   1.839  1.00  0.00     0.040 A 
BRANCH  14  17
HETATM   17  C   UNL     1      40.921 -15.280   0.521  1.00  0.00     0.251 C 
HETATM   18  N   UNL     1      41.541 -14.791  -0.607  1.00  0.00    -0.353 N 
HETATM   19  H   UNL     1      42.546 -14.862  -0.693  1.00  0.00     0.163 HD
HETATM   20  O   UNL     1      39.766 -15.022   0.836  1.00  0.00    -0.268 OA
BRANCH  18  21
HETATM   21  C   UNL     1      40.858 -13.890  -1.509  1.00  0.00     0.161 C 
BRANCH  21  22
HETATM   22  C   UNL     1      39.888 -14.623  -2.395  1.00  0.00    -0.038 A 
HETATM   23  C   UNL     1      40.300 -15.691  -3.195  1.00  0.00     0.028 A 
HETATM   24  C   UNL     1      39.358 -16.324  -3.994  1.00  0.00     0.116 A 
HETATM   25  N   UNL     1      38.059 -15.965  -4.055  1.00  0.00    -0.273 NA
HETATM   26  C   UNL     1      37.681 -14.927  -3.279  1.00  0.00     0.116 A 
HETATM   27  C   UNL     1      38.545 -14.234  -2.447  1.00  0.00     0.028 A 
ENDBRANCH  21  22
ENDBRANCH  18  21
ENDBRANCH  14  17
ENDBRANCH   9  10
ENDBRANCH   6   9
TORSDOF 5
ENDMDL
MODEL 2
REMARK VINA RESULT:      -8.7      2.141      8.699
REMARK  5 active torsions:
REMARK  status: ('A' for Active; 'I' for Inactive)
REMARK    1  A    between atoms: C_6  and  O_7 
REMARK    2  A    between atoms: O_7  and  C_8 
REMARK    3  A    between atoms: C_12  and  C_13 
REMARK       I    between atoms: C_13  and  N_14 
REMARK    4  A    between atoms: N_14  and  C_15 
REMARK    5  A    between atoms: C_15  and  C_16 
ROOT
HETATM    1  C   UNL     1      42.593 -12.207  -2.880  1.00  0.00     0.002 A 
HETATM    2  C   UNL     1      41.849 -13.225  -3.478  1.00  0.00     0.025 A 
HETATM    3  C   UNL     1      41.066 -14.081  -2.692  1.00  0.00     0.078 A 
HETATM    4  C   UNL     1      40.317 -15.124  -3.332  1.00  0.00     0.102 C 
HETATM    5  N   UNL     1      39.728 -15.965  -3.875  1.00  0.00    -0.191 NA
HETATM    6  C   UNL     1      41.024 -13.909  -1.300  1.00  0.00     0.096 A 
HETATM    7  C   UNL     1      41.793 -12.899  -0.704  1.00  0.00     0.039 A 
HETATM    8  C   UNL     1      42.567 -12.049  -1.496  1.00  0.00     0.003 A 
ENDROOT
BRANCH   6   9
HETATM    9  O   UNL     1      40.246 -14.796  -0.581  1.00  0.00    -0.308 OA
BRANCH   9  10
HETATM   10  C   UNL     1      40.800 -15.423   0.508  1.00  0.00     0.098 A 
HETATM   11  C   UNL     1      40.492 -15.081   1.833  1.00  0.00     0.068 A 
HETATM   12 CL   UNL     1      39.400 -13.800   2.219  1.00  0.00    -0.081 Cl
HETATM   13  C   UNL     1      41.044 -15.810   2.890  1.00  0.00     0.044 A 
HETATM   14  C   UNL     1      41.886 -16.897   2.622  1.00  0.00     0.033 A 
HETATM   15  C   UNL     1      42.159 -17.261   1.297  1.00  0.00     0.020 A 
HETATM   16  C   UNL     1      41.618 -16.524   0.243  1.00  0.00     0.040 A 
BRANCH  14  17
HETATM   17  C   UNL     1      42.444 -17.732   3.716  1.00  0.00     0.251 C 
HETATM   18  N   UNL     1      43.790 -18.014   3.638  1.00  0.00    -0.353 N 
HETATM   19  H   UNL     1      44.288 -17.829   2.778  1.00  0.00     0.163 HD
HETATM   20  O   UNL     1      41.707 -18.144   4.603  1.00  0.00    -0.268 OA
BRANCH  18  21
HETATM   21  C   UNL     1      44.438 -18.866   4.612  1.00  0.00     0.161 C 
BRANCH  21  22
HETATM   22  C   UNL     1      44.542 -20.285   4.124  1.00  0.00    -0.038 A 
HETATM   23  C   UNL     1      44.446 -20.594   2.765  1.00  0.00     0.028 A 
HETATM   24  C   UNL     1      44.545 -21.923   2.378  1.00  0.00     0.116 A 
HETATM   25  N   UNL     1      44.721 -22.947   3.239  1.00  0.00    -0.273 NA
HETATM   26  C   UNL     1      44.805 -22.629   4.548  1.00  0.00     0.116 A 
HETATM   27  C   UNL     1      44.720 -21.334   5.032  1.00  0.00     0.028 A 
ENDBRANCH  21  22
ENDBRANCH  18  21
ENDBRANCH  14  17
ENDBRANCH   9  10
ENDBRANCH   6   9
TORSDOF 5
ENDMDL
MODEL 3
REMARK VINA RESULT:      -8.7      1.474      2.433
REMARK  5 active torsions:
REMARK  status: ('A' for Active; 'I' for Inactive)
REMARK    1  A    between atoms: C_6  and  O_7 
REMARK    2  A    between atoms: O_7  and  C_8 
REMARK    3  A    between atoms: C_12  and  C_13 
REMARK       I    between atoms: C_13  and  N_14 
REMARK    4  A    between atoms: N_14  and  C_15 
REMARK    5  A    between atoms: C_15  and  C_16 
ROOT
HETATM    1  C   UNL     1      44.637 -22.658   4.185  1.00  0.00     0.002 A 
HETATM    2  C   UNL     1      44.472 -21.901   5.346  1.00  0.00     0.025 A 
HETATM    3  C   UNL     1      44.372 -20.505   5.268  1.00  0.00     0.078 A 
HETATM    4  C   UNL     1      44.211 -19.750   6.478  1.00  0.00     0.102 C 
HETATM    5  N   UNL     1      44.090 -19.164   7.472  1.00  0.00    -0.191 NA
HETATM    6  C   UNL     1      44.429 -19.869   4.019  1.00  0.00     0.096 A 
HETATM    7  C   UNL     1      44.619 -20.634   2.860  1.00  0.00     0.039 A 
HETATM    8  C   UNL     1      44.714 -22.025   2.947  1.00  0.00     0.003 A 
ENDROOT
BRANCH   6   9
HETATM    9  O   UNL     1      44.340 -18.490   4.014  1.00  0.00    -0.308 OA
BRANCH   9  10
HETATM   10  C   UNL     1      43.462 -17.892   3.143  1.00  0.00     0.098 A 
HETATM   11  C   UNL     1      42.132 -17.595   3.473  1.00  0.00     0.068 A 
HETATM   12 CL   UNL     1      41.459 -17.993   5.012  1.00  0.00    -0.081 Cl
HETATM   13  C   UNL     1      41.317 -16.923   2.557  1.00  0.00     0.044 A 
HETATM   14  C   UNL     1      41.841 -16.525   1.320  1.00  0.00     0.033 A 
HETATM   15  C   UNL     1      43.182 -16.788   1.010  1.00  0.00     0.020 A 
HETATM   16  C   UNL     1      43.990 -17.470   1.920  1.00  0.00     0.040 A 
BRANCH  14  17
HETATM   17  C   UNL     1      41.025 -15.758   0.345  1.00  0.00     0.251 C 
HETATM   18  N   UNL     1      41.539 -15.656  -0.929  1.00  0.00    -0.353 N 
HETATM   19  H   UNL     1      42.501 -15.914  -1.100  1.00  0.00     0.163 HD
HETATM   20  O   UNL     1      39.974 -15.243   0.704  1.00  0.00    -0.268 OA
BRANCH  18  21
HETATM   21  C   UNL     1      40.866 -14.885  -1.952  1.00  0.00     0.161 C 
BRANCH  21  22
HETATM   22  C   UNL     1      41.563 -13.577  -2.208  1.00  0.00    -0.038 A 
HETATM   23  C   UNL     1      42.220 -12.892  -1.183  1.00  0.00     0.028 A 
HETATM   24  C   UNL     1      42.840 -11.687  -1.481  1.00  0.00     0.116 A 
HETATM   25  N   UNL     1      42.842 -11.124  -2.707  1.00  0.00    -0.273 NA
HETATM   26  C   UNL     1      42.197 -11.797  -3.683  1.00  0.00     0.116 A 
HETATM   27  C   UNL     1      41.551 -13.007  -3.485  1.00  0.00     0.028 A 
ENDBRANCH  21  22
ENDBRANCH  18  21
ENDBRANCH  14  17
ENDBRANCH   9  10
ENDBRANCH   6   9
TORSDOF 5
ENDMDL
MODEL 4
REMARK VINA RESULT:      -8.7      6.075      8.917
REMARK  5 active torsions:
REMARK  status: ('A' for Active; 'I' for Inactive)
REMARK    1  A    between atoms: C_6  and  O_7 
REMARK    2  A    between atoms: O_7  and  C_8 
REMARK    3  A    between atoms: C_12  and  C_13 
REMARK       I    between atoms: C_13  and  N_14 
REMARK    4  A    between atoms: N_14  and  C_15 
REMARK    5  A    between atoms: C_15  and  C_16 
ROOT
HETATM    1  C   UNL     1      44.317 -20.409   2.640  1.00  0.00     0.002 A 
HETATM    2  C   UNL     1      43.408 -19.624   1.929  1.00  0.00     0.025 A 
HETATM    3  C   UNL     1      42.758 -18.553   2.559  1.00  0.00     0.078 A 
HETATM    4  C   UNL     1      41.822 -17.768   1.808  1.00  0.00     0.102 C 
HETATM    5  N   UNL     1      41.063 -17.154   1.179  1.00  0.00    -0.191 NA
HETATM    6  C   UNL     1      43.029 -18.265   3.905  1.00  0.00     0.096 A 
HETATM    7  C   UNL     1      43.927 -19.073   4.619  1.00  0.00     0.039 A 
HETATM    8  C   UNL     1      44.571 -20.136   3.982  1.00  0.00     0.003 A 
ENDROOT
BRANCH   6   9
HETATM    9  O   UNL     1      42.344 -17.208   4.471  1.00  0.00    -0.308 OA
BRANCH   9  10
HETATM   10  C   UNL     1      43.054 -16.265   5.173  1.00  0.00     0.098 A 
HETATM   11  C   UNL     1      43.425 -15.023   4.638  1.00  0.00     0.068 A 
HETATM   12 CL   UNL     1      43.050 -14.576   3.013  1.00  0.00    -0.081 Cl
HETATM   13  C   UNL     1      44.089 -14.087   5.436  1.00  0.00     0.044 A 
HETATM   14  C   UNL     1      44.359 -14.383   6.778  1.00  0.00     0.033 A 
HETATM   15  C   UNL     1      43.951 -15.608   7.321  1.00  0.00     0.020 A 
HETATM   16  C   UNL     1      43.300 -16.547   6.519  1.00  0.00     0.040 A 
BRANCH  14  17
HETATM   17  C   UNL     1      45.008 -13.393   7.674  1.00  0.00     0.251 C 
HETATM   18  N   UNL     1      44.259 -12.959   8.745  1.00  0.00    -0.353 N 
HETATM   19  H   UNL     1      43.268 -13.158   8.772  1.00  0.00     0.163 HD
HETATM   20  O   UNL     1      46.139 -12.995   7.422  1.00  0.00    -0.268 OA
BRANCH  18  21
HETATM   21  C   UNL     1      44.760 -11.952   9.655  1.00  0.00     0.161 C 
BRANCH  21  22
HETATM   22  C   UNL     1      43.706 -10.933   9.989  1.00  0.00    -0.038 A 
HETATM   23  C   UNL     1      43.728 -10.236  11.200  1.00  0.00     0.028 A 
HETATM   24  C   UNL     1      42.724  -9.312  11.452  1.00  0.00     0.116 A 
HETATM   25  N   UNL     1      41.714  -9.045  10.598  1.00  0.00    -0.273 NA
HETATM   26  C   UNL     1      41.706  -9.732   9.437  1.00  0.00     0.116 A 
HETATM   27  C   UNL     1      42.664 -10.673   9.093  1.00  0.00     0.028 A 
ENDBRANCH  21  22
ENDBRANCH  18  21
ENDBRANCH  14  17
ENDBRANCH   9  10
ENDBRANCH   6   9
TORSDOF 5
ENDMDL
MODEL 5
REMARK VINA RESULT:      -8.3      2.315      3.100
REMARK  5 active torsions:
REMARK  status: ('A' for Active; 'I' for Inactive)
REMARK    1  A    between atoms: C_6  and  O_7 
REMARK    2  A    between atoms: O_7  and  C_8 
REMARK    3  A    between atoms: C_12  and  C_13 
REMARK       I    between atoms: C_13  and  N_14 
REMARK    4  A    between atoms: N_14  and  C_15 
REMARK    5  A    between atoms: C_15  and  C_16 
ROOT
HETATM    1  C   UNL     1      44.585 -22.616   4.408  1.00  0.00     0.002 A 
HETATM    2  C   UNL     1      44.471 -21.808   5.540  1.00  0.00     0.025 A 
HETATM    3  C   UNL     1      44.389 -20.415   5.407  1.00  0.00     0.078 A 
HETATM    4  C   UNL     1      44.280 -19.607   6.587  1.00  0.00     0.102 C 
HETATM    5  N   UNL     1      44.201 -18.978   7.559  1.00  0.00    -0.191 NA
HETATM    6  C   UNL     1      44.416 -19.832   4.130  1.00  0.00     0.096 A 
HETATM    7  C   UNL     1      44.555 -20.649   2.999  1.00  0.00     0.039 A 
HETATM    8  C   UNL     1      44.632 -22.036   3.142  1.00  0.00     0.003 A 
ENDROOT
BRANCH   6   9
HETATM    9  O   UNL     1      44.349 -18.454   4.069  1.00  0.00    -0.308 OA
BRANCH   9  10
HETATM   10  C   UNL     1      43.453 -17.878   3.201  1.00  0.00     0.098 A 
HETATM   11  C   UNL     1      42.124 -17.590   3.544  1.00  0.00     0.068 A 
HETATM   12 CL   UNL     1      41.475 -17.973   5.098  1.00  0.00    -0.081 Cl
HETATM   13  C   UNL     1      41.290 -16.940   2.630  1.00  0.00     0.044 A 
HETATM   14  C   UNL     1      41.793 -16.555   1.381  1.00  0.00     0.033 A 
HETATM   15  C   UNL     1      43.133 -16.807   1.057  1.00  0.00     0.020 A 
HETATM   16  C   UNL     1      43.960 -17.468   1.966  1.00  0.00     0.040 A 
BRANCH  14  17
HETATM   17  C   UNL     1      40.957 -15.811   0.405  1.00  0.00     0.251 C 
HETATM   18  N   UNL     1      39.870 -15.141   0.922  1.00  0.00    -0.353 N 
HETATM   19  H   UNL     1      39.571 -15.334   1.868  1.00  0.00     0.163 HD
HETATM   20  O   UNL     1      41.242 -15.840  -0.786  1.00  0.00    -0.268 OA
BRANCH  18  21
HETATM   21  C   UNL     1      38.948 -14.428   0.065  1.00  0.00     0.161 C 
BRANCH  21  22
HETATM   22  C   UNL     1      38.385 -13.212   0.748  1.00  0.00    -0.038 A 
HETATM   23  C   UNL     1      37.221 -12.594   0.283  1.00  0.00     0.028 A 
HETATM   24  C   UNL     1      36.754 -11.472   0.952  1.00  0.00     0.116 A 
HETATM   25  N   UNL     1      37.361 -10.929   2.028  1.00  0.00    -0.273 NA
HETATM   26  C   UNL     1      38.487 -11.536   2.458  1.00  0.00     0.116 A 
HETATM   27  C   UNL     1      39.030 -12.661   1.859  1.00  0.00     0.028 A 
ENDBRANCH  21  22
ENDBRANCH  18  21
ENDBRANCH  14  17
ENDBRANCH   9  10
ENDBRANCH   6   9
TORSDOF 5
ENDMDL
MODEL 6
REMARK VINA RESULT:      -8.2      2.739      8.379
REMARK  5 active torsions:
REMARK  status: ('A' for Active; 'I' for Inactive)
REMARK    1  A    between atoms: C_6  and  O_7 
REMARK    2  A    between atoms: O_7  and  C_8 
REMARK    3  A    between atoms: C_12  and  C_13 
REMARK       I    between atoms: C_13  and  N_14 
REMARK    4  A    between atoms: N_14  and  C_15 
REMARK    5  A    between atoms: C_15  and  C_16 
ROOT
HETATM    1  C   UNL     1      41.817 -14.164  -3.132  1.00  0.00     0.002 A 
HETATM    2  C   UNL     1      42.304 -13.006  -2.525  1.00  0.00     0.025 A 
HETATM    3  C   UNL     1      42.027 -12.748  -1.175  1.00  0.00     0.078 A 
HETATM    4  C   UNL     1      42.533 -11.546  -0.578  1.00  0.00     0.102 C 
HETATM    5  N   UNL     1      42.948 -10.562  -0.122  1.00  0.00    -0.191 NA
HETATM    6  C   UNL     1      41.263 -13.660  -0.431  1.00  0.00     0.096 A 
HETATM    7  C   UNL     1      40.758 -14.809  -1.055  1.00  0.00     0.039 A 
HETATM    8  C   UNL     1      41.042 -15.060  -2.399  1.00  0.00     0.003 A 
ENDROOT
BRANCH   6   9
HETATM    9  O   UNL     1      41.012 -13.338   0.888  1.00  0.00    -0.308 OA
BRANCH   9  10
HETATM   10  C   UNL     1      41.426 -14.209   1.867  1.00  0.00     0.098 A 
HETATM   11  C   UNL     1      40.585 -15.166   2.452  1.00  0.00     0.068 A 
HETATM   12 CL   UNL     1      38.921 -15.314   2.016  1.00  0.00    -0.081 Cl
HETATM   13  C   UNL     1      41.096 -16.064   3.395  1.00  0.00     0.044 A 
HETATM   14  C   UNL     1      42.454 -16.021   3.733  1.00  0.00     0.033 A 
HETATM   15  C   UNL     1      43.300 -15.090   3.116  1.00  0.00     0.020 A 
HETATM   16  C   UNL     1      42.786 -14.186   2.185  1.00  0.00     0.040 A 
BRANCH  14  17
HETATM   17  C   UNL     1      43.047 -16.994   4.684  1.00  0.00     0.251 C 
HETATM   18  N   UNL     1      43.947 -17.892   4.153  1.00  0.00    -0.353 N 
HETATM   19  H   UNL     1      44.018 -17.991   3.150  1.00  0.00     0.163 HD
HETATM   20  O   UNL     1      42.706 -16.978   5.860  1.00  0.00    -0.268 OA
BRANCH  18  21
HETATM   21  C   UNL     1      44.547 -18.926   4.968  1.00  0.00     0.161 C 
BRANCH  21  22
HETATM   22  C   UNL     1      44.553 -20.254   4.261  1.00  0.00    -0.038 A 
HETATM   23  C   UNL     1      44.806 -21.442   4.952  1.00  0.00     0.028 A 
HETATM   24  C   UNL     1      44.803 -22.635   4.244  1.00  0.00     0.116 A 
HETATM   25  N   UNL     1      44.576 -22.722   2.917  1.00  0.00    -0.273 NA
HETATM   26  C   UNL     1      44.340 -21.564   2.266  1.00  0.00     0.116 A 
HETATM   27  C   UNL     1      44.320 -20.324   2.884  1.00  0.00     0.028 A 
ENDBRANCH  21  22
ENDBRANCH  18  21
ENDBRANCH  14  17
ENDBRANCH   9  10
ENDBRANCH   6   9
TORSDOF 5
ENDMDL
MODEL 7
REMARK VINA RESULT:      -7.9      1.728      2.964
REMARK  5 active torsions:
REMARK  status: ('A' for Active; 'I' for Inactive)
REMARK    1  A    between atoms: C_6  and  O_7 
REMARK    2  A    between atoms: O_7  and  C_8 
REMARK    3  A    between atoms: C_12  and  C_13 
REMARK       I    between atoms: C_13  and  N_14 
REMARK    4  A    between atoms: N_14  and  C_15 
REMARK    5  A    between atoms: C_15  and  C_16 
ROOT
HETATM    1  C   UNL     1      44.535 -17.595   7.456  1.00  0.00     0.002 A 
HETATM    2  C   UNL     1      44.918 -18.664   6.645  1.00  0.00     0.025 A 
HETATM    3  C   UNL     1      44.152 -19.005   5.522  1.00  0.00     0.078 A 
HETATM    4  C   UNL     1      44.564 -20.114   4.710  1.00  0.00     0.102 C 
HETATM    5  N   UNL     1      44.915 -21.021   4.075  1.00  0.00    -0.191 NA
HETATM    6  C   UNL     1      43.002 -18.265   5.208  1.00  0.00     0.096 A 
HETATM    7  C   UNL     1      42.612 -17.207   6.041  1.00  0.00     0.039 A 
HETATM    8  C   UNL     1      43.382 -16.872   7.156  1.00  0.00     0.003 A 
ENDROOT
BRANCH   6   9
HETATM    9  O   UNL     1      42.284 -18.664   4.098  1.00  0.00    -0.308 OA
BRANCH   9  10
HETATM   10  C   UNL     1      42.013 -17.735   3.122  1.00  0.00     0.098 A 
HETATM   11  C   UNL     1      42.788 -17.588   1.962  1.00  0.00     0.068 A 
HETATM   12 CL   UNL     1      44.192 -18.549   1.670  1.00  0.00    -0.081 Cl
HETATM   13  C   UNL     1      42.411 -16.667   0.981  1.00  0.00     0.044 A 
HETATM   14  C   UNL     1      41.244 -15.910   1.148  1.00  0.00     0.033 A 
HETATM   15  C   UNL     1      40.450 -16.089   2.289  1.00  0.00     0.020 A 
HETATM   16  C   UNL     1      40.835 -16.999   3.273  1.00  0.00     0.040 A 
BRANCH  14  17
HETATM   17  C   UNL     1      40.778 -14.964   0.102  1.00  0.00     0.251 C 
HETATM   18  N   UNL     1      41.466 -14.990  -1.090  1.00  0.00    -0.353 N 
HETATM   19  H   UNL     1      42.350 -15.477  -1.145  1.00  0.00     0.163 HD
HETATM   20  O   UNL     1      39.846 -14.206   0.341  1.00  0.00    -0.268 OA
BRANCH  18  21
HETATM   21  C   UNL     1      41.144 -14.076  -2.164  1.00  0.00     0.161 C 
BRANCH  21  22
HETATM   22  C   UNL     1      39.946 -14.541  -2.947  1.00  0.00    -0.038 A 
HETATM   23  C   UNL     1      38.804 -13.745  -3.066  1.00  0.00     0.028 A 
HETATM   24  C   UNL     1      37.730 -14.232  -3.797  1.00  0.00     0.116 A 
HETATM   25  N   UNL     1      37.714 -15.439  -4.399  1.00  0.00    -0.273 NA
HETATM   26  C   UNL     1      38.823 -16.196  -4.268  1.00  0.00     0.116 A 
HETATM   27  C   UNL     1      39.946 -15.797  -3.561  1.00  0.00     0.028 A 
ENDBRANCH  21  22
ENDBRANCH  18  21
ENDBRANCH  14  17
ENDBRANCH   9  10
ENDBRANCH   6   9
TORSDOF 5
ENDMDL
MODEL 8
REMARK VINA RESULT:      -7.6      2.402      3.773
REMARK  5 active torsions:
REMARK  status: ('A' for Active; 'I' for Inactive)
REMARK    1  A    between atoms: C_6  and  O_7 
REMARK    2  A    between atoms: O_7  and  C_8 
REMARK    3  A    between atoms: C_12  and  C_13 
REMARK       I    between atoms: C_13  and  N_14 
REMARK    4  A    between atoms: N_14  and  C_15 
REMARK    5  A    between atoms: C_15  and  C_16 
ROOT
HETATM    1  C   UNL     1      44.923 -17.723   6.557  1.00  0.00     0.002 A 
HETATM    2  C   UNL     1      45.154 -18.772   5.666  1.00  0.00     0.025 A 
HETATM    3  C   UNL     1      44.264 -19.007   4.608  1.00  0.00     0.078 A 
HETATM    4  C   UNL     1      44.521 -20.098   3.712  1.00  0.00     0.102 C 
HETATM    5  N   UNL     1      44.748 -20.992   3.007  1.00  0.00    -0.191 NA
HETATM    6  C   UNL     1      43.143 -18.180   4.441  1.00  0.00     0.096 A 
HETATM    7  C   UNL     1      42.906 -17.143   5.353  1.00  0.00     0.039 A 
HETATM    8  C   UNL     1      43.799 -16.914   6.402  1.00  0.00     0.003 A 
ENDROOT
BRANCH   6   9
HETATM    9  O   UNL     1      42.298 -18.476   3.389  1.00  0.00    -0.308 OA
BRANCH   9  10
HETATM   10  C   UNL     1      41.831 -17.444   2.611  1.00  0.00     0.098 A 
HETATM   11  C   UNL     1      42.557 -16.894   1.545  1.00  0.00     0.068 A 
HETATM   12 CL   UNL     1      44.140 -17.446   1.132  1.00  0.00    -0.081 Cl
HETATM   13  C   UNL     1      41.988 -15.890   0.755  1.00  0.00     0.044 A 
HETATM   14  C   UNL     1      40.682 -15.455   1.016  1.00  0.00     0.033 A 
HETATM   15  C   UNL     1      39.945 -16.036   2.056  1.00  0.00     0.020 A 
HETATM   16  C   UNL     1      40.519 -17.028   2.852  1.00  0.00     0.040 A 
BRANCH  14  17
HETATM   17  C   UNL     1      40.021 -14.435   0.164  1.00  0.00     0.251 C 
HETATM   18  N   UNL     1      40.166 -14.593  -1.197  1.00  0.00    -0.353 N 
HETATM   19  H   UNL     1      40.853 -15.244  -1.552  1.00  0.00     0.163 HD
HETATM   20  O   UNL     1      39.413 -13.509   0.686  1.00  0.00    -0.268 OA
BRANCH  18  21
HETATM   21  C   UNL     1      39.618 -13.631  -2.128  1.00  0.00     0.161 C 
BRANCH  21  22
HETATM   22  C   UNL     1      40.639 -12.600  -2.525  1.00  0.00    -0.038 A 
HETATM   23  C   UNL     1      40.752 -11.389  -1.838  1.00  0.00     0.028 A 
HETATM   24  C   UNL     1      41.710 -10.476  -2.256  1.00  0.00     0.116 A 
HETATM   25  N   UNL     1      42.542 -10.682  -3.298  1.00  0.00    -0.273 NA
HETATM   26  C   UNL     1      42.413 -11.854  -3.953  1.00  0.00     0.116 A 
HETATM   27  C   UNL     1      41.490 -12.829  -3.611  1.00  0.00     0.028 A 
ENDBRANCH  21  22
ENDBRANCH  18  21
ENDBRANCH  14  17
ENDBRANCH   9  10
ENDBRANCH   6   9
TORSDOF 5
ENDMDL
MODEL 9
REMARK VINA RESULT:      -7.5      2.181      2.763
REMARK  5 active torsions:
REMARK  status: ('A' for Active; 'I' for Inactive)
REMARK    1  A    between atoms: C_6  and  O_7 
REMARK    2  A    between atoms: O_7  and  C_8 
REMARK    3  A    between atoms: C_12  and  C_13 
REMARK       I    between atoms: C_13  and  N_14 
REMARK    4  A    between atoms: N_14  and  C_15 
REMARK    5  A    between atoms: C_15  and  C_16 
ROOT
HETATM    1  C   UNL     1      44.824 -19.384   5.004  1.00  0.00     0.002 A 
HETATM    2  C   UNL     1      44.896 -18.348   5.936  1.00  0.00     0.025 A 
HETATM    3  C   UNL     1      43.959 -17.306   5.905  1.00  0.00     0.078 A 
HETATM    4  C   UNL     1      44.062 -16.249   6.870  1.00  0.00     0.102 C 
HETATM    5  N   UNL     1      44.173 -15.402   7.657  1.00  0.00    -0.191 NA
HETATM    6  C   UNL     1      42.941 -17.309   4.940  1.00  0.00     0.096 A 
HETATM    7  C   UNL     1      42.889 -18.341   3.992  1.00  0.00     0.039 A 
HETATM    8  C   UNL     1      43.825 -19.377   4.032  1.00  0.00     0.003 A 
ENDROOT
BRANCH   6   9
HETATM    9  O   UNL     1      42.060 -16.245   4.954  1.00  0.00    -0.308 OA
BRANCH   9  10
HETATM   10  C   UNL     1      41.855 -15.546   3.789  1.00  0.00     0.098 A 
HETATM   11  C   UNL     1      42.619 -14.431   3.415  1.00  0.00     0.068 A 
HETATM   12 CL   UNL     1      43.879 -13.805   4.416  1.00  0.00    -0.081 Cl
HETATM   13  C   UNL     1      42.396 -13.812   2.182  1.00  0.00     0.044 A 
HETATM   14  C   UNL     1      41.426 -14.325   1.311  1.00  0.00     0.033 A 
HETATM   15  C   UNL     1      40.693 -15.463   1.670  1.00  0.00     0.020 A 
HETATM   16  C   UNL     1      40.908 -16.072   2.907  1.00  0.00     0.040 A 
BRANCH  14  17
HETATM   17  C   UNL     1      41.200 -13.732  -0.032  1.00  0.00     0.251 C 
HETATM   18  N   UNL     1      39.896 -13.420  -0.347  1.00  0.00    -0.353 N 
HETATM   19  H   UNL     1      39.146 -13.775   0.230  1.00  0.00     0.163 HD
HETATM   20  O   UNL     1      42.147 -13.571  -0.792  1.00  0.00    -0.268 OA
BRANCH  18  21
HETATM   21  C   UNL     1      39.542 -12.892  -1.647  1.00  0.00     0.161 C 
BRANCH  21  22
HETATM   22  C   UNL     1      39.076 -13.978  -2.577  1.00  0.00    -0.038 A 
HETATM   23  C   UNL     1      39.977 -14.877  -3.153  1.00  0.00     0.028 A 
HETATM   24  C   UNL     1      39.486 -15.853  -4.008  1.00  0.00     0.116 A 
HETATM   25  N   UNL     1      38.182 -15.987  -4.328  1.00  0.00    -0.273 NA
HETATM   26  C   UNL     1      37.328 -15.106  -3.767  1.00  0.00     0.116 A 
HETATM   27  C   UNL     1      37.720 -14.099  -2.901  1.00  0.00     0.028 A 
ENDBRANCH  21  22
ENDBRANCH  18  21
ENDBRANCH  14  17
ENDBRANCH   9  10
ENDBRANCH   6   9
TORSDOF 5
ENDMDL
MODEL 10
REMARK VINA RESULT:      -7.5      1.812      2.702
REMARK  5 active torsions:
REMARK  status: ('A' for Active; 'I' for Inactive)
REMARK    1  A    between atoms: C_6  and  O_7 
REMARK    2  A    between atoms: O_7  and  C_8 
REMARK    3  A    between atoms: C_12  and  C_13 
REMARK       I    between atoms: C_13  and  N_14 
REMARK    4  A    between atoms: N_14  and  C_15 
REMARK    5  A    between atoms: C_15  and  C_16 
ROOT
HETATM    1  C   UNL     1      45.456 -17.908   6.607  1.00  0.00     0.002 A 
HETATM    2  C   UNL     1      45.380 -18.797   5.534  1.00  0.00     0.025 A 
HETATM    3  C   UNL     1      44.186 -18.930   4.812  1.00  0.00     0.078 A 
HETATM    4  C   UNL     1      44.132 -19.857   3.719  1.00  0.00     0.102 C 
HETATM    5  N   UNL     1      44.114 -20.621   2.844  1.00  0.00    -0.191 NA
HETATM    6  C   UNL     1      43.066 -18.161   5.165  1.00  0.00     0.096 A 
HETATM    7  C   UNL     1      43.144 -17.287   6.259  1.00  0.00     0.039 A 
HETATM    8  C   UNL     1      44.339 -17.159   6.970  1.00  0.00     0.003 A 
ENDROOT
BRANCH   6   9
HETATM    9  O   UNL     1      41.916 -18.351   4.424  1.00  0.00    -0.308 OA
BRANCH   9  10
HETATM   10  C   UNL     1      41.589 -17.421   3.468  1.00  0.00     0.098 A 
HETATM   11  C   UNL     1      40.981 -16.193   3.763  1.00  0.00     0.068 A 
HETATM   12 CL   UNL     1      40.548 -15.748   5.374  1.00  0.00    -0.081 Cl
HETATM   13  C   UNL     1      40.740 -15.268   2.743  1.00  0.00     0.044 A 
HETATM   14  C   UNL     1      41.132 -15.561   1.430  1.00  0.00     0.033 A 
HETATM   15  C   UNL     1      41.776 -16.772   1.145  1.00  0.00     0.020 A 
HETATM   16  C   UNL     1      42.003 -17.700   2.163  1.00  0.00     0.040 A 
BRANCH  14  17
HETATM   17  C   UNL     1      40.948 -14.581   0.330  1.00  0.00     0.251 C 
HETATM   18  N   UNL     1      39.682 -14.501  -0.207  1.00  0.00    -0.353 N 
HETATM   19  H   UNL     1      39.004 -15.218   0.010  1.00  0.00     0.163 HD
HETATM   20  O   UNL     1      41.902 -13.920  -0.061  1.00  0.00    -0.268 OA
BRANCH  18  21
HETATM   21  C   UNL     1      39.393 -13.626  -1.322  1.00  0.00     0.161 C 
BRANCH  21  22
HETATM   22  C   UNL     1      38.918 -14.398  -2.523  1.00  0.00    -0.038 A 
HETATM   23  C   UNL     1      39.696 -15.412  -3.087  1.00  0.00     0.028 A 
HETATM   24  C   UNL     1      39.206 -16.084  -4.198  1.00  0.00     0.116 A 
HETATM   25  N   UNL     1      38.019 -15.814  -4.778  1.00  0.00    -0.273 NA
HETATM   26  C   UNL     1      37.285 -14.827  -4.223  1.00  0.00     0.116 A 
HETATM   27  C   UNL     1      37.686 -14.101  -3.114  1.00  0.00     0.028 A 
ENDBRANCH  21  22
ENDBRANCH  18  21
ENDBRANCH  14  17
ENDBRANCH   9  10
ENDBRANCH   6   9
TORSDOF 5
ENDMDL
