MODEL 1
REMARK VINA RESULT:      -7.9      0.000      0.000
REMARK  5 active torsions:
REMARK  status: ('A' for Active; 'I' for Inactive)
REMARK    1  A    between atoms: C_8  and  N_9 
REMARK       I    between atoms: N_9  and  C_10 
REMARK       I    between atoms: C_10  and  N_11 
REMARK    2  A    between atoms: N_11  and  C_12 
REMARK    3  A    between atoms: C_13  and  O_14 
REMARK    4  A    between atoms: O_14  and  C_15 
REMARK    5  A    between atoms: C_15  and  C_16 
ROOT
HETATM    1  N   UNL     1      43.221 -16.140   4.198  1.00  0.00    -0.305 N 
HETATM    2  C   UNL     1      42.917 -17.480   4.040  1.00  0.00     0.325 C 
HETATM    3  N   UNL     1      43.933 -18.120   3.352  1.00  0.00    -0.306 N 
HETATM    4  O   UNL     1      41.903 -18.026   4.453  1.00  0.00    -0.247 OA
HETATM    5  H   UNL     1      44.198 -15.897   4.149  1.00  0.00     0.171 HD
HETATM    6  H   UNL     1      44.581 -17.532   2.845  1.00  0.00     0.171 HD
ENDROOT
BRANCH   3   7
HETATM    7  C   UNL     1      44.064 -19.502   3.090  1.00  0.00     0.069 A 
HETATM    8  C   UNL     1      44.639 -20.298   4.096  1.00  0.00     0.095 A 
HETATM    9  C   UNL     1      44.765 -21.679   3.939  1.00  0.00     0.039 A 
HETATM   10  C   UNL     1      44.346 -22.276   2.752  1.00  0.00     0.003 A 
HETATM   11  C   UNL     1      43.793 -21.495   1.739  1.00  0.00     0.002 A 
HETATM   12  C   UNL     1      43.646 -20.113   1.908  1.00  0.00     0.032 A 
BRANCH   8  13
HETATM   13  O   UNL     1      45.034 -19.680   5.260  1.00  0.00    -0.340 OA
BRANCH  13  14
HETATM   14  C   UNL     1      44.133 -19.975   6.345  1.00  0.00     0.293 C 
BRANCH  14  15
HETATM   15  C   UNL     1      44.090 -18.804   7.312  1.00  0.00     0.408 C 
HETATM   16  F   UNL     1      42.878 -18.202   7.299  1.00  0.00    -0.169 F 
HETATM   17  F   UNL     1      44.346 -19.193   8.580  1.00  0.00    -0.169 F 
HETATM   18  F   UNL     1      45.012 -17.873   6.978  1.00  0.00    -0.169 F 
ENDBRANCH  14  15
ENDBRANCH  13  14
ENDBRANCH   8  13
ENDBRANCH   3   7
BRANCH   1  19
HETATM   19  C   UNL     1      42.380 -15.158   4.696  1.00  0.00     0.086 A 
HETATM   20  C   UNL     1      42.734 -14.360   5.769  1.00  0.00     0.052 A 
HETATM   21  C   UNL     1      43.940 -14.309   6.630  1.00  0.00     0.072 C 
HETATM   22  N   UNL     1      41.681 -13.515   5.969  1.00  0.00    -0.280 N 
HETATM   23  H   UNL     1      41.580 -12.795   6.676  1.00  0.00     0.189 HD
HETATM   24  N   UNL     1      40.682 -13.680   5.100  1.00  0.00    -0.177 NA
HETATM   25  C   UNL     1      41.094 -14.680   4.305  1.00  0.00     0.079 A 
HETATM   26  C   UNL     1      40.221 -15.080   3.173  1.00  0.00     0.075 C 
ENDBRANCH   1  19
TORSDOF 5
ENDMDL
MODEL 2
REMARK VINA RESULT:      -7.5      0.616      1.817
REMARK  5 active torsions:
REMARK  status: ('A' for Active; 'I' for Inactive)
REMARK    1  A    between atoms: C_8  and  N_9 
REMARK       I    between atoms: N_9  and  C_10 
REMARK       I    between atoms: C_10  and  N_11 
REMARK    2  A    between atoms: N_11  and  C_12 
REMARK    3  A    between atoms: C_13  and  O_14 
REMARK    4  A    between atoms: O_14  and  C_15 
REMARK    5  A    between atoms: C_15  and  C_16 
ROOT
HETATM    1  N   UNL     1      42.931 -16.223   3.525  1.00  0.00    -0.305 N 
HETATM    2  C   UNL     1      42.755 -17.588   3.653  1.00  0.00     0.325 C 
HETATM    3  N   UNL     1      43.769 -18.263   2.993  1.00  0.00    -0.306 N 
HETATM    4  O   UNL     1      41.843 -18.127   4.264  1.00  0.00    -0.247 OA
HETATM    5  H   UNL     1      43.870 -15.913   3.329  1.00  0.00     0.171 HD
HETATM    6  H   UNL     1      44.306 -17.733   2.320  1.00  0.00     0.171 HD
ENDROOT
BRANCH   3   7
HETATM    7  C   UNL     1      44.018 -19.653   2.982  1.00  0.00     0.069 A 
HETATM    8  C   UNL     1      44.643 -20.206   4.114  1.00  0.00     0.095 A 
HETATM    9  C   UNL     1      44.885 -21.578   4.205  1.00  0.00     0.039 A 
HETATM   10  C   UNL     1      44.536 -22.409   3.143  1.00  0.00     0.003 A 
HETATM   11  C   UNL     1      43.934 -21.869   2.007  1.00  0.00     0.002 A 
HETATM   12  C   UNL     1      43.671 -20.497   1.927  1.00  0.00     0.032 A 
BRANCH   8  13
HETATM   13  O   UNL     1      44.967 -19.361   5.148  1.00  0.00    -0.340 OA
BRANCH  13  14
HETATM   14  C   UNL     1      44.202 -19.660   6.332  1.00  0.00     0.293 C 
BRANCH  14  15
HETATM   15  C   UNL     1      44.039 -18.403   7.171  1.00  0.00     0.408 C 
HETATM   16  F   UNL     1      42.737 -18.056   7.286  1.00  0.00    -0.169 F 
HETATM   17  F   UNL     1      44.536 -18.567   8.417  1.00  0.00    -0.169 F 
HETATM   18  F   UNL     1      44.692 -17.362   6.607  1.00  0.00    -0.169 F 
ENDBRANCH  14  15
ENDBRANCH  13  14
ENDBRANCH   8  13
ENDBRANCH   3   7
BRANCH   1  19
HETATM   19  C   UNL     1      42.040 -15.237   3.917  1.00  0.00     0.086 A 
HETATM   20  C   UNL     1      40.826 -15.048   3.281  1.00  0.00     0.052 A 
HETATM   21  C   UNL     1      40.178 -15.719   2.130  1.00  0.00     0.072 C 
HETATM   22  N   UNL     1      40.222 -14.012   3.935  1.00  0.00    -0.280 N 
HETATM   23  H   UNL     1      39.320 -13.589   3.740  1.00  0.00     0.189 HD
HETATM   24  N   UNL     1      40.930 -13.529   4.958  1.00  0.00    -0.177 NA
HETATM   25  C   UNL     1      42.048 -14.272   4.968  1.00  0.00     0.079 A 
HETATM   26  C   UNL     1      43.044 -14.025   6.041  1.00  0.00     0.075 C 
ENDBRANCH   1  19
TORSDOF 5
ENDMDL
MODEL 3
REMARK VINA RESULT:      -7.5      2.335      3.089
REMARK  5 active torsions:
REMARK  status: ('A' for Active; 'I' for Inactive)
REMARK    1  A    between atoms: C_8  and  N_9 
REMARK       I    between atoms: N_9  and  C_10 
REMARK       I    between atoms: C_10  and  N_11 
REMARK    2  A    between atoms: N_11  and  C_12 
REMARK    3  A    between atoms: C_13  and  O_14 
REMARK    4  A    between atoms: O_14  and  C_15 
REMARK    5  A    between atoms: C_15  and  C_16 
ROOT
HETATM    1  N   UNL     1      42.006 -16.131   2.056  1.00  0.00    -0.305 N 
HETATM    2  C   UNL     1      43.026 -17.064   2.033  1.00  0.00     0.325 C 
HETATM    3  N   UNL     1      42.641 -18.207   2.713  1.00  0.00    -0.306 N 
HETATM    4  O   UNL     1      44.109 -16.911   1.486  1.00  0.00    -0.247 OA
HETATM    5  H   UNL     1      41.077 -16.492   2.205  1.00  0.00     0.171 HD
HETATM    6  H   UNL     1      41.846 -18.123   3.332  1.00  0.00     0.171 HD
ENDROOT
BRANCH   3   7
HETATM    7  C   UNL     1      43.343 -19.428   2.820  1.00  0.00     0.069 A 
HETATM    8  C   UNL     1      44.117 -19.628   3.976  1.00  0.00     0.095 A 
HETATM    9  C   UNL     1      44.806 -20.825   4.183  1.00  0.00     0.039 A 
HETATM   10  C   UNL     1      44.756 -21.823   3.213  1.00  0.00     0.003 A 
HETATM   11  C   UNL     1      44.009 -21.628   2.053  1.00  0.00     0.002 A 
HETATM   12  C   UNL     1      43.299 -20.437   1.858  1.00  0.00     0.032 A 
BRANCH   8  13
HETATM   13  O   UNL     1      44.138 -18.628   4.919  1.00  0.00    -0.340 OA
BRANCH  13  14
HETATM   14  C   UNL     1      43.154 -18.852   5.947  1.00  0.00     0.293 C 
BRANCH  14  15
HETATM   15  C   UNL     1      43.825 -18.853   7.311  1.00  0.00     0.408 C 
HETATM   16  F   UNL     1      43.761 -20.076   7.887  1.00  0.00    -0.169 F 
HETATM   17  F   UNL     1      45.127 -18.502   7.227  1.00  0.00    -0.169 F 
HETATM   18  F   UNL     1      43.219 -17.977   8.143  1.00  0.00    -0.169 F 
ENDBRANCH  14  15
ENDBRANCH  13  14
ENDBRANCH   8  13
ENDBRANCH   3   7
BRANCH   1  19
HETATM   19  C   UNL     1      42.079 -14.819   1.617  1.00  0.00     0.086 A 
HETATM   20  C   UNL     1      41.682 -14.445   0.346  1.00  0.00     0.052 A 
HETATM   21  C   UNL     1      41.145 -15.208  -0.806  1.00  0.00     0.072 C 
HETATM   22  N   UNL     1      41.885 -13.096   0.274  1.00  0.00    -0.280 N 
HETATM   23  H   UNL     1      41.715 -12.478  -0.512  1.00  0.00     0.189 HD
HETATM   24  N   UNL     1      42.358 -12.559   1.401  1.00  0.00    -0.177 NA
HETATM   25  C   UNL     1      42.478 -13.599   2.240  1.00  0.00     0.079 A 
HETATM   26  C   UNL     1      42.934 -13.331   3.628  1.00  0.00     0.075 C 
ENDBRANCH   1  19
TORSDOF 5
ENDMDL
MODEL 4
REMARK VINA RESULT:      -7.4      3.553      4.597
REMARK  5 active torsions:
REMARK  status: ('A' for Active; 'I' for Inactive)
REMARK    1  A    between atoms: C_8  and  N_9 
REMARK       I    between atoms: N_9  and  C_10 
REMARK       I    between atoms: C_10  and  N_11 
REMARK    2  A    between atoms: N_11  and  C_12 
REMARK    3  A    between atoms: C_13  and  O_14 
REMARK    4  A    between atoms: O_14  and  C_15 
REMARK    5  A    between atoms: C_15  and  C_16 
ROOT
HETATM    1  N   UNL     1      41.936 -15.639   0.223  1.00  0.00    -0.305 N 
HETATM    2  C   UNL     1      41.960 -16.841   0.907  1.00  0.00     0.325 C 
HETATM    3  N   UNL     1      43.246 -17.117   1.341  1.00  0.00    -0.306 N 
HETATM    4  O   UNL     1      40.989 -17.557   1.108  1.00  0.00    -0.247 OA
HETATM    5  H   UNL     1      42.681 -14.994   0.434  1.00  0.00     0.171 HD
HETATM    6  H   UNL     1      43.996 -16.598   0.903  1.00  0.00     0.171 HD
ENDROOT
BRANCH   3   7
HETATM    7  C   UNL     1      43.671 -18.179   2.169  1.00  0.00     0.069 A 
HETATM    8  C   UNL     1      43.796 -17.914   3.544  1.00  0.00     0.095 A 
HETATM    9  C   UNL     1      44.166 -18.919   4.441  1.00  0.00     0.039 A 
HETATM   10  C   UNL     1      44.451 -20.195   3.962  1.00  0.00     0.003 A 
HETATM   11  C   UNL     1      44.350 -20.465   2.598  1.00  0.00     0.002 A 
HETATM   12  C   UNL     1      43.956 -19.462   1.704  1.00  0.00     0.032 A 
BRANCH   8  13
HETATM   13  O   UNL     1      43.499 -16.647   3.987  1.00  0.00    -0.340 OA
BRANCH  13  14
HETATM   14  C   UNL     1      42.837 -16.677   5.266  1.00  0.00     0.293 C 
BRANCH  14  15
HETATM   15  C   UNL     1      41.331 -16.693   5.067  1.00  0.00     0.408 C 
HETATM   16  F   UNL     1      40.863 -17.958   4.966  1.00  0.00    -0.169 F 
HETATM   17  F   UNL     1      40.685 -16.093   6.091  1.00  0.00    -0.169 F 
HETATM   18  F   UNL     1      40.991 -16.040   3.933  1.00  0.00    -0.169 F 
ENDBRANCH  14  15
ENDBRANCH  13  14
ENDBRANCH   8  13
ENDBRANCH   3   7
BRANCH   1  19
HETATM   19  C   UNL     1      40.867 -15.116  -0.485  1.00  0.00     0.086 A 
HETATM   20  C   UNL     1      39.812 -14.477   0.141  1.00  0.00     0.052 A 
HETATM   21  C   UNL     1      39.506 -14.198   1.564  1.00  0.00     0.072 C 
HETATM   22  N   UNL     1      38.965 -14.090  -0.858  1.00  0.00    -0.280 N 
HETATM   23  H   UNL     1      38.080 -13.602  -0.776  1.00  0.00     0.189 HD
HETATM   24  N   UNL     1      39.394 -14.403  -2.083  1.00  0.00    -0.177 NA
HETATM   25  C   UNL     1      40.563 -15.028  -1.876  1.00  0.00     0.079 A 
HETATM   26  C   UNL     1      41.345 -15.463  -3.062  1.00  0.00     0.075 C 
ENDBRANCH   1  19
TORSDOF 5
ENDMDL
MODEL 5
REMARK VINA RESULT:      -7.3      2.354      2.722
REMARK  5 active torsions:
REMARK  status: ('A' for Active; 'I' for Inactive)
REMARK    1  A    between atoms: C_8  and  N_9 
REMARK       I    between atoms: N_9  and  C_10 
REMARK       I    between atoms: C_10  and  N_11 
REMARK    2  A    between atoms: N_11  and  C_12 
REMARK    3  A    between atoms: C_13  and  O_14 
REMARK    4  A    between atoms: O_14  and  C_15 
REMARK    5  A    between atoms: C_15  and  C_16 
ROOT
HETATM    1  N   UNL     1      41.974 -15.995   2.171  1.00  0.00    -0.305 N 
HETATM    2  C   UNL     1      42.978 -16.940   2.073  1.00  0.00     0.325 C 
HETATM    3  N   UNL     1      42.615 -18.093   2.749  1.00  0.00    -0.306 N 
HETATM    4  O   UNL     1      44.032 -16.789   1.471  1.00  0.00    -0.247 OA
HETATM    5  H   UNL     1      41.050 -16.347   2.363  1.00  0.00     0.171 HD
HETATM    6  H   UNL     1      41.856 -18.012   3.412  1.00  0.00     0.171 HD
ENDROOT
BRANCH   3   7
HETATM    7  C   UNL     1      43.304 -19.325   2.791  1.00  0.00     0.069 A 
HETATM    8  C   UNL     1      44.167 -19.544   3.880  1.00  0.00     0.095 A 
HETATM    9  C   UNL     1      44.853 -20.752   4.024  1.00  0.00     0.039 A 
HETATM   10  C   UNL     1      44.709 -21.743   3.055  1.00  0.00     0.003 A 
HETATM   11  C   UNL     1      43.872 -21.529   1.960  1.00  0.00     0.002 A 
HETATM   12  C   UNL     1      43.168 -20.327   1.831  1.00  0.00     0.032 A 
BRANCH   8  13
HETATM   13  O   UNL     1      44.280 -18.551   4.823  1.00  0.00    -0.340 OA
BRANCH  13  14
HETATM   14  C   UNL     1      43.514 -18.856   6.004  1.00  0.00     0.293 C 
BRANCH  14  15
HETATM   15  C   UNL     1      42.619 -17.679   6.356  1.00  0.00     0.408 C 
HETATM   16  F   UNL     1      43.193 -16.505   6.007  1.00  0.00    -0.169 F 
HETATM   17  F   UNL     1      41.423 -17.757   5.731  1.00  0.00    -0.169 F 
HETATM   18  F   UNL     1      42.381 -17.639   7.686  1.00  0.00    -0.169 F 
ENDBRANCH  14  15
ENDBRANCH  13  14
ENDBRANCH   8  13
ENDBRANCH   3   7
BRANCH   1  19
HETATM   19  C   UNL     1      42.042 -14.675   1.756  1.00  0.00     0.086 A 
HETATM   20  C   UNL     1      42.546 -13.674   2.567  1.00  0.00     0.052 A 
HETATM   21  C   UNL     1      43.082 -13.672   3.948  1.00  0.00     0.072 C 
HETATM   22  N   UNL     1      42.467 -12.525   1.832  1.00  0.00    -0.280 N 
HETATM   23  H   UNL     1      42.737 -11.586   2.106  1.00  0.00     0.189 HD
HETATM   24  N   UNL     1      41.976 -12.700   0.604  1.00  0.00    -0.177 NA
HETATM   25  C   UNL     1      41.715 -14.015   0.534  1.00  0.00     0.079 A 
HETATM   26  C   UNL     1      41.202 -14.561  -0.748  1.00  0.00     0.075 C 
ENDBRANCH   1  19
TORSDOF 5
ENDMDL
MODEL 6
REMARK VINA RESULT:      -7.1      2.062      3.281
REMARK  5 active torsions:
REMARK  status: ('A' for Active; 'I' for Inactive)
REMARK    1  A    between atoms: C_8  and  N_9 
REMARK       I    between atoms: N_9  and  C_10 
REMARK       I    between atoms: C_10  and  N_11 
REMARK    2  A    between atoms: N_11  and  C_12 
REMARK    3  A    between atoms: C_13  and  O_14 
REMARK    4  A    between atoms: O_14  and  C_15 
REMARK    5  A    between atoms: C_15  and  C_16 
ROOT
HETATM    1  N   UNL     1      40.287 -15.634   3.468  1.00  0.00    -0.305 N 
HETATM    2  C   UNL     1      41.550 -16.166   3.282  1.00  0.00     0.325 C 
HETATM    3  N   UNL     1      41.548 -17.517   3.586  1.00  0.00    -0.306 N 
HETATM    4  O   UNL     1      42.528 -15.540   2.897  1.00  0.00    -0.247 OA
HETATM    5  H   UNL     1      39.520 -16.287   3.429  1.00  0.00     0.171 HD
HETATM    6  H   UNL     1      40.768 -17.860   4.130  1.00  0.00     0.171 HD
ENDROOT
BRANCH   3   7
HETATM    7  C   UNL     1      42.599 -18.443   3.416  1.00  0.00     0.069 A 
HETATM    8  C   UNL     1      43.349 -18.785   4.555  1.00  0.00     0.095 A 
HETATM    9  C   UNL     1      44.377 -19.727   4.486  1.00  0.00     0.039 A 
HETATM   10  C   UNL     1      44.691 -20.313   3.262  1.00  0.00     0.003 A 
HETATM   11  C   UNL     1      43.968 -19.967   2.121  1.00  0.00     0.002 A 
HETATM   12  C   UNL     1      42.922 -19.040   2.197  1.00  0.00     0.032 A 
BRANCH   8  13
HETATM   13  O   UNL     1      43.009 -18.196   5.750  1.00  0.00    -0.340 OA
BRANCH  13  14
HETATM   14  C   UNL     1      44.069 -17.353   6.242  1.00  0.00     0.293 C 
BRANCH  14  15
HETATM   15  C   UNL     1      43.526 -15.965   6.539  1.00  0.00     0.408 C 
HETATM   16  F   UNL     1      43.970 -15.509   7.733  1.00  0.00    -0.169 F 
HETATM   17  F   UNL     1      43.891 -15.072   5.593  1.00  0.00    -0.169 F 
HETATM   18  F   UNL     1      42.174 -15.979   6.585  1.00  0.00    -0.169 F 
ENDBRANCH  14  15
ENDBRANCH  13  14
ENDBRANCH   8  13
ENDBRANCH   3   7
BRANCH   1  19
HETATM   19  C   UNL     1      39.941 -14.294   3.414  1.00  0.00     0.086 A 
HETATM   20  C   UNL     1      39.097 -13.790   2.441  1.00  0.00     0.052 A 
HETATM   21  C   UNL     1      38.399 -14.415   1.293  1.00  0.00     0.072 C 
HETATM   22  N   UNL     1      38.978 -12.456   2.705  1.00  0.00    -0.280 N 
HETATM   23  H   UNL     1      38.444 -11.761   2.194  1.00  0.00     0.189 HD
HETATM   24  N   UNL     1      39.656 -12.055   3.783  1.00  0.00    -0.177 NA
HETATM   25  C   UNL     1      40.249 -13.169   4.236  1.00  0.00     0.079 A 
HETATM   26  C   UNL     1      41.049 -13.079   5.484  1.00  0.00     0.075 C 
ENDBRANCH   1  19
TORSDOF 5
ENDMDL
MODEL 7
REMARK VINA RESULT:      -7.1      2.088      2.893
REMARK  5 active torsions:
REMARK  status: ('A' for Active; 'I' for Inactive)
REMARK    1  A    between atoms: C_8  and  N_9 
REMARK       I    between atoms: N_9  and  C_10 
REMARK       I    between atoms: C_10  and  N_11 
REMARK    2  A    between atoms: N_11  and  C_12 
REMARK    3  A    between atoms: C_13  and  O_14 
REMARK    4  A    between atoms: O_14  and  C_15 
REMARK    5  A    between atoms: C_15  and  C_16 
ROOT
HETATM    1  N   UNL     1      40.189 -15.794   3.508  1.00  0.00    -0.305 N 
HETATM    2  C   UNL     1      41.449 -16.291   3.226  1.00  0.00     0.325 C 
HETATM    3  N   UNL     1      41.561 -17.593   3.685  1.00  0.00    -0.306 N 
HETATM    4  O   UNL     1      42.336 -15.677   2.651  1.00  0.00    -0.247 OA
HETATM    5  H   UNL     1      39.462 -16.479   3.643  1.00  0.00     0.171 HD
HETATM    6  H   UNL     1      40.873 -17.899   4.360  1.00  0.00     0.171 HD
ENDROOT
BRANCH   3   7
HETATM    7  C   UNL     1      42.636 -18.488   3.493  1.00  0.00     0.069 A 
HETATM    8  C   UNL     1      43.426 -18.798   4.614  1.00  0.00     0.095 A 
HETATM    9  C   UNL     1      44.481 -19.708   4.523  1.00  0.00     0.039 A 
HETATM   10  C   UNL     1      44.779 -20.293   3.295  1.00  0.00     0.003 A 
HETATM   11  C   UNL     1      44.016 -19.978   2.171  1.00  0.00     0.002 A 
HETATM   12  C   UNL     1      42.945 -19.083   2.270  1.00  0.00     0.032 A 
BRANCH   8  13
HETATM   13  O   UNL     1      43.100 -18.211   5.814  1.00  0.00    -0.340 OA
BRANCH  13  14
HETATM   14  C   UNL     1      44.107 -17.269   6.231  1.00  0.00     0.293 C 
BRANCH  14  15
HETATM   15  C   UNL     1      43.461 -15.932   6.553  1.00  0.00     0.408 C 
HETATM   16  F   UNL     1      44.071 -15.332   7.600  1.00  0.00    -0.169 F 
HETATM   17  F   UNL     1      43.514 -15.085   5.501  1.00  0.00    -0.169 F 
HETATM   18  F   UNL     1      42.158 -16.096   6.878  1.00  0.00    -0.169 F 
ENDBRANCH  14  15
ENDBRANCH  13  14
ENDBRANCH   8  13
ENDBRANCH   3   7
BRANCH   1  19
HETATM   19  C   UNL     1      39.763 -14.487   3.341  1.00  0.00     0.086 A 
HETATM   20  C   UNL     1      39.869 -13.544   4.347  1.00  0.00     0.052 A 
HETATM   21  C   UNL     1      40.376 -13.609   5.738  1.00  0.00     0.072 C 
HETATM   22  N   UNL     1      39.367 -12.386   3.827  1.00  0.00    -0.280 N 
HETATM   23  H   UNL     1      39.274 -11.483   4.280  1.00  0.00     0.189 HD
HETATM   24  N   UNL     1      38.966 -12.491   2.558  1.00  0.00    -0.177 NA
HETATM   25  C   UNL     1      39.207 -13.772   2.239  1.00  0.00     0.079 A 
HETATM   26  C   UNL     1      38.922 -14.213   0.850  1.00  0.00     0.075 C 
ENDBRANCH   1  19
TORSDOF 5
ENDMDL
MODEL 8
REMARK VINA RESULT:      -7.1      3.374      7.034
REMARK  5 active torsions:
REMARK  status: ('A' for Active; 'I' for Inactive)
REMARK    1  A    between atoms: C_8  and  N_9 
REMARK       I    between atoms: N_9  and  C_10 
REMARK       I    between atoms: C_10  and  N_11 
REMARK    2  A    between atoms: N_11  and  C_12 
REMARK    3  A    between atoms: C_13  and  O_14 
REMARK    4  A    between atoms: O_14  and  C_15 
REMARK    5  A    between atoms: C_15  and  C_16 
ROOT
HETATM    1  N   UNL     1      42.120 -18.086   4.554  1.00  0.00    -0.305 N 
HETATM    2  C   UNL     1      42.081 -16.736   4.255  1.00  0.00     0.325 C 
HETATM    3  N   UNL     1      40.781 -16.266   4.341  1.00  0.00    -0.306 N 
HETATM    4  O   UNL     1      43.051 -16.051   3.965  1.00  0.00    -0.247 OA
HETATM    5  H   UNL     1      41.358 -18.439   5.111  1.00  0.00     0.171 HD
HETATM    6  H   UNL     1      40.045 -16.959   4.332  1.00  0.00     0.171 HD
ENDROOT
BRANCH   3   7
HETATM    7  C   UNL     1      40.334 -14.932   4.227  1.00  0.00     0.069 A 
HETATM    8  C   UNL     1      39.804 -14.532   2.988  1.00  0.00     0.095 A 
HETATM    9  C   UNL     1      39.298 -13.244   2.802  1.00  0.00     0.039 A 
HETATM   10  C   UNL     1      39.351 -12.328   3.849  1.00  0.00     0.003 A 
HETATM   11  C   UNL     1      39.894 -12.706   5.077  1.00  0.00     0.002 A 
HETATM   12  C   UNL     1      40.379 -14.005   5.268  1.00  0.00     0.032 A 
BRANCH   8  13
HETATM   13  O   UNL     1      39.757 -15.463   1.977  1.00  0.00    -0.340 OA
BRANCH  13  14
HETATM   14  C   UNL     1      40.643 -15.112   0.896  1.00  0.00     0.293 C 
BRANCH  14  15
HETATM   15  C   UNL     1      41.419 -16.339   0.448  1.00  0.00     0.408 C 
HETATM   16  F   UNL     1      40.917 -17.467   1.001  1.00  0.00    -0.169 F 
HETATM   17  F   UNL     1      41.388 -16.487  -0.895  1.00  0.00    -0.169 F 
HETATM   18  F   UNL     1      42.717 -16.246   0.816  1.00  0.00    -0.169 F 
ENDBRANCH  14  15
ENDBRANCH  13  14
ENDBRANCH   8  13
ENDBRANCH   3   7
BRANCH   1  19
HETATM   19  C   UNL     1      43.212 -18.928   4.422  1.00  0.00     0.086 A 
HETATM   20  C   UNL     1      43.901 -19.415   5.518  1.00  0.00     0.052 A 
HETATM   21  C   UNL     1      43.741 -19.216   6.978  1.00  0.00     0.072 C 
HETATM   22  N   UNL     1      44.893 -20.207   5.012  1.00  0.00    -0.280 N 
HETATM   23  H   UNL     1      45.603 -20.724   5.520  1.00  0.00     0.189 HD
HETATM   24  N   UNL     1      44.890 -20.293   3.680  1.00  0.00    -0.177 NA
HETATM   25  C   UNL     1      43.862 -19.520   3.299  1.00  0.00     0.079 A 
HETATM   26  C   UNL     1      43.542 -19.444   1.851  1.00  0.00     0.075 C 
ENDBRANCH   1  19
TORSDOF 5
ENDMDL
MODEL 9
REMARK VINA RESULT:      -7.0      2.443      6.354
REMARK  5 active torsions:
REMARK  status: ('A' for Active; 'I' for Inactive)
REMARK    1  A    between atoms: C_8  and  N_9 
REMARK       I    between atoms: N_9  and  C_10 
REMARK       I    between atoms: C_10  and  N_11 
REMARK    2  A    between atoms: N_11  and  C_12 
REMARK    3  A    between atoms: C_13  and  O_14 
REMARK    4  A    between atoms: O_14  and  C_15 
REMARK    5  A    between atoms: C_15  and  C_16 
ROOT
HETATM    1  N   UNL     1      43.564 -18.801   2.773  1.00  0.00    -0.305 N 
HETATM    2  C   UNL     1      42.542 -17.965   3.185  1.00  0.00     0.325 C 
HETATM    3  N   UNL     1      42.382 -16.927   2.283  1.00  0.00    -0.306 N 
HETATM    4  O   UNL     1      41.870 -18.119   4.196  1.00  0.00    -0.247 OA
HETATM    5  H   UNL     1      43.782 -18.783   1.789  1.00  0.00     0.171 HD
HETATM    6  H   UNL     1      43.145 -16.760   1.641  1.00  0.00     0.171 HD
ENDROOT
BRANCH   3   7
HETATM    7  C   UNL     1      41.379 -15.934   2.276  1.00  0.00     0.069 A 
HETATM    8  C   UNL     1      41.765 -14.625   2.618  1.00  0.00     0.095 A 
HETATM    9  C   UNL     1      40.846 -13.574   2.593  1.00  0.00     0.039 A 
HETATM   10  C   UNL     1      39.518 -13.829   2.259  1.00  0.00     0.003 A 
HETATM   11  C   UNL     1      39.119 -15.126   1.939  1.00  0.00     0.002 A 
HETATM   12  C   UNL     1      40.046 -16.175   1.942  1.00  0.00     0.032 A 
BRANCH   8  13
HETATM   13  O   UNL     1      43.084 -14.404   2.933  1.00  0.00    -0.340 OA
BRANCH  13  14
HETATM   14  C   UNL     1      43.215 -13.539   4.078  1.00  0.00     0.293 C 
BRANCH  14  15
HETATM   15  C   UNL     1      43.252 -14.370   5.350  1.00  0.00     0.408 C 
HETATM   16  F   UNL     1      44.038 -13.795   6.289  1.00  0.00    -0.169 F 
HETATM   17  F   UNL     1      42.020 -14.527   5.881  1.00  0.00    -0.169 F 
HETATM   18  F   UNL     1      43.748 -15.603   5.101  1.00  0.00    -0.169 F 
ENDBRANCH  14  15
ENDBRANCH  13  14
ENDBRANCH   8  13
ENDBRANCH   3   7
BRANCH   1  19
HETATM   19  C   UNL     1      44.112 -19.850   3.493  1.00  0.00     0.086 A 
HETATM   20  C   UNL     1      44.247 -21.118   2.958  1.00  0.00     0.052 A 
HETATM   21  C   UNL     1      43.888 -21.700   1.643  1.00  0.00     0.072 C 
HETATM   22  N   UNL     1      44.826 -21.875   3.937  1.00  0.00    -0.280 N 
HETATM   23  H   UNL     1      45.068 -22.860   3.907  1.00  0.00     0.189 HD
HETATM   24  N   UNL     1      45.100 -21.198   5.054  1.00  0.00    -0.177 NA
HETATM   25  C   UNL     1      44.675 -19.951   4.800  1.00  0.00     0.079 A 
HETATM   26  C   UNL     1      44.891 -18.912   5.839  1.00  0.00     0.075 C 
ENDBRANCH   1  19
TORSDOF 5
ENDMDL
MODEL 10
REMARK VINA RESULT:      -7.0      2.664      3.647
REMARK  5 active torsions:
REMARK  status: ('A' for Active; 'I' for Inactive)
REMARK    1  A    between atoms: C_8  and  N_9 
REMARK       I    between atoms: N_9  and  C_10 
REMARK       I    between atoms: C_10  and  N_11 
REMARK    2  A    between atoms: N_11  and  C_12 
REMARK    3  A    between atoms: C_13  and  O_14 
REMARK    4  A    between atoms: O_14  and  C_15 
REMARK    5  A    between atoms: C_15  and  C_16 
ROOT
HETATM    1  N   UNL     1      42.184 -16.340   0.991  1.00  0.00    -0.305 N 
HETATM    2  C   UNL     1      42.139 -17.553   1.655  1.00  0.00     0.325 C 
HETATM    3  N   UNL     1      43.379 -18.168   1.608  1.00  0.00    -0.306 N 
HETATM    4  O   UNL     1      41.153 -18.016   2.212  1.00  0.00    -0.247 OA
HETATM    5  H   UNL     1      43.094 -15.916   0.902  1.00  0.00     0.171 HD
HETATM    6  H   UNL     1      44.031 -17.825   0.915  1.00  0.00     0.171 HD
ENDROOT
BRANCH   3   7
HETATM    7  C   UNL     1      43.782 -19.354   2.259  1.00  0.00     0.069 A 
HETATM    8  C   UNL     1      44.227 -19.241   3.588  1.00  0.00     0.095 A 
HETATM    9  C   UNL     1      44.600 -20.369   4.322  1.00  0.00     0.039 A 
HETATM   10  C   UNL     1      44.567 -21.623   3.716  1.00  0.00     0.003 A 
HETATM   11  C   UNL     1      44.148 -21.745   2.392  1.00  0.00     0.002 A 
HETATM   12  C   UNL     1      43.751 -20.616   1.667  1.00  0.00     0.032 A 
BRANCH   8  13
HETATM   13  O   UNL     1      44.239 -17.991   4.160  1.00  0.00    -0.340 OA
BRANCH  13  14
HETATM   14  C   UNL     1      43.803 -18.034   5.533  1.00  0.00     0.293 C 
BRANCH  14  15
HETATM   15  C   UNL     1      42.368 -17.544   5.633  1.00  0.00     0.408 C 
HETATM   16  F   UNL     1      41.499 -18.474   5.173  1.00  0.00    -0.169 F 
HETATM   17  F   UNL     1      42.028 -17.253   6.908  1.00  0.00    -0.169 F 
HETATM   18  F   UNL     1      42.193 -16.422   4.899  1.00  0.00    -0.169 F 
ENDBRANCH  14  15
ENDBRANCH  13  14
ENDBRANCH   8  13
ENDBRANCH   3   7
BRANCH   1  19
HETATM   19  C   UNL     1      41.105 -15.522   0.699  1.00  0.00     0.086 A 
HETATM   20  C   UNL     1      40.673 -15.309  -0.598  1.00  0.00     0.052 A 
HETATM   21  C   UNL     1      41.155 -15.796  -1.912  1.00  0.00     0.072 C 
HETATM   22  N   UNL     1      39.600 -14.470  -0.499  1.00  0.00    -0.280 N 
HETATM   23  H   UNL     1      39.031 -14.089  -1.248  1.00  0.00     0.189 HD
HETATM   24  N   UNL     1      39.285 -14.138   0.754  1.00  0.00    -0.177 NA
HETATM   25  C   UNL     1      40.193 -14.779   1.506  1.00  0.00     0.079 A 
HETATM   26  C   UNL     1      40.086 -14.666   2.983  1.00  0.00     0.075 C 
ENDBRANCH   1  19
TORSDOF 5
ENDMDL
