MODEL 1
REMARK VINA RESULT:      -8.4      0.000      0.000
REMARK  3 active torsions:
REMARK  status: ('A' for Active; 'I' for Inactive)
REMARK    1  A    between atoms: C_9  and  C_10 
REMARK    2  A    between atoms: C_16  and  C_17 
REMARK       I    between atoms: C_17  and  N_18 
REMARK    3  A    between atoms: N_18  and  C_19 
ROOT
HETATM    1  C   UNL     1      41.351 -16.426   0.142  1.00  0.00     0.070 C 
HETATM    2  C   UNL     1      41.666 -15.662   1.404  1.00  0.00     0.037 C 
HETATM    3  N   UNL     1      40.970 -14.470   1.574  1.00  0.00    -0.191 N 
HETATM    4  C   UNL     1      41.300 -13.560   2.514  1.00  0.00     0.735 A 
HETATM    5  N   UNL     1      42.263 -13.865   3.435  1.00  0.00    -0.092 N 
HETATM    6  N   UNL     1      42.500 -12.807   4.227  1.00  0.00     0.012 NA
HETATM    7  N   UNL     1      41.641 -11.881   3.811  1.00  0.00     0.033 NA
HETATM    8  N   UNL     1      40.888 -12.337   2.744  1.00  0.00     0.030 NA
HETATM    9  C   UNL     1      42.970 -15.143   3.503  1.00  0.00     0.198 C 
HETATM   10  C   UNL     1      42.607 -16.027   2.313  1.00  0.00     0.062 C 
HETATM   11  H   UNL     1      40.341 -14.183   0.827  1.00  0.00     0.184 HD
ENDROOT
BRANCH  10  12
HETATM   12  C   UNL     1      43.456 -17.242   2.187  1.00  0.00     0.257 C 
HETATM   13  N   UNL     1      42.949 -18.323   2.869  1.00  0.00    -0.308 N 
HETATM   14  H   UNL     1      42.105 -18.194   3.407  1.00  0.00     0.170 HD
HETATM   15  O   UNL     1      44.499 -17.152   1.554  1.00  0.00    -0.267 OA
BRANCH  13  16
HETATM   16  C   UNL     1      43.508 -19.607   2.880  1.00  0.00     0.129 A 
HETATM   17  N   UNL     1      44.291 -20.008   3.895  1.00  0.00    -0.243 NA
HETATM   18  C   UNL     1      44.813 -21.252   3.843  1.00  0.00     0.119 A 
HETATM   19  C   UNL     1      44.598 -22.132   2.798  1.00  0.00     0.019 A 
HETATM   20  C   UNL     1      43.794 -21.709   1.749  1.00  0.00     0.005 A 
HETATM   21  C   UNL     1      43.237 -20.431   1.791  1.00  0.00     0.050 A 
ENDBRANCH  13  16
ENDBRANCH  10  12
BRANCH   9  22
HETATM   22  C   UNL     1      42.693 -15.833   4.836  1.00  0.00    -0.029 A 
HETATM   23  C   UNL     1      41.397 -16.225   5.216  1.00  0.00     0.009 A 
HETATM   24  C   UNL     1      41.177 -16.853   6.444  1.00  0.00     0.001 A 
HETATM   25  C   UNL     1      42.245 -17.104   7.302  1.00  0.00     0.000 A 
HETATM   26  C   UNL     1      43.536 -16.736   6.932  1.00  0.00     0.001 A 
HETATM   27  C   UNL     1      43.761 -16.108   5.706  1.00  0.00     0.009 A 
ENDBRANCH   9  22
TORSDOF 3
ENDMDL
MODEL 2
REMARK VINA RESULT:      -8.2      1.849      3.813
REMARK  3 active torsions:
REMARK  status: ('A' for Active; 'I' for Inactive)
REMARK    1  A    between atoms: C_9  and  C_10 
REMARK    2  A    between atoms: C_16  and  C_17 
REMARK       I    between atoms: C_17  and  N_18 
REMARK    3  A    between atoms: N_18  and  C_19 
ROOT
HETATM    1  C   UNL     1      44.341 -16.109   6.741  1.00  0.00     0.070 C 
HETATM    2  C   UNL     1      43.191 -15.525   5.958  1.00  0.00     0.037 C 
HETATM    3  N   UNL     1      42.944 -14.172   6.171  1.00  0.00    -0.191 N 
HETATM    4  C   UNL     1      41.823 -13.558   5.740  1.00  0.00     0.735 A 
HETATM    5  N   UNL     1      40.950 -14.241   4.939  1.00  0.00    -0.092 N 
HETATM    6  N   UNL     1      39.867 -13.488   4.686  1.00  0.00     0.012 NA
HETATM    7  N   UNL     1      40.115 -12.333   5.296  1.00  0.00     0.033 NA
HETATM    8  N   UNL     1      41.329 -12.364   5.957  1.00  0.00     0.030 NA
HETATM    9  C   UNL     1      41.147 -15.614   4.479  1.00  0.00     0.198 C 
HETATM   10  C   UNL     1      42.373 -16.236   5.141  1.00  0.00     0.062 C 
HETATM   11  H   UNL     1      43.520 -13.693   6.861  1.00  0.00     0.184 HD
ENDROOT
BRANCH  10  12
HETATM   12  C   UNL     1      42.505 -17.699   4.902  1.00  0.00     0.257 C 
HETATM   13  N   UNL     1      43.405 -18.000   3.907  1.00  0.00    -0.308 N 
HETATM   14  H   UNL     1      43.847 -17.237   3.416  1.00  0.00     0.170 HD
HETATM   15  O   UNL     1      41.799 -18.455   5.556  1.00  0.00    -0.267 OA
BRANCH  13  16
HETATM   16  C   UNL     1      43.769 -19.293   3.511  1.00  0.00     0.129 A 
HETATM   17  N   UNL     1      44.512 -20.074   4.311  1.00  0.00    -0.243 NA
HETATM   18  C   UNL     1      44.843 -21.306   3.868  1.00  0.00     0.119 A 
HETATM   19  C   UNL     1      44.472 -21.805   2.634  1.00  0.00     0.019 A 
HETATM   20  C   UNL     1      43.711 -20.990   1.807  1.00  0.00     0.005 A 
HETATM   21  C   UNL     1      43.349 -19.718   2.252  1.00  0.00     0.050 A 
ENDBRANCH  13  16
ENDBRANCH  10  12
BRANCH   9  22
HETATM   22  C   UNL     1      41.234 -15.656   2.956  1.00  0.00    -0.029 A 
HETATM   23  C   UNL     1      42.005 -14.731   2.228  1.00  0.00     0.009 A 
HETATM   24  C   UNL     1      42.062 -14.795   0.834  1.00  0.00     0.001 A 
HETATM   25  C   UNL     1      41.361 -15.785   0.151  1.00  0.00     0.000 A 
HETATM   26  C   UNL     1      40.606 -16.717   0.858  1.00  0.00     0.001 A 
HETATM   27  C   UNL     1      40.546 -16.657   2.250  1.00  0.00     0.009 A 
ENDBRANCH   9  22
TORSDOF 3
ENDMDL
MODEL 3
REMARK VINA RESULT:      -7.7      1.960      3.933
REMARK  3 active torsions:
REMARK  status: ('A' for Active; 'I' for Inactive)
REMARK    1  A    between atoms: C_9  and  C_10 
REMARK    2  A    between atoms: C_16  and  C_17 
REMARK       I    between atoms: C_17  and  N_18 
REMARK    3  A    between atoms: N_18  and  C_19 
ROOT
HETATM    1  C   UNL     1      44.278 -15.996   6.708  1.00  0.00     0.070 C 
HETATM    2  C   UNL     1      43.153 -15.265   6.019  1.00  0.00     0.037 C 
HETATM    3  N   UNL     1      42.996 -13.929   6.378  1.00  0.00    -0.191 N 
HETATM    4  C   UNL     1      41.908 -13.206   6.041  1.00  0.00     0.735 A 
HETATM    5  N   UNL     1      40.979 -13.747   5.196  1.00  0.00    -0.092 N 
HETATM    6  N   UNL     1      39.942 -12.907   5.049  1.00  0.00     0.012 NA
HETATM    7  N   UNL     1      40.273 -11.840   5.769  1.00  0.00     0.033 NA
HETATM    8  N   UNL     1      41.495 -12.014   6.392  1.00  0.00     0.030 NA
HETATM    9  C   UNL     1      41.081 -15.073   4.590  1.00  0.00     0.198 C 
HETATM   10  C   UNL     1      42.277 -15.835   5.153  1.00  0.00     0.062 C 
HETATM   11  H   UNL     1      43.614 -13.561   7.099  1.00  0.00     0.184 HD
ENDROOT
BRANCH  10  12
HETATM   12  C   UNL     1      42.312 -17.270   4.762  1.00  0.00     0.257 C 
HETATM   13  N   UNL     1      43.354 -17.568   3.915  1.00  0.00    -0.308 N 
HETATM   14  H   UNL     1      43.953 -16.815   3.612  1.00  0.00     0.170 HD
HETATM   15  O   UNL     1      41.424 -18.002   5.176  1.00  0.00    -0.267 OA
BRANCH  13  16
HETATM   16  C   UNL     1      43.663 -18.846   3.432  1.00  0.00     0.129 A 
HETATM   17  N   UNL     1      43.160 -19.281   2.266  1.00  0.00    -0.243 NA
HETATM   18  C   UNL     1      43.483 -20.527   1.859  1.00  0.00     0.119 A 
HETATM   19  C   UNL     1      44.290 -21.387   2.581  1.00  0.00     0.019 A 
HETATM   20  C   UNL     1      44.801 -20.934   3.790  1.00  0.00     0.005 A 
HETATM   21  C   UNL     1      44.488 -19.645   4.221  1.00  0.00     0.050 A 
ENDBRANCH  13  16
ENDBRANCH  10  12
BRANCH   9  22
HETATM   22  C   UNL     1      41.137 -14.960   3.070  1.00  0.00    -0.029 A 
HETATM   23  C   UNL     1      40.212 -15.619   2.239  1.00  0.00     0.009 A 
HETATM   24  C   UNL     1      40.292 -15.496   0.850  1.00  0.00     0.001 A 
HETATM   25  C   UNL     1      41.287 -14.710   0.274  1.00  0.00     0.000 A 
HETATM   26  C   UNL     1      42.201 -14.039   1.084  1.00  0.00     0.001 A 
HETATM   27  C   UNL     1      42.125 -14.159   2.472  1.00  0.00     0.009 A 
ENDBRANCH   9  22
TORSDOF 3
ENDMDL
MODEL 4
REMARK VINA RESULT:      -7.6      2.586      5.566
REMARK  3 active torsions:
REMARK  status: ('A' for Active; 'I' for Inactive)
REMARK    1  A    between atoms: C_9  and  C_10 
REMARK    2  A    between atoms: C_16  and  C_17 
REMARK       I    between atoms: C_17  and  N_18 
REMARK    3  A    between atoms: N_18  and  C_19 
ROOT
HETATM    1  C   UNL     1      43.561 -18.516   1.735  1.00  0.00     0.070 C 
HETATM    2  C   UNL     1      43.112 -17.949   3.059  1.00  0.00     0.037 C 
HETATM    3  N   UNL     1      43.877 -18.317   4.161  1.00  0.00    -0.191 N 
HETATM    4  C   UNL     1      43.481 -18.097   5.432  1.00  0.00     0.735 A 
HETATM    5  N   UNL     1      42.353 -17.360   5.664  1.00  0.00    -0.092 N 
HETATM    6  N   UNL     1      42.086 -17.323   6.979  1.00  0.00     0.012 NA
HETATM    7  N   UNL     1      43.083 -17.998   7.540  1.00  0.00     0.033 NA
HETATM    8  N   UNL     1      43.959 -18.486   6.588  1.00  0.00     0.030 NA
HETATM    9  C   UNL     1      41.529 -16.753   4.620  1.00  0.00     0.198 C 
HETATM   10  C   UNL     1      42.003 -17.186   3.235  1.00  0.00     0.062 C 
HETATM   11  H   UNL     1      44.646 -18.966   4.003  1.00  0.00     0.184 HD
ENDROOT
BRANCH  10  12
HETATM   12  C   UNL     1      41.078 -16.799   2.136  1.00  0.00     0.257 C 
HETATM   13  N   UNL     1      41.569 -15.777   1.358  1.00  0.00    -0.308 N 
HETATM   14  H   UNL     1      42.455 -15.367   1.613  1.00  0.00     0.170 HD
HETATM   15  O   UNL     1      39.999 -17.371   2.063  1.00  0.00    -0.267 OA
BRANCH  13  16
HETATM   16  C   UNL     1      40.938 -15.249   0.224  1.00  0.00     0.129 A 
HETATM   17  N   UNL     1      40.001 -14.296   0.339  1.00  0.00    -0.243 NA
HETATM   18  C   UNL     1      39.419 -13.836  -0.789  1.00  0.00     0.119 A 
HETATM   19  C   UNL     1      39.723 -14.301  -2.055  1.00  0.00     0.019 A 
HETATM   20  C   UNL     1      40.688 -15.292  -2.167  1.00  0.00     0.005 A 
HETATM   21  C   UNL     1      41.309 -15.771  -1.013  1.00  0.00     0.050 A 
ENDBRANCH  13  16
ENDBRANCH  10  12
BRANCH   9  22
HETATM   22  C   UNL     1      41.514 -15.234   4.771  1.00  0.00    -0.029 A 
HETATM   23  C   UNL     1      40.350 -14.534   5.139  1.00  0.00     0.009 A 
HETATM   24  C   UNL     1      40.370 -13.143   5.268  1.00  0.00     0.001 A 
HETATM   25  C   UNL     1      41.548 -12.437   5.040  1.00  0.00     0.000 A 
HETATM   26  C   UNL     1      42.712 -13.117   4.691  1.00  0.00     0.001 A 
HETATM   27  C   UNL     1      42.697 -14.506   4.561  1.00  0.00     0.009 A 
ENDBRANCH   9  22
TORSDOF 3
ENDMDL
MODEL 5
REMARK VINA RESULT:      -7.2      2.324      4.528
REMARK  3 active torsions:
REMARK  status: ('A' for Active; 'I' for Inactive)
REMARK    1  A    between atoms: C_9  and  C_10 
REMARK    2  A    between atoms: C_16  and  C_17 
REMARK       I    between atoms: C_17  and  N_18 
REMARK    3  A    between atoms: N_18  and  C_19 
ROOT
HETATM    1  C   UNL     1      42.166 -12.543   4.833  1.00  0.00     0.070 C 
HETATM    2  C   UNL     1      41.818 -13.417   3.653  1.00  0.00     0.037 C 
HETATM    3  N   UNL     1      41.681 -12.757   2.436  1.00  0.00    -0.191 N 
HETATM    4  C   UNL     1      41.147 -13.343   1.344  1.00  0.00     0.735 A 
HETATM    5  N   UNL     1      40.854 -14.678   1.375  1.00  0.00    -0.092 N 
HETATM    6  N   UNL     1      40.262 -15.050   0.229  1.00  0.00     0.012 NA
HETATM    7  N   UNL     1      40.245 -13.945  -0.510  1.00  0.00     0.033 NA
HETATM    8  N   UNL     1      40.793 -12.875   0.173  1.00  0.00     0.030 NA
HETATM    9  C   UNL     1      41.099 -15.555   2.519  1.00  0.00     0.198 C 
HETATM   10  C   UNL     1      41.574 -14.751   3.726  1.00  0.00     0.062 C 
HETATM   11  H   UNL     1      41.780 -11.744   2.438  1.00  0.00     0.184 HD
ENDROOT
BRANCH  10  12
HETATM   12  C   UNL     1      41.621 -15.536   4.989  1.00  0.00     0.257 C 
HETATM   13  N   UNL     1      42.812 -16.203   5.160  1.00  0.00    -0.308 N 
HETATM   14  H   UNL     1      43.503 -16.140   4.429  1.00  0.00     0.170 HD
HETATM   15  O   UNL     1      40.624 -15.547   5.698  1.00  0.00    -0.267 OA
BRANCH  13  16
HETATM   16  C   UNL     1      43.153 -16.971   6.281  1.00  0.00     0.129 A 
HETATM   17  N   UNL     1      43.200 -16.420   7.504  1.00  0.00    -0.243 NA
HETATM   18  C   UNL     1      43.549 -17.208   8.544  1.00  0.00     0.119 A 
HETATM   19  C   UNL     1      43.874 -18.546   8.419  1.00  0.00     0.019 A 
HETATM   20  C   UNL     1      43.832 -19.108   7.150  1.00  0.00     0.005 A 
HETATM   21  C   UNL     1      43.462 -18.312   6.065  1.00  0.00     0.050 A 
ENDBRANCH  13  16
ENDBRANCH  10  12
BRANCH   9  22
HETATM   22  C   UNL     1      42.084 -16.658   2.141  1.00  0.00    -0.029 A 
HETATM   23  C   UNL     1      41.740 -18.020   2.213  1.00  0.00     0.009 A 
HETATM   24  C   UNL     1      42.666 -19.005   1.862  1.00  0.00     0.001 A 
HETATM   25  C   UNL     1      43.939 -18.645   1.427  1.00  0.00     0.000 A 
HETATM   26  C   UNL     1      44.289 -17.300   1.335  1.00  0.00     0.001 A 
HETATM   27  C   UNL     1      43.367 -16.313   1.685  1.00  0.00     0.009 A 
ENDBRANCH   9  22
TORSDOF 3
ENDMDL
MODEL 6
REMARK VINA RESULT:      -7.2      2.483      5.687
REMARK  3 active torsions:
REMARK  status: ('A' for Active; 'I' for Inactive)
REMARK    1  A    between atoms: C_9  and  C_10 
REMARK    2  A    between atoms: C_16  and  C_17 
REMARK       I    between atoms: C_17  and  N_18 
REMARK    3  A    between atoms: N_18  and  C_19 
ROOT
HETATM    1  C   UNL     1      44.179 -18.111   1.616  1.00  0.00     0.070 C 
HETATM    2  C   UNL     1      43.845 -17.912   3.074  1.00  0.00     0.037 C 
HETATM    3  N   UNL     1      44.352 -18.873   3.943  1.00  0.00    -0.191 N 
HETATM    4  C   UNL     1      43.955 -18.977   5.228  1.00  0.00     0.735 A 
HETATM    5  N   UNL     1      43.128 -18.024   5.754  1.00  0.00    -0.092 N 
HETATM    6  N   UNL     1      42.787 -18.348   7.011  1.00  0.00     0.012 NA
HETATM    7  N   UNL     1      43.451 -19.474   7.257  1.00  0.00     0.033 NA
HETATM    8  N   UNL     1      44.181 -19.876   6.154  1.00  0.00     0.030 NA
HETATM    9  C   UNL     1      42.642 -16.854   5.025  1.00  0.00     0.198 C 
HETATM   10  C   UNL     1      43.049 -16.924   3.556  1.00  0.00     0.062 C 
HETATM   11  H   UNL     1      44.867 -19.651   3.534  1.00  0.00     0.184 HD
ENDROOT
BRANCH  10  12
HETATM   12  C   UNL     1      42.398 -15.892   2.704  1.00  0.00     0.257 C 
HETATM   13  N   UNL     1      41.167 -16.285   2.233  1.00  0.00    -0.308 N 
HETATM   14  H   UNL     1      40.844 -17.213   2.460  1.00  0.00     0.170 HD
HETATM   15  O   UNL     1      43.014 -14.859   2.478  1.00  0.00    -0.267 OA
BRANCH  13  16
HETATM   16  C   UNL     1      40.309 -15.496   1.456  1.00  0.00     0.129 A 
HETATM   17  N   UNL     1      40.692 -15.045   0.251  1.00  0.00    -0.243 NA
HETATM   18  C   UNL     1      39.827 -14.278  -0.446  1.00  0.00     0.119 A 
HETATM   19  C   UNL     1      38.574 -13.919   0.016  1.00  0.00     0.019 A 
HETATM   20  C   UNL     1      38.187 -14.382   1.267  1.00  0.00     0.005 A 
HETATM   21  C   UNL     1      39.063 -15.186   1.996  1.00  0.00     0.050 A 
ENDBRANCH  13  16
ENDBRANCH  10  12
BRANCH   9  22
HETATM   22  C   UNL     1      43.129 -15.571   5.694  1.00  0.00    -0.029 A 
HETATM   23  C   UNL     1      42.335 -14.411   5.748  1.00  0.00     0.009 A 
HETATM   24  C   UNL     1      42.811 -13.253   6.367  1.00  0.00     0.001 A 
HETATM   25  C   UNL     1      44.077 -13.240   6.946  1.00  0.00     0.000 A 
HETATM   26  C   UNL     1      44.869 -14.386   6.915  1.00  0.00     0.001 A 
HETATM   27  C   UNL     1      44.398 -15.545   6.298  1.00  0.00     0.009 A 
ENDBRANCH   9  22
TORSDOF 3
ENDMDL
MODEL 7
REMARK VINA RESULT:      -7.2      2.947      5.596
REMARK  3 active torsions:
REMARK  status: ('A' for Active; 'I' for Inactive)
REMARK    1  A    between atoms: C_9  and  C_10 
REMARK    2  A    between atoms: C_16  and  C_17 
REMARK       I    between atoms: C_17  and  N_18 
REMARK    3  A    between atoms: N_18  and  C_19 
ROOT
HETATM    1  C   UNL     1      39.621 -11.936   2.600  1.00  0.00     0.070 C 
HETATM    2  C   UNL     1      40.801 -12.721   3.114  1.00  0.00     0.037 C 
HETATM    3  N   UNL     1      40.997 -12.680   4.491  1.00  0.00    -0.191 N 
HETATM    4  C   UNL     1      42.125 -13.123   5.083  1.00  0.00     0.735 A 
HETATM    5  N   UNL     1      43.066 -13.770   4.331  1.00  0.00    -0.092 N 
HETATM    6  N   UNL     1      44.141 -14.059   5.082  1.00  0.00     0.012 NA
HETATM    7  N   UNL     1      43.823 -13.628   6.299  1.00  0.00     0.033 NA
HETATM    8  N   UNL     1      42.570 -13.042   6.312  1.00  0.00     0.030 NA
HETATM    9  C   UNL     1      42.937 -14.051   2.902  1.00  0.00     0.198 C 
HETATM   10  C   UNL     1      41.690 -13.384   2.330  1.00  0.00     0.062 C 
HETATM   11  H   UNL     1      40.365 -12.097   5.038  1.00  0.00     0.184 HD
ENDROOT
BRANCH  10  12
HETATM   12  C   UNL     1      41.613 -13.428   0.845  1.00  0.00     0.257 C 
HETATM   13  N   UNL     1      40.674 -14.321   0.383  1.00  0.00    -0.308 N 
HETATM   14  H   UNL     1      40.170 -14.875   1.059  1.00  0.00     0.170 HD
HETATM   15  O   UNL     1      42.390 -12.731   0.207  1.00  0.00    -0.267 OA
BRANCH  13  16
HETATM   16  C   UNL     1      40.350 -14.529  -0.963  1.00  0.00     0.129 A 
HETATM   17  N   UNL     1      39.383 -13.811  -1.557  1.00  0.00    -0.243 NA
HETATM   18  C   UNL     1      39.107 -14.066  -2.854  1.00  0.00     0.119 A 
HETATM   19  C   UNL     1      39.753 -15.032  -3.602  1.00  0.00     0.019 A 
HETATM   20  C   UNL     1      40.746 -15.777  -2.980  1.00  0.00     0.005 A 
HETATM   21  C   UNL     1      41.054 -15.519  -1.644  1.00  0.00     0.050 A 
ENDBRANCH  13  16
ENDBRANCH  10  12
BRANCH   9  22
HETATM   22  C   UNL     1      42.948 -15.556   2.654  1.00  0.00    -0.029 A 
HETATM   23  C   UNL     1      43.939 -16.175   1.870  1.00  0.00     0.009 A 
HETATM   24  C   UNL     1      43.920 -17.555   1.660  1.00  0.00     0.001 A 
HETATM   25  C   UNL     1      42.919 -18.335   2.235  1.00  0.00     0.000 A 
HETATM   26  C   UNL     1      41.941 -17.740   3.026  1.00  0.00     0.001 A 
HETATM   27  C   UNL     1      41.956 -16.361   3.238  1.00  0.00     0.009 A 
ENDBRANCH   9  22
TORSDOF 3
ENDMDL
MODEL 8
REMARK VINA RESULT:      -7.0      2.856      4.688
REMARK  3 active torsions:
REMARK  status: ('A' for Active; 'I' for Inactive)
REMARK    1  A    between atoms: C_9  and  C_10 
REMARK    2  A    between atoms: C_16  and  C_17 
REMARK       I    between atoms: C_17  and  N_18 
REMARK    3  A    between atoms: N_18  and  C_19 
ROOT
HETATM    1  C   UNL     1      41.423 -17.034   0.616  1.00  0.00     0.070 C 
HETATM    2  C   UNL     1      41.569 -15.536   0.716  1.00  0.00     0.037 C 
HETATM    3  N   UNL     1      41.626 -14.855  -0.496  1.00  0.00    -0.191 N 
HETATM    4  C   UNL     1      41.989 -13.559  -0.589  1.00  0.00     0.735 A 
HETATM    5  N   UNL     1      42.176 -12.831   0.553  1.00  0.00    -0.092 N 
HETATM    6  N   UNL     1      42.608 -11.597   0.251  1.00  0.00     0.012 NA
HETATM    7  N   UNL     1      42.634 -11.569  -1.078  1.00  0.00     0.033 NA
HETATM    8  N   UNL     1      42.251 -12.785  -1.613  1.00  0.00     0.030 NA
HETATM    9  C   UNL     1      41.986 -13.349   1.907  1.00  0.00     0.198 C 
HETATM   10  C   UNL     1      41.711 -14.850   1.879  1.00  0.00     0.062 C 
HETATM   11  H   UNL     1      41.610 -15.412  -1.348  1.00  0.00     0.184 HD
ENDROOT
BRANCH  10  12
HETATM   12  C   UNL     1      41.738 -15.490   3.223  1.00  0.00     0.257 C 
HETATM   13  N   UNL     1      43.012 -15.775   3.654  1.00  0.00    -0.308 N 
HETATM   14  H   UNL     1      43.782 -15.574   3.035  1.00  0.00     0.170 HD
HETATM   15  O   UNL     1      40.669 -15.730   3.767  1.00  0.00    -0.267 OA
BRANCH  13  16
HETATM   16  C   UNL     1      43.338 -16.325   4.900  1.00  0.00     0.129 A 
HETATM   17  N   UNL     1      43.268 -15.586   6.019  1.00  0.00    -0.243 NA
HETATM   18  C   UNL     1      43.608 -16.168   7.189  1.00  0.00     0.119 A 
HETATM   19  C   UNL     1      44.037 -17.478   7.299  1.00  0.00     0.019 A 
HETATM   20  C   UNL     1      44.115 -18.235   6.138  1.00  0.00     0.005 A 
HETATM   21  C   UNL     1      43.756 -17.654   4.922  1.00  0.00     0.050 A 
ENDBRANCH  13  16
ENDBRANCH  10  12
BRANCH   9  22
HETATM   22  C   UNL     1      40.880 -12.577   2.621  1.00  0.00    -0.029 A 
HETATM   23  C   UNL     1      41.125 -11.838   3.793  1.00  0.00     0.009 A 
HETATM   24  C   UNL     1      40.090 -11.143   4.423  1.00  0.00     0.001 A 
HETATM   25  C   UNL     1      38.804 -11.169   3.889  1.00  0.00     0.000 A 
HETATM   26  C   UNL     1      38.549 -11.883   2.721  1.00  0.00     0.001 A 
HETATM   27  C   UNL     1      39.580 -12.579   2.088  1.00  0.00     0.009 A 
ENDBRANCH   9  22
TORSDOF 3
ENDMDL
MODEL 9
REMARK VINA RESULT:      -6.9      3.113      5.176
REMARK  3 active torsions:
REMARK  status: ('A' for Active; 'I' for Inactive)
REMARK    1  A    between atoms: C_9  and  C_10 
REMARK    2  A    between atoms: C_16  and  C_17 
REMARK       I    between atoms: C_17  and  N_18 
REMARK    3  A    between atoms: N_18  and  C_19 
ROOT
HETATM    1  C   UNL     1      40.685 -11.549   4.928  1.00  0.00     0.070 C 
HETATM    2  C   UNL     1      40.035 -12.368   3.841  1.00  0.00     0.037 C 
HETATM    3  N   UNL     1      39.321 -11.644   2.890  1.00  0.00    -0.191 N 
HETATM    4  C   UNL     1      38.493 -12.228   1.998  1.00  0.00     0.735 A 
HETATM    5  N   UNL     1      38.447 -13.592   1.920  1.00  0.00    -0.092 N 
HETATM    6  N   UNL     1      37.511 -13.974   1.036  1.00  0.00     0.012 NA
HETATM    7  N   UNL     1      37.029 -12.835   0.548  1.00  0.00     0.033 NA
HETATM    8  N   UNL     1      37.632 -11.740   1.140  1.00  0.00     0.030 NA
HETATM    9  C   UNL     1      39.262 -14.498   2.728  1.00  0.00     0.198 C 
HETATM   10  C   UNL     1      40.049 -13.724   3.781  1.00  0.00     0.062 C 
HETATM   11  H   UNL     1      39.255 -10.636   3.019  1.00  0.00     0.184 HD
ENDROOT
BRANCH  10  12
HETATM   12  C   UNL     1      40.719 -14.592   4.787  1.00  0.00     0.257 C 
HETATM   13  N   UNL     1      42.006 -14.923   4.436  1.00  0.00    -0.308 N 
HETATM   14  H   UNL     1      42.357 -14.599   3.547  1.00  0.00     0.170 HD
HETATM   15  O   UNL     1      40.071 -14.947   5.763  1.00  0.00    -0.267 OA
BRANCH  13  16
HETATM   16  C   UNL     1      42.888 -15.679   5.219  1.00  0.00     0.129 A 
HETATM   17  N   UNL     1      43.515 -15.133   6.272  1.00  0.00    -0.243 NA
HETATM   18  C   UNL     1      44.363 -15.908   6.981  1.00  0.00     0.119 A 
HETATM   19  C   UNL     1      44.634 -17.229   6.675  1.00  0.00     0.019 A 
HETATM   20  C   UNL     1      43.989 -17.787   5.580  1.00  0.00     0.005 A 
HETATM   21  C   UNL     1      43.099 -17.004   4.843  1.00  0.00     0.050 A 
ENDBRANCH  13  16
ENDBRANCH  10  12
BRANCH   9  22
HETATM   22  C   UNL     1      40.170 -15.336   1.833  1.00  0.00    -0.029 A 
HETATM   23  C   UNL     1      40.214 -16.739   1.921  1.00  0.00     0.009 A 
HETATM   24  C   UNL     1      41.059 -17.476   1.088  1.00  0.00     0.001 A 
HETATM   25  C   UNL     1      41.861 -16.826   0.154  1.00  0.00     0.000 A 
HETATM   26  C   UNL     1      41.817 -15.439   0.044  1.00  0.00     0.001 A 
HETATM   27  C   UNL     1      40.975 -14.698   0.874  1.00  0.00     0.009 A 
ENDBRANCH   9  22
TORSDOF 3
ENDMDL
MODEL 10
REMARK VINA RESULT:      -6.9      2.440      3.713
REMARK  3 active torsions:
REMARK  status: ('A' for Active; 'I' for Inactive)
REMARK    1  A    between atoms: C_9  and  C_10 
REMARK    2  A    between atoms: C_16  and  C_17 
REMARK       I    between atoms: C_17  and  N_18 
REMARK    3  A    between atoms: N_18  and  C_19 
ROOT
HETATM    1  C   UNL     1      40.989 -17.776   1.353  1.00  0.00     0.070 C 
HETATM    2  C   UNL     1      40.981 -16.277   1.524  1.00  0.00     0.037 C 
HETATM    3  N   UNL     1      40.204 -15.572   0.610  1.00  0.00    -0.191 N 
HETATM    4  C   UNL     1      40.273 -14.231   0.474  1.00  0.00     0.735 A 
HETATM    5  N   UNL     1      41.026 -13.506   1.355  1.00  0.00    -0.092 N 
HETATM    6  N   UNL     1      41.029 -12.210   1.004  1.00  0.00     0.012 NA
HETATM    7  N   UNL     1      40.236 -12.151  -0.061  1.00  0.00     0.033 NA
HETATM    8  N   UNL     1      39.759 -13.404  -0.402  1.00  0.00     0.030 NA
HETATM    9  C   UNL     1      41.766 -14.076   2.480  1.00  0.00     0.198 C 
HETATM   10  C   UNL     1      41.717 -15.601   2.443  1.00  0.00     0.062 C 
HETATM   11  H   UNL     1      39.740 -16.107  -0.122  1.00  0.00     0.184 HD
ENDROOT
BRANCH  10  12
HETATM   12  C   UNL     1      42.635 -16.254   3.415  1.00  0.00     0.257 C 
HETATM   13  N   UNL     1      41.991 -16.692   4.548  1.00  0.00    -0.308 N 
HETATM   14  H   UNL     1      41.003 -16.505   4.638  1.00  0.00     0.170 HD
HETATM   15  O   UNL     1      43.827 -16.294   3.144  1.00  0.00    -0.267 OA
BRANCH  13  16
HETATM   16  C   UNL     1      42.594 -17.390   5.602  1.00  0.00     0.129 A 
HETATM   17  N   UNL     1      43.035 -18.646   5.432  1.00  0.00    -0.243 NA
HETATM   18  C   UNL     1      43.596 -19.272   6.489  1.00  0.00     0.119 A 
HETATM   19  C   UNL     1      43.730 -18.698   7.740  1.00  0.00     0.019 A 
HETATM   20  C   UNL     1      43.265 -17.402   7.911  1.00  0.00     0.005 A 
HETATM   21  C   UNL     1      42.693 -16.735   6.827  1.00  0.00     0.050 A 
ENDBRANCH  13  16
ENDBRANCH  10  12
BRANCH   9  22
HETATM   22  C   UNL     1      41.240 -13.517   3.799  1.00  0.00    -0.029 A 
HETATM   23  C   UNL     1      39.925 -13.757   4.238  1.00  0.00     0.009 A 
HETATM   24  C   UNL     1      39.474 -13.229   5.450  1.00  0.00     0.001 A 
HETATM   25  C   UNL     1      40.329 -12.465   6.241  1.00  0.00     0.000 A 
HETATM   26  C   UNL     1      41.638 -12.233   5.827  1.00  0.00     0.001 A 
HETATM   27  C   UNL     1      42.093 -12.758   4.617  1.00  0.00     0.009 A 
ENDBRANCH   9  22
TORSDOF 3
ENDMDL
