MODEL 1
REMARK VINA RESULT:      -8.1      0.000      0.000
REMARK  7 active torsions:
REMARK  status: ('A' for Active; 'I' for Inactive)
REMARK    1  A    between atoms: C_2  and  C_3 
REMARK    2  A    between atoms: C_3  and  O_4 
REMARK    3  A    between atoms: O_4  and  C_5 
REMARK    4  A    between atoms: C_8  and  C_9 
REMARK    5  A    between atoms: C_9  and  C_10 
REMARK       I    between atoms: C_10  and  N_11 
REMARK    6  A    between atoms: N_11  and  C_12 
REMARK    7  A    between atoms: C_19  and  C_20 
REMARK       I    between atoms: C_20  and  N_21 
ROOT
HETATM    1  C   UNL     1      40.631 -14.890   3.534  1.00  0.00     0.226 C 
HETATM    2  N   UNL     1      39.691 -15.363   2.637  1.00  0.00    -0.327 N 
HETATM    3  O   UNL     1      41.342 -13.901   3.370  1.00  0.00    -0.273 OA
HETATM    4  H   UNL     1      39.183 -16.196   2.908  1.00  0.00     0.169 HD
ENDROOT
BRANCH   2   5
HETATM    5  C   UNL     1      39.295 -14.797   1.406  1.00  0.00     0.035 A 
HETATM    6  C   UNL     1      40.096 -14.777   0.257  1.00  0.00     0.046 A 
HETATM    7  C   UNL     1      39.607 -14.170  -0.922  1.00  0.00     0.030 A 
HETATM    8  C   UNL     1      38.337 -13.607  -0.910  1.00  0.00     0.063 A 
HETATM    9  C   UNL     1      40.093 -13.950  -2.246  1.00  0.00     0.156 A 
HETATM   10  N   UNL     1      38.150 -13.104  -2.166  1.00  0.00    -0.277 N 
HETATM   11  C   UNL     1      37.510 -13.612   0.215  1.00  0.00     0.034 A 
HETATM   12  H   UNL     1      37.331 -12.618  -2.516  1.00  0.00     0.189 HD
HETATM   13  N   UNL     1      39.184 -13.291  -3.001  1.00  0.00    -0.168 NA
HETATM   14  C   UNL     1      38.018 -14.219   1.370  1.00  0.00     0.032 A 
BRANCH   9  15
HETATM   15  C   UNL     1      41.393 -14.349  -2.804  1.00  0.00     0.270 C 
HETATM   16  N   UNL     1      42.452 -13.631  -2.319  1.00  0.00    -0.365 N 
HETATM   17  H   UNL     1      42.272 -12.903  -1.636  1.00  0.00     0.159 HD
HETATM   18  H   UNL     1      43.383 -13.835  -2.644  1.00  0.00     0.159 HD
HETATM   19  O   UNL     1      41.557 -15.239  -3.631  1.00  0.00    -0.266 OA
ENDBRANCH   9  15
ENDBRANCH   2   5
BRANCH   1  20
HETATM   20  C   UNL     1      40.806 -15.730   4.801  1.00  0.00     0.141 C 
BRANCH  20  21
HETATM   21  C   UNL     1      41.711 -16.935   4.680  1.00  0.00    -0.049 A 
HETATM   22  C   UNL     1      42.248 -17.541   5.824  1.00  0.00     0.010 A 
HETATM   23  C   UNL     1      43.157 -18.598   5.709  1.00  0.00     0.037 A 
HETATM   24  C   UNL     1      43.544 -19.058   4.450  1.00  0.00     0.068 A 
HETATM   25  C   UNL     1      42.986 -18.475   3.311  1.00  0.00     0.037 A 
HETATM   26  C   UNL     1      42.076 -17.422   3.419  1.00  0.00     0.010 A 
BRANCH  24  27
HETATM   27  O   UNL     1      44.444 -20.053   4.199  1.00  0.00    -0.351 OA
BRANCH  27  28
HETATM   28  C   UNL     1      44.865 -20.227   2.846  1.00  0.00     0.179 C 
BRANCH  28  29
HETATM   29  C   UNL     1      44.641 -21.686   2.414  1.00  0.00     0.002 C 
HETATM   30  C   UNL     1      43.356 -21.829   1.596  1.00  0.00     0.011 C 
HETATM   31  C   UNL     1      44.602 -22.626   3.619  1.00  0.00     0.011 C 
ENDBRANCH  28  29
ENDBRANCH  27  28
ENDBRANCH  24  27
ENDBRANCH  20  21
ENDBRANCH   1  20
TORSDOF 7
ENDMDL
MODEL 2
REMARK VINA RESULT:      -8.0      6.823     10.395
REMARK  7 active torsions:
REMARK  status: ('A' for Active; 'I' for Inactive)
REMARK    1  A    between atoms: C_2  and  C_3 
REMARK    2  A    between atoms: C_3  and  O_4 
REMARK    3  A    between atoms: O_4  and  C_5 
REMARK    4  A    between atoms: C_8  and  C_9 
REMARK    5  A    between atoms: C_9  and  C_10 
REMARK       I    between atoms: C_10  and  N_11 
REMARK    6  A    between atoms: N_11  and  C_12 
REMARK    7  A    between atoms: C_19  and  C_20 
REMARK       I    between atoms: C_20  and  N_21 
ROOT
HETATM    1  C   UNL     1      45.520 -13.283   7.499  1.00  0.00     0.226 C 
HETATM    2  N   UNL     1      44.420 -14.108   7.640  1.00  0.00    -0.327 N 
HETATM    3  O   UNL     1      46.210 -13.177   6.487  1.00  0.00    -0.273 OA
HETATM    4  H   UNL     1      43.954 -14.094   8.539  1.00  0.00     0.169 HD
ENDROOT
BRANCH   2   5
HETATM    5  C   UNL     1      43.815 -14.932   6.667  1.00  0.00     0.035 A 
HETATM    6  C   UNL     1      44.041 -16.310   6.553  1.00  0.00     0.046 A 
HETATM    7  C   UNL     1      43.393 -17.039   5.532  1.00  0.00     0.030 A 
HETATM    8  C   UNL     1      42.544 -16.367   4.661  1.00  0.00     0.063 A 
HETATM    9  C   UNL     1      43.361 -18.399   5.097  1.00  0.00     0.156 A 
HETATM   10  N   UNL     1      42.081 -17.318   3.797  1.00  0.00    -0.277 N 
HETATM   11  C   UNL     1      42.293 -14.997   4.746  1.00  0.00     0.034 A 
HETATM   12  H   UNL     1      41.439 -17.183   3.024  1.00  0.00     0.189 HD
HETATM   13  N   UNL     1      42.548 -18.555   4.027  1.00  0.00    -0.168 NA
HETATM   14  C   UNL     1      42.946 -14.297   5.768  1.00  0.00     0.032 A 
BRANCH   9  15
HETATM   15  C   UNL     1      44.081 -19.544   5.673  1.00  0.00     0.270 C 
HETATM   16  N   UNL     1      44.964 -20.138   4.813  1.00  0.00    -0.365 N 
HETATM   17  H   UNL     1      45.056 -19.761   3.876  1.00  0.00     0.159 HD
HETATM   18  H   UNL     1      45.504 -20.930   5.121  1.00  0.00     0.159 HD
HETATM   19  O   UNL     1      43.933 -19.960   6.817  1.00  0.00    -0.266 OA
ENDBRANCH   9  15
ENDBRANCH   2   5
BRANCH   1  20
HETATM   20  C   UNL     1      45.910 -12.492   8.750  1.00  0.00     0.141 C 
BRANCH  20  21
HETATM   21  C   UNL     1      44.767 -11.991   9.603  1.00  0.00    -0.049 A 
HETATM   22  C   UNL     1      43.828 -11.091   9.079  1.00  0.00     0.010 A 
HETATM   23  C   UNL     1      42.824 -10.556   9.894  1.00  0.00     0.037 A 
HETATM   24  C   UNL     1      42.750 -10.910  11.240  1.00  0.00     0.068 A 
HETATM   25  C   UNL     1      43.666 -11.830  11.755  1.00  0.00     0.037 A 
HETATM   26  C   UNL     1      44.668 -12.369  10.947  1.00  0.00     0.010 A 
BRANCH  24  27
HETATM   27  O   UNL     1      41.846 -10.436  12.148  1.00  0.00    -0.351 OA
BRANCH  27  28
HETATM   28  C   UNL     1      42.108 -10.696  13.527  1.00  0.00     0.179 C 
BRANCH  28  29
HETATM   29  C   UNL     1      42.787  -9.474  14.168  1.00  0.00     0.002 C 
HETATM   30  C   UNL     1      42.307  -9.264  15.605  1.00  0.00     0.011 C 
HETATM   31  C   UNL     1      42.548  -8.207  13.346  1.00  0.00     0.011 C 
ENDBRANCH  28  29
ENDBRANCH  27  28
ENDBRANCH  24  27
ENDBRANCH  20  21
ENDBRANCH   1  20
TORSDOF 7
ENDMDL
MODEL 3
REMARK VINA RESULT:      -8.0      6.393      9.802
REMARK  7 active torsions:
REMARK  status: ('A' for Active; 'I' for Inactive)
REMARK    1  A    between atoms: C_2  and  C_3 
REMARK    2  A    between atoms: C_3  and  O_4 
REMARK    3  A    between atoms: O_4  and  C_5 
REMARK    4  A    between atoms: C_8  and  C_9 
REMARK    5  A    between atoms: C_9  and  C_10 
REMARK       I    between atoms: C_10  and  N_11 
REMARK    6  A    between atoms: N_11  and  C_12 
REMARK    7  A    between atoms: C_19  and  C_20 
REMARK       I    between atoms: C_20  and  N_21 
ROOT
HETATM    1  C   UNL     1      45.411 -13.389   7.436  1.00  0.00     0.226 C 
HETATM    2  N   UNL     1      44.371 -14.281   7.626  1.00  0.00    -0.327 N 
HETATM    3  O   UNL     1      46.108 -13.308   6.427  1.00  0.00    -0.273 OA
HETATM    4  H   UNL     1      43.890 -14.235   8.515  1.00  0.00     0.169 HD
ENDROOT
BRANCH   2   5
HETATM    5  C   UNL     1      43.844 -15.217   6.710  1.00  0.00     0.035 A 
HETATM    6  C   UNL     1      42.936 -14.897   5.693  1.00  0.00     0.046 A 
HETATM    7  C   UNL     1      42.459 -15.916   4.839  1.00  0.00     0.030 A 
HETATM    8  C   UNL     1      42.906 -17.218   5.032  1.00  0.00     0.063 A 
HETATM    9  C   UNL     1      41.563 -15.997   3.730  1.00  0.00     0.156 A 
HETATM   10  N   UNL     1      42.278 -17.964   4.076  1.00  0.00    -0.277 N 
HETATM   11  C   UNL     1      43.812 -17.573   6.032  1.00  0.00     0.034 A 
HETATM   12  H   UNL     1      42.366 -18.962   3.922  1.00  0.00     0.189 HD
HETATM   13  N   UNL     1      41.461 -17.266   3.271  1.00  0.00    -0.168 NA
HETATM   14  C   UNL     1      44.270 -16.545   6.865  1.00  0.00     0.032 A 
BRANCH   9  15
HETATM   15  C   UNL     1      40.808 -14.903   3.104  1.00  0.00     0.270 C 
HETATM   16  N   UNL     1      39.475 -15.167   2.940  1.00  0.00    -0.365 N 
HETATM   17  H   UNL     1      39.117 -16.064   3.250  1.00  0.00     0.159 HD
HETATM   18  H   UNL     1      38.877 -14.475   2.519  1.00  0.00     0.159 HD
HETATM   19  O   UNL     1      41.290 -13.834   2.746  1.00  0.00    -0.266 OA
ENDBRANCH   9  15
ENDBRANCH   2   5
BRANCH   1  20
HETATM   20  C   UNL     1      45.720 -12.483   8.629  1.00  0.00     0.141 C 
BRANCH  20  21
HETATM   21  C   UNL     1      44.531 -12.022   9.441  1.00  0.00    -0.049 A 
HETATM   22  C   UNL     1      43.545 -11.211   8.863  1.00  0.00     0.010 A 
HETATM   23  C   UNL     1      42.493 -10.710   9.637  1.00  0.00     0.037 A 
HETATM   24  C   UNL     1      42.418 -11.008  10.997  1.00  0.00     0.068 A 
HETATM   25  C   UNL     1      43.384 -11.841  11.567  1.00  0.00     0.037 A 
HETATM   26  C   UNL     1      44.433 -12.346  10.799  1.00  0.00     0.010 A 
BRANCH  24  27
HETATM   27  O   UNL     1      41.468 -10.557  11.868  1.00  0.00    -0.351 OA
BRANCH  27  28
HETATM   28  C   UNL     1      41.549 -11.015  13.218  1.00  0.00     0.179 C 
BRANCH  28  29
HETATM   29  C   UNL     1      41.679  -9.814  14.170  1.00  0.00     0.002 C 
HETATM   30  C   UNL     1      40.699  -8.702  13.794  1.00  0.00     0.011 C 
HETATM   31  C   UNL     1      43.107  -9.269  14.189  1.00  0.00     0.011 C 
ENDBRANCH  28  29
ENDBRANCH  27  28
ENDBRANCH  24  27
ENDBRANCH  20  21
ENDBRANCH   1  20
TORSDOF 7
ENDMDL
MODEL 4
REMARK VINA RESULT:      -7.8      3.100      8.749
REMARK  7 active torsions:
REMARK  status: ('A' for Active; 'I' for Inactive)
REMARK    1  A    between atoms: C_2  and  C_3 
REMARK    2  A    between atoms: C_3  and  O_4 
REMARK    3  A    between atoms: O_4  and  C_5 
REMARK    4  A    between atoms: C_8  and  C_9 
REMARK    5  A    between atoms: C_9  and  C_10 
REMARK       I    between atoms: C_10  and  N_11 
REMARK    6  A    between atoms: N_11  and  C_12 
REMARK    7  A    between atoms: C_19  and  C_20 
REMARK       I    between atoms: C_20  and  N_21 
ROOT
HETATM    1  C   UNL     1      41.128 -15.250   3.449  1.00  0.00     0.226 C 
HETATM    2  N   UNL     1      41.059 -16.584   3.089  1.00  0.00    -0.327 N 
HETATM    3  O   UNL     1      42.095 -14.699   3.970  1.00  0.00    -0.273 OA
HETATM    4  H   UNL     1      40.190 -16.898   2.675  1.00  0.00     0.169 HD
ENDROOT
BRANCH   2   5
HETATM    5  C   UNL     1      42.071 -17.563   3.167  1.00  0.00     0.035 A 
HETATM    6  C   UNL     1      42.453 -18.208   4.351  1.00  0.00     0.046 A 
HETATM    7  C   UNL     1      43.491 -19.165   4.319  1.00  0.00     0.030 A 
HETATM    8  C   UNL     1      44.111 -19.444   3.108  1.00  0.00     0.063 A 
HETATM    9  C   UNL     1      44.148 -20.006   5.269  1.00  0.00     0.156 A 
HETATM   10  N   UNL     1      45.058 -20.386   3.391  1.00  0.00    -0.277 N 
HETATM   11  C   UNL     1      43.755 -18.825   1.908  1.00  0.00     0.034 A 
HETATM   12  H   UNL     1      45.704 -20.821   2.742  1.00  0.00     0.189 HD
HETATM   13  N   UNL     1      45.111 -20.753   4.682  1.00  0.00    -0.168 NA
HETATM   14  C   UNL     1      42.723 -17.880   1.966  1.00  0.00     0.032 A 
BRANCH   9  15
HETATM   15  C   UNL     1      43.880 -20.113   6.710  1.00  0.00     0.270 C 
HETATM   16  N   UNL     1      44.069 -18.947   7.401  1.00  0.00    -0.365 N 
HETATM   17  H   UNL     1      44.368 -18.124   6.890  1.00  0.00     0.159 HD
HETATM   18  H   UNL     1      43.909 -18.925   8.395  1.00  0.00     0.159 HD
HETATM   19  O   UNL     1      43.519 -21.136   7.281  1.00  0.00    -0.266 OA
ENDBRANCH   9  15
ENDBRANCH   2   5
BRANCH   1  20
HETATM   20  C   UNL     1      39.851 -14.442   3.211  1.00  0.00     0.141 C 
BRANCH  20  21
HETATM   21  C   UNL     1      39.513 -14.142   1.768  1.00  0.00    -0.049 A 
HETATM   22  C   UNL     1      40.472 -13.584   0.912  1.00  0.00     0.010 A 
HETATM   23  C   UNL     1      40.134 -13.222  -0.396  1.00  0.00     0.037 A 
HETATM   24  C   UNL     1      38.833 -13.409  -0.862  1.00  0.00     0.068 A 
HETATM   25  C   UNL     1      37.884 -13.993  -0.020  1.00  0.00     0.037 A 
HETATM   26  C   UNL     1      38.217 -14.359   1.285  1.00  0.00     0.010 A 
BRANCH  24  27
HETATM   27  O   UNL     1      38.365 -13.068  -2.099  1.00  0.00    -0.351 OA
BRANCH  27  28
HETATM   28  C   UNL     1      38.903 -13.774  -3.218  1.00  0.00     0.179 C 
BRANCH  28  29
HETATM   29  C   UNL     1      38.062 -15.030  -3.497  1.00  0.00     0.002 C 
HETATM   30  C   UNL     1      38.866 -16.072  -4.276  1.00  0.00     0.011 C 
HETATM   31  C   UNL     1      36.778 -14.686  -4.253  1.00  0.00     0.011 C 
ENDBRANCH  28  29
ENDBRANCH  27  28
ENDBRANCH  24  27
ENDBRANCH  20  21
ENDBRANCH   1  20
TORSDOF 7
ENDMDL
MODEL 5
REMARK VINA RESULT:      -7.8      1.617      1.996
REMARK  7 active torsions:
REMARK  status: ('A' for Active; 'I' for Inactive)
REMARK    1  A    between atoms: C_2  and  C_3 
REMARK    2  A    between atoms: C_3  and  O_4 
REMARK    3  A    between atoms: O_4  and  C_5 
REMARK    4  A    between atoms: C_8  and  C_9 
REMARK    5  A    between atoms: C_9  and  C_10 
REMARK       I    between atoms: C_10  and  N_11 
REMARK    6  A    between atoms: N_11  and  C_12 
REMARK    7  A    between atoms: C_19  and  C_20 
REMARK       I    between atoms: C_20  and  N_21 
ROOT
HETATM    1  C   UNL     1      42.118 -13.555   2.247  1.00  0.00     0.226 C 
HETATM    2  N   UNL     1      40.878 -14.103   1.975  1.00  0.00    -0.327 N 
HETATM    3  O   UNL     1      42.712 -12.742   1.541  1.00  0.00    -0.273 OA
HETATM    4  H   UNL     1      40.518 -14.767   2.648  1.00  0.00     0.169 HD
ENDROOT
BRANCH   2   5
HETATM    5  C   UNL     1      40.010 -13.810   0.902  1.00  0.00     0.035 A 
HETATM    6  C   UNL     1      40.069 -14.435  -0.351  1.00  0.00     0.046 A 
HETATM    7  C   UNL     1      39.159 -14.054  -1.362  1.00  0.00     0.030 A 
HETATM    8  C   UNL     1      38.223 -13.065  -1.086  1.00  0.00     0.063 A 
HETATM    9  C   UNL     1      38.904 -14.433  -2.715  1.00  0.00     0.156 A 
HETATM   10  N   UNL     1      37.502 -12.914  -2.236  1.00  0.00    -0.277 N 
HETATM   11  C   UNL     1      38.132 -12.423   0.151  1.00  0.00     0.034 A 
HETATM   12  H   UNL     1      36.734 -12.273  -2.399  1.00  0.00     0.189 HD
HETATM   13  N   UNL     1      37.879 -13.721  -3.240  1.00  0.00    -0.168 NA
HETATM   14  C   UNL     1      39.046 -12.818   1.136  1.00  0.00     0.032 A 
BRANCH   9  15
HETATM   15  C   UNL     1      39.607 -15.448  -3.512  1.00  0.00     0.270 C 
HETATM   16  N   UNL     1      38.868 -16.573  -3.760  1.00  0.00    -0.365 N 
HETATM   17  H   UNL     1      37.925 -16.624  -3.391  1.00  0.00     0.159 HD
HETATM   18  H   UNL     1      39.267 -17.323  -4.300  1.00  0.00     0.159 HD
HETATM   19  O   UNL     1      40.751 -15.335  -3.937  1.00  0.00    -0.266 OA
ENDBRANCH   9  15
ENDBRANCH   2   5
BRANCH   1  20
HETATM   20  C   UNL     1      42.798 -14.073   3.517  1.00  0.00     0.141 C 
BRANCH  20  21
HETATM   21  C   UNL     1      43.143 -15.544   3.533  1.00  0.00    -0.049 A 
HETATM   22  C   UNL     1      43.633 -16.174   2.381  1.00  0.00     0.010 A 
HETATM   23  C   UNL     1      43.866 -17.554   2.369  1.00  0.00     0.037 A 
HETATM   24  C   UNL     1      43.607 -18.319   3.505  1.00  0.00     0.068 A 
HETATM   25  C   UNL     1      43.147 -17.688   4.662  1.00  0.00     0.037 A 
HETATM   26  C   UNL     1      42.916 -16.312   4.682  1.00  0.00     0.010 A 
BRANCH  24  27
HETATM   27  O   UNL     1      43.757 -19.672   3.614  1.00  0.00    -0.351 OA
BRANCH  27  28
HETATM   28  C   UNL     1      44.957 -20.241   3.089  1.00  0.00     0.179 C 
BRANCH  28  29
HETATM   29  C   UNL     1      44.659 -21.625   2.488  1.00  0.00     0.002 C 
HETATM   30  C   UNL     1      43.354 -21.611   1.689  1.00  0.00     0.011 C 
HETATM   31  C   UNL     1      44.597 -22.703   3.571  1.00  0.00     0.011 C 
ENDBRANCH  28  29
ENDBRANCH  27  28
ENDBRANCH  24  27
ENDBRANCH  20  21
ENDBRANCH   1  20
TORSDOF 7
ENDMDL
MODEL 6
REMARK VINA RESULT:      -7.6      6.613      9.483
REMARK  7 active torsions:
REMARK  status: ('A' for Active; 'I' for Inactive)
REMARK    1  A    between atoms: C_2  and  C_3 
REMARK    2  A    between atoms: C_3  and  O_4 
REMARK    3  A    between atoms: O_4  and  C_5 
REMARK    4  A    between atoms: C_8  and  C_9 
REMARK    5  A    between atoms: C_9  and  C_10 
REMARK       I    between atoms: C_10  and  N_11 
REMARK    6  A    between atoms: N_11  and  C_12 
REMARK    7  A    between atoms: C_19  and  C_20 
REMARK       I    between atoms: C_20  and  N_21 
ROOT
HETATM    1  C   UNL     1      44.488 -14.000   7.366  1.00  0.00     0.226 C 
HETATM    2  N   UNL     1      43.817 -13.622   6.218  1.00  0.00    -0.327 N 
HETATM    3  O   UNL     1      44.381 -15.086   7.933  1.00  0.00    -0.273 OA
HETATM    4  H   UNL     1      44.002 -12.690   5.869  1.00  0.00     0.169 HD
ENDROOT
BRANCH   2   5
HETATM    5  C   UNL     1      42.943 -14.394   5.422  1.00  0.00     0.035 A 
HETATM    6  C   UNL     1      43.366 -15.351   4.490  1.00  0.00     0.046 A 
HETATM    7  C   UNL     1      42.406 -16.058   3.734  1.00  0.00     0.030 A 
HETATM    8  C   UNL     1      41.058 -15.785   3.935  1.00  0.00     0.063 A 
HETATM    9  C   UNL     1      42.428 -17.069   2.725  1.00  0.00     0.156 A 
HETATM   10  N   UNL     1      40.388 -16.606   3.074  1.00  0.00    -0.277 N 
HETATM   11  C   UNL     1      40.600 -14.843   4.857  1.00  0.00     0.034 A 
HETATM   12  H   UNL     1      39.384 -16.674   2.947  1.00  0.00     0.189 HD
HETATM   13  N   UNL     1      41.177 -17.396   2.328  1.00  0.00    -0.168 NA
HETATM   14  C   UNL     1      41.572 -14.155   5.594  1.00  0.00     0.032 A 
BRANCH   9  15
HETATM   15  C   UNL     1      43.604 -17.724   2.136  1.00  0.00     0.270 C 
HETATM   16  N   UNL     1      44.006 -18.851   2.800  1.00  0.00    -0.365 N 
HETATM   17  H   UNL     1      43.485 -19.143   3.619  1.00  0.00     0.159 HD
HETATM   18  H   UNL     1      44.804 -19.368   2.468  1.00  0.00     0.159 HD
HETATM   19  O   UNL     1      44.200 -17.330   1.140  1.00  0.00    -0.266 OA
ENDBRANCH   9  15
ENDBRANCH   2   5
BRANCH   1  20
HETATM   20  C   UNL     1      45.389 -12.926   7.980  1.00  0.00     0.141 C 
BRANCH  20  21
HETATM   21  C   UNL     1      44.731 -11.992   8.970  1.00  0.00    -0.049 A 
HETATM   22  C   UNL     1      45.347 -11.703  10.195  1.00  0.00     0.010 A 
HETATM   23  C   UNL     1      44.697 -10.912  11.149  1.00  0.00     0.037 A 
HETATM   24  C   UNL     1      43.423 -10.407  10.891  1.00  0.00     0.068 A 
HETATM   25  C   UNL     1      42.822 -10.669   9.659  1.00  0.00     0.037 A 
HETATM   26  C   UNL     1      43.466 -11.454   8.702  1.00  0.00     0.010 A 
BRANCH  24  27
HETATM   27  O   UNL     1      42.668  -9.655  11.746  1.00  0.00    -0.351 OA
BRANCH  27  28
HETATM   28  C   UNL     1      42.453 -10.177  13.058  1.00  0.00     0.179 C 
BRANCH  28  29
HETATM   29  C   UNL     1      42.919  -9.155  14.108  1.00  0.00     0.002 C 
HETATM   30  C   UNL     1      42.298  -9.445  15.476  1.00  0.00     0.011 C 
HETATM   31  C   UNL     1      42.594  -7.724  13.679  1.00  0.00     0.011 C 
ENDBRANCH  28  29
ENDBRANCH  27  28
ENDBRANCH  24  27
ENDBRANCH  20  21
ENDBRANCH   1  20
TORSDOF 7
ENDMDL
MODEL 7
REMARK VINA RESULT:      -7.5      2.508      3.436
REMARK  7 active torsions:
REMARK  status: ('A' for Active; 'I' for Inactive)
REMARK    1  A    between atoms: C_2  and  C_3 
REMARK    2  A    between atoms: C_3  and  O_4 
REMARK    3  A    between atoms: O_4  and  C_5 
REMARK    4  A    between atoms: C_8  and  C_9 
REMARK    5  A    between atoms: C_9  and  C_10 
REMARK       I    between atoms: C_10  and  N_11 
REMARK    6  A    between atoms: N_11  and  C_12 
REMARK    7  A    between atoms: C_19  and  C_20 
REMARK       I    between atoms: C_20  and  N_21 
ROOT
HETATM    1  C   UNL     1      40.579 -15.619   1.185  1.00  0.00     0.226 C 
HETATM    2  N   UNL     1      40.903 -15.906  -0.128  1.00  0.00    -0.327 N 
HETATM    3  O   UNL     1      40.543 -14.496   1.684  1.00  0.00    -0.273 OA
HETATM    4  H   UNL     1      40.897 -16.883  -0.395  1.00  0.00     0.169 HD
ENDROOT
BRANCH   2   5
HETATM    5  C   UNL     1      41.185 -15.004  -1.176  1.00  0.00     0.035 A 
HETATM    6  C   UNL     1      41.667 -13.702  -0.985  1.00  0.00     0.046 A 
HETATM    7  C   UNL     1      41.903 -12.876  -2.106  1.00  0.00     0.030 A 
HETATM    8  C   UNL     1      41.648 -13.379  -3.376  1.00  0.00     0.063 A 
HETATM    9  C   UNL     1      42.371 -11.545  -2.326  1.00  0.00     0.156 A 
HETATM   10  N   UNL     1      41.961 -12.365  -4.238  1.00  0.00    -0.277 N 
HETATM   11  C   UNL     1      41.172 -14.670  -3.605  1.00  0.00     0.034 A 
HETATM   12  H   UNL     1      41.893 -12.378  -5.250  1.00  0.00     0.189 HD
HETATM   13  N   UNL     1      42.401 -11.245  -3.645  1.00  0.00    -0.168 NA
HETATM   14  C   UNL     1      40.947 -15.469  -2.478  1.00  0.00     0.032 A 
BRANCH   9  15
HETATM   15  C   UNL     1      42.787 -10.561  -1.316  1.00  0.00     0.270 C 
HETATM   16  N   UNL     1      42.297  -9.301  -1.530  1.00  0.00    -0.365 N 
HETATM   17  H   UNL     1      41.705  -9.142  -2.338  1.00  0.00     0.159 HD
HETATM   18  H   UNL     1      42.529  -8.560  -0.889  1.00  0.00     0.159 HD
HETATM   19  O   UNL     1      43.506 -10.806  -0.354  1.00  0.00    -0.266 OA
ENDBRANCH   9  15
ENDBRANCH   2   5
BRANCH   1  20
HETATM   20  C   UNL     1      40.300 -16.835   2.071  1.00  0.00     0.141 C 
BRANCH  20  21
HETATM   21  C   UNL     1      41.434 -17.278   2.968  1.00  0.00    -0.049 A 
HETATM   22  C   UNL     1      42.617 -17.792   2.420  1.00  0.00     0.010 A 
HETATM   23  C   UNL     1      43.629 -18.287   3.249  1.00  0.00     0.037 A 
HETATM   24  C   UNL     1      43.468 -18.278   4.634  1.00  0.00     0.068 A 
HETATM   25  C   UNL     1      42.303 -17.738   5.182  1.00  0.00     0.037 A 
HETATM   26  C   UNL     1      41.291 -17.241   4.360  1.00  0.00     0.010 A 
BRANCH  24  27
HETATM   27  O   UNL     1      44.359 -18.761   5.550  1.00  0.00    -0.351 OA
BRANCH  27  28
HETATM   28  C   UNL     1      45.110 -19.919   5.185  1.00  0.00     0.179 C 
BRANCH  28  29
HETATM   29  C   UNL     1      44.284 -21.185   5.464  1.00  0.00     0.002 C 
HETATM   30  C   UNL     1      43.845 -21.248   6.928  1.00  0.00     0.011 C 
HETATM   31  C   UNL     1      45.061 -22.450   5.096  1.00  0.00     0.011 C 
ENDBRANCH  28  29
ENDBRANCH  27  28
ENDBRANCH  24  27
ENDBRANCH  20  21
ENDBRANCH   1  20
TORSDOF 7
ENDMDL
MODEL 8
REMARK VINA RESULT:      -7.5      5.072      8.756
REMARK  7 active torsions:
REMARK  status: ('A' for Active; 'I' for Inactive)
REMARK    1  A    between atoms: C_2  and  C_3 
REMARK    2  A    between atoms: C_3  and  O_4 
REMARK    3  A    between atoms: O_4  and  C_5 
REMARK    4  A    between atoms: C_8  and  C_9 
REMARK    5  A    between atoms: C_9  and  C_10 
REMARK       I    between atoms: C_10  and  N_11 
REMARK    6  A    between atoms: N_11  and  C_12 
REMARK    7  A    between atoms: C_19  and  C_20 
REMARK       I    between atoms: C_20  and  N_21 
ROOT
HETATM    1  C   UNL     1      41.949 -15.840   4.374  1.00  0.00     0.226 C 
HETATM    2  N   UNL     1      43.017 -16.267   3.606  1.00  0.00    -0.327 N 
HETATM    3  O   UNL     1      40.997 -16.535   4.723  1.00  0.00    -0.273 OA
HETATM    4  H   UNL     1      43.726 -15.577   3.391  1.00  0.00     0.169 HD
ENDROOT
BRANCH   2   5
HETATM    5  C   UNL     1      43.286 -17.567   3.129  1.00  0.00     0.035 A 
HETATM    6  C   UNL     1      43.707 -18.631   3.938  1.00  0.00     0.046 A 
HETATM    7  C   UNL     1      43.963 -19.891   3.353  1.00  0.00     0.030 A 
HETATM    8  C   UNL     1      43.791 -20.043   1.983  1.00  0.00     0.063 A 
HETATM    9  C   UNL     1      44.391 -21.173   3.813  1.00  0.00     0.156 A 
HETATM   10  N   UNL     1      44.114 -21.344   1.717  1.00  0.00    -0.277 N 
HETATM   11  C   UNL     1      43.370 -19.008   1.147  1.00  0.00     0.034 A 
HETATM   12  H   UNL     1      44.105 -21.806   0.815  1.00  0.00     0.189 HD
HETATM   13  N   UNL     1      44.479 -22.058   2.793  1.00  0.00    -0.168 NA
HETATM   14  C   UNL     1      43.122 -17.769   1.750  1.00  0.00     0.032 A 
BRANCH   9  15
HETATM   15  C   UNL     1      44.715 -21.571   5.190  1.00  0.00     0.270 C 
HETATM   16  N   UNL     1      45.496 -22.692   5.278  1.00  0.00    -0.365 N 
HETATM   17  H   UNL     1      45.783 -23.150   4.420  1.00  0.00     0.159 HD
HETATM   18  H   UNL     1      45.769 -23.040   6.182  1.00  0.00     0.159 HD
HETATM   19  O   UNL     1      44.341 -20.980   6.197  1.00  0.00    -0.266 OA
ENDBRANCH   9  15
ENDBRANCH   2   5
BRANCH   1  20
HETATM   20  C   UNL     1      41.966 -14.358   4.752  1.00  0.00     0.141 C 
BRANCH  20  21
HETATM   21  C   UNL     1      42.952 -13.956   5.825  1.00  0.00    -0.049 A 
HETATM   22  C   UNL     1      44.018 -14.801   6.165  1.00  0.00     0.010 A 
HETATM   23  C   UNL     1      44.877 -14.473   7.220  1.00  0.00     0.037 A 
HETATM   24  C   UNL     1      44.677 -13.302   7.950  1.00  0.00     0.068 A 
HETATM   25  C   UNL     1      43.633 -12.445   7.592  1.00  0.00     0.037 A 
HETATM   26  C   UNL     1      42.775 -12.765   6.539  1.00  0.00     0.010 A 
BRANCH  24  27
HETATM   27  O   UNL     1      45.416 -12.884   9.019  1.00  0.00    -0.351 OA
BRANCH  27  28
HETATM   28  C   UNL     1      45.396 -11.489   9.323  1.00  0.00     0.179 C 
BRANCH  28  29
HETATM   29  C   UNL     1      44.968 -11.280  10.785  1.00  0.00     0.002 C 
HETATM   30  C   UNL     1      44.389 -12.564  11.381  1.00  0.00     0.011 C 
HETATM   31  C   UNL     1      43.956 -10.141  10.913  1.00  0.00     0.011 C 
ENDBRANCH  28  29
ENDBRANCH  27  28
ENDBRANCH  24  27
ENDBRANCH  20  21
ENDBRANCH   1  20
TORSDOF 7
ENDMDL
MODEL 9
REMARK VINA RESULT:      -7.4      2.473      3.656
REMARK  7 active torsions:
REMARK  status: ('A' for Active; 'I' for Inactive)
REMARK    1  A    between atoms: C_2  and  C_3 
REMARK    2  A    between atoms: C_3  and  O_4 
REMARK    3  A    between atoms: O_4  and  C_5 
REMARK    4  A    between atoms: C_8  and  C_9 
REMARK    5  A    between atoms: C_9  and  C_10 
REMARK       I    between atoms: C_10  and  N_11 
REMARK    6  A    between atoms: N_11  and  C_12 
REMARK    7  A    between atoms: C_19  and  C_20 
REMARK       I    between atoms: C_20  and  N_21 
ROOT
HETATM    1  C   UNL     1      42.886 -14.306   5.709  1.00  0.00     0.226 C 
HETATM    2  N   UNL     1      41.513 -14.212   5.848  1.00  0.00    -0.327 N 
HETATM    3  O   UNL     1      43.550 -13.794   4.809  1.00  0.00    -0.273 OA
HETATM    4  H   UNL     1      41.103 -14.694   6.638  1.00  0.00     0.169 HD
ENDROOT
BRANCH   2   5
HETATM    5  C   UNL     1      40.603 -13.474   5.062  1.00  0.00     0.035 A 
HETATM    6  C   UNL     1      40.211 -13.834   3.766  1.00  0.00     0.046 A 
HETATM    7  C   UNL     1      39.303 -13.013   3.061  1.00  0.00     0.030 A 
HETATM    8  C   UNL     1      38.820 -11.864   3.674  1.00  0.00     0.063 A 
HETATM    9  C   UNL     1      38.683 -13.030   1.774  1.00  0.00     0.156 A 
HETATM   10  N   UNL     1      37.983 -11.288   2.760  1.00  0.00    -0.277 N 
HETATM   11  C   UNL     1      39.185 -11.476   4.964  1.00  0.00     0.034 A 
HETATM   12  H   UNL     1      37.456 -10.429   2.868  1.00  0.00     0.189 HD
HETATM   13  N   UNL     1      37.873 -11.960   1.604  1.00  0.00    -0.168 NA
HETATM   14  C   UNL     1      40.086 -12.306   5.642  1.00  0.00     0.032 A 
BRANCH   9  15
HETATM   15  C   UNL     1      38.844 -14.034   0.713  1.00  0.00     0.270 C 
HETATM   16  N   UNL     1      37.782 -14.112  -0.147  1.00  0.00    -0.365 N 
HETATM   17  H   UNL     1      36.991 -13.497   0.004  1.00  0.00     0.159 HD
HETATM   18  H   UNL     1      37.803 -14.772  -0.907  1.00  0.00     0.159 HD
HETATM   19  O   UNL     1      39.825 -14.755   0.574  1.00  0.00    -0.266 OA
ENDBRANCH   9  15
ENDBRANCH   2   5
BRANCH   1  20
HETATM   20  C   UNL     1      43.591 -15.175   6.752  1.00  0.00     0.141 C 
BRANCH  20  21
HETATM   21  C   UNL     1      43.817 -16.620   6.371  1.00  0.00    -0.049 A 
HETATM   22  C   UNL     1      45.093 -17.193   6.470  1.00  0.00     0.010 A 
HETATM   23  C   UNL     1      45.321 -18.501   6.032  1.00  0.00     0.037 A 
HETATM   24  C   UNL     1      44.279 -19.251   5.486  1.00  0.00     0.068 A 
HETATM   25  C   UNL     1      43.002 -18.692   5.415  1.00  0.00     0.037 A 
HETATM   26  C   UNL     1      42.767 -17.388   5.853  1.00  0.00     0.010 A 
BRANCH  24  27
HETATM   27  O   UNL     1      44.375 -20.520   4.991  1.00  0.00    -0.351 OA
BRANCH  27  28
HETATM   28  C   UNL     1      44.959 -20.674   3.697  1.00  0.00     0.179 C 
BRANCH  28  29
HETATM   29  C   UNL     1      43.852 -20.773   2.634  1.00  0.00     0.002 C 
HETATM   30  C   UNL     1      44.136 -21.904   1.643  1.00  0.00     0.011 C 
HETATM   31  C   UNL     1      43.679 -19.452   1.884  1.00  0.00     0.011 C 
ENDBRANCH  28  29
ENDBRANCH  27  28
ENDBRANCH  24  27
ENDBRANCH  20  21
ENDBRANCH   1  20
TORSDOF 7
ENDMDL
MODEL 10
REMARK VINA RESULT:      -7.4      3.311      8.622
REMARK  7 active torsions:
REMARK  status: ('A' for Active; 'I' for Inactive)
REMARK    1  A    between atoms: C_2  and  C_3 
REMARK    2  A    between atoms: C_3  and  O_4 
REMARK    3  A    between atoms: O_4  and  C_5 
REMARK    4  A    between atoms: C_8  and  C_9 
REMARK    5  A    between atoms: C_9  and  C_10 
REMARK       I    between atoms: C_10  and  N_11 
REMARK    6  A    between atoms: N_11  and  C_12 
REMARK    7  A    between atoms: C_19  and  C_20 
REMARK       I    between atoms: C_20  and  N_21 
ROOT
HETATM    1  C   UNL     1      42.130 -15.690   3.338  1.00  0.00     0.226 C 
HETATM    2  N   UNL     1      43.361 -16.317   3.276  1.00  0.00    -0.327 N 
HETATM    3  O   UNL     1      41.124 -16.143   3.880  1.00  0.00    -0.273 OA
HETATM    4  H   UNL     1      44.098 -15.823   2.788  1.00  0.00     0.169 HD
ENDROOT
BRANCH   2   5
HETATM    5  C   UNL     1      43.750 -17.540   3.862  1.00  0.00     0.035 A 
HETATM    6  C   UNL     1      43.823 -18.756   3.170  1.00  0.00     0.046 A 
HETATM    7  C   UNL     1      44.211 -19.926   3.859  1.00  0.00     0.030 A 
HETATM    8  C   UNL     1      44.511 -19.841   5.212  1.00  0.00     0.063 A 
HETATM    9  C   UNL     1      44.398 -21.303   3.527  1.00  0.00     0.156 A 
HETATM   10  N   UNL     1      44.841 -21.112   5.593  1.00  0.00    -0.277 N 
HETATM   11  C   UNL     1      44.454 -18.648   5.933  1.00  0.00     0.034 A 
HETATM   12  H   UNL     1      45.113 -21.423   6.519  1.00  0.00     0.189 HD
HETATM   13  N   UNL     1      44.786 -22.021   4.607  1.00  0.00    -0.168 NA
HETATM   14  C   UNL     1      44.067 -17.502   5.228  1.00  0.00     0.032 A 
BRANCH   9  15
HETATM   15  C   UNL     1      44.217 -21.945   2.218  1.00  0.00     0.270 C 
HETATM   16  N   UNL     1      43.015 -21.671   1.623  1.00  0.00    -0.365 N 
HETATM   17  H   UNL     1      42.361 -21.068   2.109  1.00  0.00     0.159 HD
HETATM   18  H   UNL     1      42.803 -22.066   0.722  1.00  0.00     0.159 HD
HETATM   19  O   UNL     1      45.043 -22.668   1.672  1.00  0.00    -0.266 OA
ENDBRANCH   9  15
ENDBRANCH   2   5
BRANCH   1  20
HETATM   20  C   UNL     1      42.042 -14.347   2.611  1.00  0.00     0.141 C 
BRANCH  20  21
HETATM   21  C   UNL     1      41.572 -14.397   1.175  1.00  0.00    -0.049 A 
HETATM   22  C   UNL     1      41.426 -15.625   0.516  1.00  0.00     0.010 A 
HETATM   23  C   UNL     1      41.080 -15.668  -0.839  1.00  0.00     0.037 A 
HETATM   24  C   UNL     1      40.881 -14.486  -1.551  1.00  0.00     0.068 A 
HETATM   25  C   UNL     1      40.996 -13.263  -0.887  1.00  0.00     0.037 A 
HETATM   26  C   UNL     1      41.338 -13.213   0.465  1.00  0.00     0.010 A 
BRANCH  24  27
HETATM   27  O   UNL     1      40.576 -14.388  -2.878  1.00  0.00    -0.351 OA
BRANCH  27  28
HETATM   28  C   UNL     1      39.276 -13.902  -3.216  1.00  0.00     0.179 C 
BRANCH  28  29
HETATM   29  C   UNL     1      38.320 -15.084  -3.445  1.00  0.00     0.002 C 
HETATM   30  C   UNL     1      38.983 -16.176  -4.287  1.00  0.00     0.011 C 
HETATM   31  C   UNL     1      37.019 -14.630  -4.108  1.00  0.00     0.011 C 
ENDBRANCH  28  29
ENDBRANCH  27  28
ENDBRANCH  24  27
ENDBRANCH  20  21
ENDBRANCH   1  20
TORSDOF 7
ENDMDL
