MODEL 1
REMARK VINA RESULT:      -8.3      0.000      0.000
REMARK  6 active torsions:
REMARK  status: ('A' for Active; 'I' for Inactive)
REMARK    1  A    between atoms: C_7  and  S_8 
REMARK    2  A    between atoms: S_8  and  C_9 
REMARK    3  A    between atoms: C_9  and  C_10 
REMARK    4  A    between atoms: C_18  and  C_19 
REMARK    5  A    between atoms: C_26  and  C_27 
REMARK    6  A    between atoms: C_27  and  O_28 
ROOT
HETATM    1  C   UNL     1      39.757 -14.914   0.771  1.00  0.00     0.070 C 
HETATM    2  C   UNL     1      40.424 -14.977   2.123  1.00  0.00     0.037 C 
HETATM    3  N   UNL     1      40.423 -16.227   2.737  1.00  0.00    -0.192 N 
HETATM    4  C   UNL     1      41.198 -16.519   3.800  1.00  0.00     0.726 A 
HETATM    5  N   UNL     1      41.855 -15.512   4.448  1.00  0.00    -0.082 N 
HETATM    6  N   UNL     1      42.662 -15.994   5.416  1.00  0.00    -0.128 NA
HETATM    7  C   UNL     1      42.416 -17.308   5.313  1.00  0.00     0.226 A 
HETATM    8  N   UNL     1      41.510 -17.663   4.343  1.00  0.00    -0.035 NA
HETATM    9  C   UNL     1      41.768 -14.098   4.062  1.00  0.00     0.203 C 
HETATM   10  C   UNL     1      41.060 -13.936   2.720  1.00  0.00     0.070 C 
HETATM   11  H   UNL     1      40.026 -17.004   2.213  1.00  0.00     0.184 HD
ENDROOT
BRANCH   7  12
HETATM   12  S   UNL     1      43.223 -18.516   6.273  1.00  0.00    -0.083 SA
BRANCH  12  13
HETATM   13  C   UNL     1      44.757 -18.757   5.338  1.00  0.00     0.123 C 
BRANCH  13  14
HETATM   14  C   UNL     1      44.666 -19.988   4.464  1.00  0.00    -0.027 A 
HETATM   15  C   UNL     1      44.364 -19.932   3.094  1.00  0.00     0.041 A 
HETATM   16 CL   UNL     1      44.102 -18.435   2.270  1.00  0.00    -0.084 Cl
HETATM   17  C   UNL     1      44.256 -21.107   2.340  1.00  0.00     0.024 A 
HETATM   18  C   UNL     1      44.439 -22.351   2.944  1.00  0.00     0.002 A 
HETATM   19  C   UNL     1      44.731 -22.424   4.302  1.00  0.00     0.001 A 
HETATM   20  C   UNL     1      44.844 -21.254   5.056  1.00  0.00     0.009 A 
ENDBRANCH  13  14
ENDBRANCH  12  13
ENDBRANCH   7  12
BRANCH   9  21
HETATM   21  C   UNL     1      41.085 -13.290   5.167  1.00  0.00    -0.026 A 
HETATM   22  C   UNL     1      41.810 -12.304   5.858  1.00  0.00     0.033 A 
HETATM   23  C   UNL     1      41.194 -11.540   6.850  1.00  0.00     0.034 A 
HETATM   24 CL   UNL     1      42.095 -10.334   7.684  1.00  0.00    -0.084 Cl
HETATM   25  C   UNL     1      39.852 -11.739   7.165  1.00  0.00     0.024 A 
HETATM   26  C   UNL     1      39.118 -12.708   6.483  1.00  0.00     0.002 A 
HETATM   27  C   UNL     1      39.728 -13.476   5.488  1.00  0.00     0.010 A 
ENDBRANCH   9  21
BRANCH  10  28
HETATM   28  C   UNL     1      41.207 -12.584   2.141  1.00  0.00     0.293 C 
HETATM   29  O   UNL     1      40.347 -11.723   2.254  1.00  0.00    -0.259 OA
BRANCH  28  30
HETATM   30  O   UNL     1      42.359 -12.468   1.439  1.00  0.00    -0.323 OA
HETATM   31  C   UNL     1      42.174 -12.066   0.080  1.00  0.00     0.213 C 
ENDBRANCH  28  30
ENDBRANCH  10  28
TORSDOF 6
ENDMDL
MODEL 2
REMARK VINA RESULT:      -8.2      3.128      4.012
REMARK  6 active torsions:
REMARK  status: ('A' for Active; 'I' for Inactive)
REMARK    1  A    between atoms: C_7  and  S_8 
REMARK    2  A    between atoms: S_8  and  C_9 
REMARK    3  A    between atoms: C_9  and  C_10 
REMARK    4  A    between atoms: C_18  and  C_19 
REMARK    5  A    between atoms: C_26  and  C_27 
REMARK    6  A    between atoms: C_27  and  O_28 
ROOT
HETATM    1  C   UNL     1      41.967 -13.444  -3.096  1.00  0.00     0.070 C 
HETATM    2  C   UNL     1      41.773 -13.640  -1.613  1.00  0.00     0.037 C 
HETATM    3  N   UNL     1      41.530 -14.950  -1.207  1.00  0.00    -0.192 N 
HETATM    4  C   UNL     1      41.602 -15.339   0.081  1.00  0.00     0.726 A 
HETATM    5  N   UNL     1      41.707 -14.396   1.064  1.00  0.00    -0.082 N 
HETATM    6  N   UNL     1      41.875 -14.964   2.276  1.00  0.00    -0.128 NA
HETATM    7  C   UNL     1      41.832 -16.264   1.949  1.00  0.00     0.226 A 
HETATM    8  N   UNL     1      41.649 -16.530   0.614  1.00  0.00    -0.035 NA
HETATM    9  C   UNL     1      41.737 -12.951   0.808  1.00  0.00     0.203 C 
HETATM   10  C   UNL     1      41.885 -12.658  -0.683  1.00  0.00     0.070 C 
HETATM   11  H   UNL     1      41.554 -15.673  -1.922  1.00  0.00     0.184 HD
ENDROOT
BRANCH   7  12
HETATM   12  S   UNL     1      42.061 -17.551   3.098  1.00  0.00    -0.083 SA
BRANCH  12  13
HETATM   13  C   UNL     1      43.801 -17.980   2.820  1.00  0.00     0.123 C 
BRANCH  13  14
HETATM   14  C   UNL     1      44.010 -19.474   2.928  1.00  0.00    -0.027 A 
HETATM   15  C   UNL     1      44.591 -20.086   4.051  1.00  0.00     0.041 A 
HETATM   16 CL   UNL     1      45.089 -19.181   5.437  1.00  0.00    -0.084 Cl
HETATM   17  C   UNL     1      44.795 -21.471   4.082  1.00  0.00     0.024 A 
HETATM   18  C   UNL     1      44.432 -22.261   2.992  1.00  0.00     0.002 A 
HETATM   19  C   UNL     1      43.863 -21.669   1.868  1.00  0.00     0.001 A 
HETATM   20  C   UNL     1      43.654 -20.289   1.836  1.00  0.00     0.009 A 
ENDBRANCH  13  14
ENDBRANCH  12  13
ENDBRANCH   7  12
BRANCH   9  21
HETATM   21  C   UNL     1      40.495 -12.283   1.399  1.00  0.00    -0.026 A 
HETATM   22  C   UNL     1      39.238 -12.503   0.808  1.00  0.00     0.033 A 
HETATM   23  C   UNL     1      38.092 -11.922   1.352  1.00  0.00     0.034 A 
HETATM   24 CL   UNL     1      36.560 -12.204   0.619  1.00  0.00    -0.084 Cl
HETATM   25  C   UNL     1      38.175 -11.122   2.489  1.00  0.00     0.024 A 
HETATM   26  C   UNL     1      39.413 -10.901   3.090  1.00  0.00     0.002 A 
HETATM   27  C   UNL     1      40.564 -11.480   2.552  1.00  0.00     0.010 A 
ENDBRANCH   9  21
BRANCH  10  28
HETATM   28  C   UNL     1      42.222 -11.248  -0.971  1.00  0.00     0.293 C 
HETATM   29  O   UNL     1      41.387 -10.434  -1.339  1.00  0.00    -0.259 OA
BRANCH  28  30
HETATM   30  O   UNL     1      43.549 -11.018  -0.837  1.00  0.00    -0.323 OA
HETATM   31  C   UNL     1      43.952  -9.700  -1.216  1.00  0.00     0.213 C 
ENDBRANCH  28  30
ENDBRANCH  10  28
TORSDOF 6
ENDMDL
MODEL 3
REMARK VINA RESULT:      -8.1      2.265      4.003
REMARK  6 active torsions:
REMARK  status: ('A' for Active; 'I' for Inactive)
REMARK    1  A    between atoms: C_7  and  S_8 
REMARK    2  A    between atoms: S_8  and  C_9 
REMARK    3  A    between atoms: C_9  and  C_10 
REMARK    4  A    between atoms: C_18  and  C_19 
REMARK    5  A    between atoms: C_26  and  C_27 
REMARK    6  A    between atoms: C_27  and  O_28 
ROOT
HETATM    1  C   UNL     1      42.124 -11.472   6.937  1.00  0.00     0.070 C 
HETATM    2  C   UNL     1      41.906 -12.803   6.261  1.00  0.00     0.037 C 
HETATM    3  N   UNL     1      42.929 -13.735   6.424  1.00  0.00    -0.192 N 
HETATM    4  C   UNL     1      42.782 -15.040   6.123  1.00  0.00     0.726 A 
HETATM    5  N   UNL     1      41.674 -15.450   5.435  1.00  0.00    -0.082 N 
HETATM    6  N   UNL     1      41.640 -16.794   5.316  1.00  0.00    -0.128 NA
HETATM    7  C   UNL     1      42.782 -17.128   5.934  1.00  0.00     0.226 A 
HETATM    8  N   UNL     1      43.515 -16.076   6.426  1.00  0.00    -0.035 NA
HETATM    9  C   UNL     1      40.613 -14.544   4.982  1.00  0.00     0.203 C 
HETATM   10  C   UNL     1      40.782 -13.151   5.585  1.00  0.00     0.070 C 
HETATM   11  H   UNL     1      43.710 -13.471   7.021  1.00  0.00     0.184 HD
ENDROOT
BRANCH   7  12
HETATM   12  S   UNL     1      43.296 -18.773   6.178  1.00  0.00    -0.083 SA
BRANCH  12  13
HETATM   13  C   UNL     1      44.718 -18.879   5.059  1.00  0.00     0.123 C 
BRANCH  13  14
HETATM   14  C   UNL     1      44.469 -19.895   3.967  1.00  0.00    -0.027 A 
HETATM   15  C   UNL     1      43.898 -19.562   2.728  1.00  0.00     0.041 A 
HETATM   16 CL   UNL     1      43.459 -17.940   2.324  1.00  0.00    -0.084 Cl
HETATM   17  C   UNL     1      43.656 -20.551   1.767  1.00  0.00     0.024 A 
HETATM   18  C   UNL     1      43.970 -21.883   2.032  1.00  0.00     0.002 A 
HETATM   19  C   UNL     1      44.529 -22.231   3.258  1.00  0.00     0.001 A 
HETATM   20  C   UNL     1      44.776 -21.247   4.217  1.00  0.00     0.009 A 
ENDBRANCH  13  14
ENDBRANCH  12  13
ENDBRANCH   7  12
BRANCH   9  21
HETATM   21  C   UNL     1      40.570 -14.502   3.455  1.00  0.00    -0.026 A 
HETATM   22  C   UNL     1      39.330 -14.487   2.792  1.00  0.00     0.033 A 
HETATM   23  C   UNL     1      39.274 -14.421   1.400  1.00  0.00     0.034 A 
HETATM   24 CL   UNL     1      37.748 -14.400   0.604  1.00  0.00    -0.084 Cl
HETATM   25  C   UNL     1      40.444 -14.365   0.646  1.00  0.00     0.024 A 
HETATM   26  C   UNL     1      41.681 -14.371   1.289  1.00  0.00     0.002 A 
HETATM   27  C   UNL     1      41.744 -14.436   2.683  1.00  0.00     0.010 A 
ENDBRANCH   9  21
BRANCH  10  28
HETATM   28  C   UNL     1      39.592 -12.291   5.411  1.00  0.00     0.293 C 
HETATM   29  O   UNL     1      38.555 -12.471   6.033  1.00  0.00    -0.259 OA
BRANCH  28  30
HETATM   30  O   UNL     1      39.791 -11.357   4.453  1.00  0.00    -0.323 OA
HETATM   31  C   UNL     1      39.339 -10.049   4.813  1.00  0.00     0.213 C 
ENDBRANCH  28  30
ENDBRANCH  10  28
TORSDOF 6
ENDMDL
MODEL 4
REMARK VINA RESULT:      -8.1      2.905      3.573
REMARK  6 active torsions:
REMARK  status: ('A' for Active; 'I' for Inactive)
REMARK    1  A    between atoms: C_7  and  S_8 
REMARK    2  A    between atoms: S_8  and  C_9 
REMARK    3  A    between atoms: C_9  and  C_10 
REMARK    4  A    between atoms: C_18  and  C_19 
REMARK    5  A    between atoms: C_26  and  C_27 
REMARK    6  A    between atoms: C_27  and  O_28 
ROOT
HETATM    1  C   UNL     1      41.016 -15.259  -3.163  1.00  0.00     0.070 C 
HETATM    2  C   UNL     1      41.086 -15.092  -1.666  1.00  0.00     0.037 C 
HETATM    3  N   UNL     1      40.962 -16.265  -0.924  1.00  0.00    -0.192 N 
HETATM    4  C   UNL     1      41.268 -16.335   0.387  1.00  0.00     0.726 A 
HETATM    5  N   UNL     1      41.507 -15.184   1.083  1.00  0.00    -0.082 N 
HETATM    6  N   UNL     1      41.900 -15.447   2.347  1.00  0.00    -0.128 NA
HETATM    7  C   UNL     1      41.847 -16.787   2.351  1.00  0.00     0.226 A 
HETATM    8  N   UNL     1      41.447 -17.363   1.170  1.00  0.00    -0.035 NA
HETATM    9  C   UNL     1      41.443 -13.843   0.491  1.00  0.00     0.203 C 
HETATM   10  C   UNL     1      41.322 -13.917  -1.029  1.00  0.00     0.070 C 
HETATM   11  H   UNL     1      40.888 -17.139  -1.440  1.00  0.00     0.184 HD
ENDROOT
BRANCH   7  12
HETATM   12  S   UNL     1      42.314 -17.763   3.714  1.00  0.00    -0.083 SA
BRANCH  12  13
HETATM   13  C   UNL     1      43.999 -18.249   3.252  1.00  0.00     0.123 C 
BRANCH  13  14
HETATM   14  C   UNL     1      44.201 -19.735   3.444  1.00  0.00    -0.027 A 
HETATM   15  C   UNL     1      44.559 -20.306   4.676  1.00  0.00     0.041 A 
HETATM   16 CL   UNL     1      44.765 -19.354   6.105  1.00  0.00    -0.084 Cl
HETATM   17  C   UNL     1      44.770 -21.685   4.788  1.00  0.00     0.024 A 
HETATM   18  C   UNL     1      44.636 -22.511   3.672  1.00  0.00     0.002 A 
HETATM   19  C   UNL     1      44.291 -21.961   2.442  1.00  0.00     0.001 A 
HETATM   20  C   UNL     1      44.076 -20.586   2.328  1.00  0.00     0.009 A 
ENDBRANCH  13  14
ENDBRANCH  12  13
ENDBRANCH   7  12
BRANCH   9  21
HETATM   21  C   UNL     1      40.298 -13.044   1.114  1.00  0.00    -0.026 A 
HETATM   22  C   UNL     1      40.585 -11.923   1.912  1.00  0.00     0.033 A 
HETATM   23  C   UNL     1      39.550 -11.168   2.466  1.00  0.00     0.034 A 
HETATM   24 CL   UNL     1      39.918  -9.796   3.439  1.00  0.00    -0.084 Cl
HETATM   25  C   UNL     1      38.221 -11.509   2.232  1.00  0.00     0.024 A 
HETATM   26  C   UNL     1      37.921 -12.614   1.436  1.00  0.00     0.002 A 
HETATM   27  C   UNL     1      38.951 -13.374   0.878  1.00  0.00     0.010 A 
ENDBRANCH   9  21
BRANCH  10  28
HETATM   28  C   UNL     1      41.557 -12.619  -1.698  1.00  0.00     0.293 C 
HETATM   29  O   UNL     1      40.657 -11.980  -2.225  1.00  0.00    -0.259 OA
BRANCH  28  30
HETATM   30  O   UNL     1      42.869 -12.291  -1.698  1.00  0.00    -0.323 OA
HETATM   31  C   UNL     1      43.131 -10.942  -1.305  1.00  0.00     0.213 C 
ENDBRANCH  28  30
ENDBRANCH  10  28
TORSDOF 6
ENDMDL
MODEL 5
REMARK VINA RESULT:      -8.0      3.884      5.606
REMARK  6 active torsions:
REMARK  status: ('A' for Active; 'I' for Inactive)
REMARK    1  A    between atoms: C_7  and  S_8 
REMARK    2  A    between atoms: S_8  and  C_9 
REMARK    3  A    between atoms: C_9  and  C_10 
REMARK    4  A    between atoms: C_18  and  C_19 
REMARK    5  A    between atoms: C_26  and  C_27 
REMARK    6  A    between atoms: C_27  and  O_28 
ROOT
HETATM    1  C   UNL     1      37.056 -13.647   0.629  1.00  0.00     0.070 C 
HETATM    2  C   UNL     1      38.472 -13.978   0.229  1.00  0.00     0.037 C 
HETATM    3  N   UNL     1      39.323 -14.337   1.271  1.00  0.00    -0.192 N 
HETATM    4  C   UNL     1      40.523 -14.916   1.067  1.00  0.00     0.726 A 
HETATM    5  N   UNL     1      41.037 -14.968  -0.198  1.00  0.00    -0.082 N 
HETATM    6  N   UNL     1      42.188 -15.672  -0.232  1.00  0.00    -0.128 NA
HETATM    7  C   UNL     1      42.323 -15.991   1.064  1.00  0.00     0.226 A 
HETATM    8  N   UNL     1      41.329 -15.529   1.891  1.00  0.00    -0.035 NA
HETATM    9  C   UNL     1      40.361 -14.417  -1.377  1.00  0.00     0.203 C 
HETATM   10  C   UNL     1      38.926 -14.008  -1.050  1.00  0.00     0.070 C 
HETATM   11  H   UNL     1      38.919 -14.401   2.203  1.00  0.00     0.184 HD
ENDROOT
BRANCH   7  12
HETATM   12  S   UNL     1      43.616 -16.981   1.680  1.00  0.00    -0.083 SA
BRANCH  12  13
HETATM   13  C   UNL     1      42.724 -18.075   2.818  1.00  0.00     0.123 C 
BRANCH  13  14
HETATM   14  C   UNL     1      43.373 -19.440   2.871  1.00  0.00    -0.027 A 
HETATM   15  C   UNL     1      44.276 -19.819   3.878  1.00  0.00     0.041 A 
HETATM   16 CL   UNL     1      44.700 -18.761   5.178  1.00  0.00    -0.084 Cl
HETATM   17  C   UNL     1      44.875 -21.083   3.858  1.00  0.00     0.024 A 
HETATM   18  C   UNL     1      44.591 -21.981   2.829  1.00  0.00     0.002 A 
HETATM   19  C   UNL     1      43.705 -21.619   1.820  1.00  0.00     0.001 A 
HETATM   20  C   UNL     1      43.102 -20.360   1.839  1.00  0.00     0.009 A 
ENDBRANCH  13  14
ENDBRANCH  12  13
ENDBRANCH   7  12
BRANCH   9  21
HETATM   21  C   UNL     1      41.167 -13.252  -1.953  1.00  0.00    -0.026 A 
HETATM   22  C   UNL     1      41.709 -12.285  -1.088  1.00  0.00     0.033 A 
HETATM   23  C   UNL     1      42.469 -11.231  -1.595  1.00  0.00     0.034 A 
HETATM   24 CL   UNL     1      43.129 -10.058  -0.522  1.00  0.00    -0.084 Cl
HETATM   25  C   UNL     1      42.707 -11.124  -2.963  1.00  0.00     0.024 A 
HETATM   26  C   UNL     1      42.182 -12.079  -3.833  1.00  0.00     0.002 A 
HETATM   27  C   UNL     1      41.421 -13.137  -3.332  1.00  0.00     0.010 A 
ENDBRANCH   9  21
BRANCH  10  28
HETATM   28  C   UNL     1      38.109 -13.733  -2.250  1.00  0.00     0.293 C 
HETATM   29  O   UNL     1      37.915 -12.600  -2.667  1.00  0.00    -0.259 OA
BRANCH  28  30
HETATM   30  O   UNL     1      37.575 -14.868  -2.758  1.00  0.00    -0.323 OA
HETATM   31  C   UNL     1      38.183 -15.302  -3.976  1.00  0.00     0.213 C 
ENDBRANCH  28  30
ENDBRANCH  10  28
TORSDOF 6
ENDMDL
MODEL 6
REMARK VINA RESULT:      -8.0      3.148      5.263
REMARK  6 active torsions:
REMARK  status: ('A' for Active; 'I' for Inactive)
REMARK    1  A    between atoms: C_7  and  S_8 
REMARK    2  A    between atoms: S_8  and  C_9 
REMARK    3  A    between atoms: C_9  and  C_10 
REMARK    4  A    between atoms: C_18  and  C_19 
REMARK    5  A    between atoms: C_26  and  C_27 
REMARK    6  A    between atoms: C_27  and  O_28 
ROOT
HETATM    1  C   UNL     1      39.332 -12.237   3.269  1.00  0.00     0.070 C 
HETATM    2  C   UNL     1      39.974 -13.176   2.278  1.00  0.00     0.037 C 
HETATM    3  N   UNL     1      41.221 -13.678   2.646  1.00  0.00    -0.192 N 
HETATM    4  C   UNL     1      41.802 -14.719   2.019  1.00  0.00     0.726 A 
HETATM    5  N   UNL     1      41.270 -15.180   0.848  1.00  0.00    -0.082 N 
HETATM    6  N   UNL     1      41.912 -16.287   0.419  1.00  0.00    -0.128 NA
HETATM    7  C   UNL     1      42.844 -16.420   1.373  1.00  0.00     0.226 A 
HETATM    8  N   UNL     1      42.816 -15.466   2.360  1.00  0.00    -0.035 NA
HETATM    9  C   UNL     1      40.086 -14.599   0.204  1.00  0.00     0.203 C 
HETATM   10  C   UNL     1      39.396 -13.595   1.124  1.00  0.00     0.070 C 
HETATM   11  H   UNL     1      41.575 -13.420   3.564  1.00  0.00     0.184 HD
ENDROOT
BRANCH   7  12
HETATM   12  S   UNL     1      43.981 -17.737   1.428  1.00  0.00    -0.083 SA
BRANCH  12  13
HETATM   13  C   UNL     1      43.837 -18.268   3.156  1.00  0.00     0.123 C 
BRANCH  13  14
HETATM   14  C   UNL     1      44.104 -19.751   3.287  1.00  0.00    -0.027 A 
HETATM   15  C   UNL     1      44.513 -20.351   4.489  1.00  0.00     0.041 A 
HETATM   16 CL   UNL     1      44.713 -19.445   5.948  1.00  0.00    -0.084 Cl
HETATM   17  C   UNL     1      44.783 -21.723   4.544  1.00  0.00     0.024 A 
HETATM   18  C   UNL     1      44.657 -22.512   3.401  1.00  0.00     0.002 A 
HETATM   19  C   UNL     1      44.261 -21.932   2.200  1.00  0.00     0.001 A 
HETATM   20  C   UNL     1      43.987 -20.564   2.143  1.00  0.00     0.009 A 
ENDBRANCH  13  14
ENDBRANCH  12  13
ENDBRANCH   7  12
BRANCH   9  21
HETATM   21  C   UNL     1      40.468 -13.973  -1.138  1.00  0.00    -0.026 A 
HETATM   22  C   UNL     1      41.323 -12.858  -1.169  1.00  0.00     0.033 A 
HETATM   23  C   UNL     1      41.702 -12.292  -2.387  1.00  0.00     0.034 A 
HETATM   24 CL   UNL     1      42.752 -10.929  -2.407  1.00  0.00    -0.084 Cl
HETATM   25  C   UNL     1      41.243 -12.826  -3.588  1.00  0.00     0.024 A 
HETATM   26  C   UNL     1      40.401 -13.937  -3.574  1.00  0.00     0.002 A 
HETATM   27  C   UNL     1      40.018 -14.509  -2.359  1.00  0.00     0.010 A 
ENDBRANCH   9  21
BRANCH  10  28
HETATM   28  C   UNL     1      38.048 -13.207   0.658  1.00  0.00     0.293 C 
HETATM   29  O   UNL     1      37.086 -13.960   0.730  1.00  0.00    -0.259 OA
BRANCH  28  30
HETATM   30  O   UNL     1      38.050 -11.973   0.104  1.00  0.00    -0.323 OA
HETATM   31  C   UNL     1      37.365 -11.897  -1.149  1.00  0.00     0.213 C 
ENDBRANCH  28  30
ENDBRANCH  10  28
TORSDOF 6
ENDMDL
MODEL 7
REMARK VINA RESULT:      -7.9      4.188      8.308
REMARK  6 active torsions:
REMARK  status: ('A' for Active; 'I' for Inactive)
REMARK    1  A    between atoms: C_7  and  S_8 
REMARK    2  A    between atoms: S_8  and  C_9 
REMARK    3  A    between atoms: C_9  and  C_10 
REMARK    4  A    between atoms: C_18  and  C_19 
REMARK    5  A    between atoms: C_26  and  C_27 
REMARK    6  A    between atoms: C_27  and  O_28 
ROOT
HETATM    1  C   UNL     1      40.764 -17.061   6.465  1.00  0.00     0.070 C 
HETATM    2  C   UNL     1      41.411 -17.283   5.121  1.00  0.00     0.037 C 
HETATM    3  N   UNL     1      40.608 -17.016   4.015  1.00  0.00    -0.192 N 
HETATM    4  C   UNL     1      41.099 -16.901   2.766  1.00  0.00     0.726 A 
HETATM    5  N   UNL     1      42.393 -17.264   2.517  1.00  0.00    -0.082 N 
HETATM    6  N   UNL     1      42.747 -16.984   1.246  1.00  0.00    -0.128 NA
HETATM    7  C   UNL     1      41.599 -16.477   0.774  1.00  0.00     0.226 A 
HETATM    8  N   UNL     1      40.563 -16.427   1.674  1.00  0.00    -0.035 NA
HETATM    9  C   UNL     1      43.304 -17.792   3.540  1.00  0.00     0.203 C 
HETATM   10  C   UNL     1      42.705 -17.650   4.937  1.00  0.00     0.070 C 
HETATM   11  H   UNL     1      39.676 -16.646   4.193  1.00  0.00     0.184 HD
ENDROOT
BRANCH   7  12
HETATM   12  S   UNL     1      41.417 -15.849  -0.840  1.00  0.00    -0.083 SA
BRANCH  12  13
HETATM   13  C   UNL     1      40.709 -14.212  -0.514  1.00  0.00     0.123 C 
BRANCH  13  14
HETATM   14  C   UNL     1      41.307 -13.174  -1.437  1.00  0.00    -0.027 A 
HETATM   15  C   UNL     1      40.942 -13.050  -2.788  1.00  0.00     0.041 A 
HETATM   16 CL   UNL     1      39.738 -14.058  -3.511  1.00  0.00    -0.084 Cl
HETATM   17  C   UNL     1      41.556 -12.095  -3.606  1.00  0.00     0.024 A 
HETATM   18  C   UNL     1      42.546 -11.259  -3.093  1.00  0.00     0.002 A 
HETATM   19  C   UNL     1      42.926 -11.374  -1.759  1.00  0.00     0.001 A 
HETATM   20  C   UNL     1      42.313 -12.323  -0.939  1.00  0.00     0.009 A 
ENDBRANCH  13  14
ENDBRANCH  12  13
ENDBRANCH   7  12
BRANCH   9  21
HETATM   21  C   UNL     1      43.672 -19.241   3.223  1.00  0.00    -0.026 A 
HETATM   22  C   UNL     1      44.331 -20.020   4.189  1.00  0.00     0.033 A 
HETATM   23  C   UNL     1      44.650 -21.353   3.924  1.00  0.00     0.034 A 
HETATM   24 CL   UNL     1      45.455 -22.294   5.120  1.00  0.00    -0.084 Cl
HETATM   25  C   UNL     1      44.314 -21.932   2.703  1.00  0.00     0.024 A 
HETATM   26  C   UNL     1      43.653 -21.174   1.738  1.00  0.00     0.002 A 
HETATM   27  C   UNL     1      43.330 -19.840   1.996  1.00  0.00     0.010 A 
ENDBRANCH   9  21
BRANCH  10  28
HETATM   28  C   UNL     1      43.685 -17.881   6.019  1.00  0.00     0.293 C 
HETATM   29  O   UNL     1      43.582 -18.805   6.813  1.00  0.00    -0.259 OA
BRANCH  28  30
HETATM   30  O   UNL     1      44.637 -16.918   6.040  1.00  0.00    -0.323 OA
HETATM   31  C   UNL     1      44.321 -15.807   6.882  1.00  0.00     0.213 C 
ENDBRANCH  28  30
ENDBRANCH  10  28
TORSDOF 6
ENDMDL
MODEL 8
REMARK VINA RESULT:      -7.8      2.786      4.922
REMARK  6 active torsions:
REMARK  status: ('A' for Active; 'I' for Inactive)
REMARK    1  A    between atoms: C_7  and  S_8 
REMARK    2  A    between atoms: S_8  and  C_9 
REMARK    3  A    between atoms: C_9  and  C_10 
REMARK    4  A    between atoms: C_18  and  C_19 
REMARK    5  A    between atoms: C_26  and  C_27 
REMARK    6  A    between atoms: C_27  and  O_28 
ROOT
HETATM    1  C   UNL     1      38.341 -10.933   3.734  1.00  0.00     0.070 C 
HETATM    2  C   UNL     1      39.026 -12.147   3.157  1.00  0.00     0.037 C 
HETATM    3  N   UNL     1      39.891 -12.816   4.020  1.00  0.00    -0.192 N 
HETATM    4  C   UNL     1      40.368 -14.050   3.764  1.00  0.00     0.726 A 
HETATM    5  N   UNL     1      40.180 -14.599   2.527  1.00  0.00    -0.082 N 
HETATM    6  N   UNL     1      40.625 -15.872   2.482  1.00  0.00    -0.128 NA
HETATM    7  C   UNL     1      41.097 -16.016   3.728  1.00  0.00     0.226 A 
HETATM    8  N   UNL     1      40.971 -14.912   4.536  1.00  0.00    -0.035 NA
HETATM    9  C   UNL     1      39.488 -13.917   1.427  1.00  0.00     0.203 C 
HETATM   10  C   UNL     1      38.801 -12.643   1.914  1.00  0.00     0.070 C 
HETATM   11  H   UNL     1      39.956 -12.472   4.976  1.00  0.00     0.184 HD
ENDROOT
BRANCH   7  12
HETATM   12  S   UNL     1      41.765 -17.503   4.338  1.00  0.00    -0.083 SA
BRANCH  12  13
HETATM   13  C   UNL     1      43.276 -17.655   3.348  1.00  0.00     0.123 C 
BRANCH  13  14
HETATM   14  C   UNL     1      43.662 -19.107   3.175  1.00  0.00    -0.027 A 
HETATM   15  C   UNL     1      44.431 -19.811   4.116  1.00  0.00     0.041 A 
HETATM   16 CL   UNL     1      44.980 -19.084   5.585  1.00  0.00    -0.084 Cl
HETATM   17  C   UNL     1      44.791 -21.145   3.887  1.00  0.00     0.024 A 
HETATM   18  C   UNL     1      44.396 -21.789   2.715  1.00  0.00     0.002 A 
HETATM   19  C   UNL     1      43.640 -21.104   1.769  1.00  0.00     0.001 A 
HETATM   20  C   UNL     1      43.277 -19.775   1.996  1.00  0.00     0.009 A 
ENDBRANCH  13  14
ENDBRANCH  12  13
ENDBRANCH   7  12
BRANCH   9  21
HETATM   21  C   UNL     1      40.461 -13.637   0.282  1.00  0.00    -0.026 A 
HETATM   22  C   UNL     1      40.385 -14.396  -0.899  1.00  0.00     0.033 A 
HETATM   23  C   UNL     1      41.249 -14.134  -1.963  1.00  0.00     0.034 A 
HETATM   24 CL   UNL     1      41.140 -15.070  -3.403  1.00  0.00    -0.084 Cl
HETATM   25  C   UNL     1      42.195 -13.115  -1.873  1.00  0.00     0.024 A 
HETATM   26  C   UNL     1      42.277 -12.349  -0.711  1.00  0.00     0.002 A 
HETATM   27  C   UNL     1      41.415 -12.605   0.358  1.00  0.00     0.010 A 
ENDBRANCH   9  21
BRANCH  10  28
HETATM   28  C   UNL     1      37.848 -12.082   0.933  1.00  0.00     0.293 C 
HETATM   29  O   UNL     1      36.788 -12.628   0.661  1.00  0.00    -0.259 OA
BRANCH  28  30
HETATM   30  O   UNL     1      38.334 -10.959   0.356  1.00  0.00    -0.323 OA
HETATM   31  C   UNL     1      37.891 -10.758  -0.988  1.00  0.00     0.213 C 
ENDBRANCH  28  30
ENDBRANCH  10  28
TORSDOF 6
ENDMDL
MODEL 9
REMARK VINA RESULT:      -7.7      3.504      5.861
REMARK  6 active torsions:
REMARK  status: ('A' for Active; 'I' for Inactive)
REMARK    1  A    between atoms: C_7  and  S_8 
REMARK    2  A    between atoms: S_8  and  C_9 
REMARK    3  A    between atoms: C_9  and  C_10 
REMARK    4  A    between atoms: C_18  and  C_19 
REMARK    5  A    between atoms: C_26  and  C_27 
REMARK    6  A    between atoms: C_27  and  O_28 
ROOT
HETATM    1  C   UNL     1      41.898 -10.301   0.435  1.00  0.00     0.070 C 
HETATM    2  C   UNL     1      41.389 -11.720   0.459  1.00  0.00     0.037 C 
HETATM    3  N   UNL     1      42.208 -12.642   1.106  1.00  0.00    -0.192 N 
HETATM    4  C   UNL     1      41.788 -13.875   1.452  1.00  0.00     0.726 A 
HETATM    5  N   UNL     1      40.593 -14.336   0.976  1.00  0.00    -0.082 N 
HETATM    6  N   UNL     1      40.283 -15.537   1.506  1.00  0.00    -0.128 NA
HETATM    7  C   UNL     1      41.358 -15.754   2.277  1.00  0.00     0.226 A 
HETATM    8  N   UNL     1      42.309 -14.763   2.254  1.00  0.00    -0.035 NA
HETATM    9  C   UNL     1      39.718 -13.566   0.084  1.00  0.00     0.203 C 
HETATM   10  C   UNL     1      40.190 -12.119  -0.038  1.00  0.00     0.070 C 
HETATM   11  H   UNL     1      43.050 -12.286   1.553  1.00  0.00     0.184 HD
ENDROOT
BRANCH   7  12
HETATM   12  S   UNL     1      41.540 -17.149   3.303  1.00  0.00    -0.083 SA
BRANCH  12  13
HETATM   13  C   UNL     1      43.340 -17.367   3.304  1.00  0.00     0.123 C 
BRANCH  13  14
HETATM   14  C   UNL     1      43.704 -18.829   3.175  1.00  0.00    -0.027 A 
HETATM   15  C   UNL     1      44.470 -19.514   4.133  1.00  0.00     0.041 A 
HETATM   16 CL   UNL     1      45.038 -18.748   5.574  1.00  0.00    -0.084 Cl
HETATM   17  C   UNL     1      44.809 -20.858   3.944  1.00  0.00     0.024 A 
HETATM   18  C   UNL     1      44.398 -21.534   2.796  1.00  0.00     0.002 A 
HETATM   19  C   UNL     1      43.646 -20.869   1.833  1.00  0.00     0.001 A 
HETATM   20  C   UNL     1      43.302 -19.529   2.020  1.00  0.00     0.009 A 
ENDBRANCH  13  14
ENDBRANCH  12  13
ENDBRANCH   7  12
BRANCH   9  21
HETATM   21  C   UNL     1      39.622 -14.250  -1.281  1.00  0.00    -0.026 A 
HETATM   22  C   UNL     1      38.404 -14.236  -1.982  1.00  0.00     0.033 A 
HETATM   23  C   UNL     1      38.307 -14.832  -3.240  1.00  0.00     0.034 A 
HETATM   24 CL   UNL     1      36.809 -14.803  -4.088  1.00  0.00    -0.084 Cl
HETATM   25  C   UNL     1      39.415 -15.444  -3.821  1.00  0.00     0.024 A 
HETATM   26  C   UNL     1      40.632 -15.459  -3.141  1.00  0.00     0.002 A 
HETATM   27  C   UNL     1      40.736 -14.863  -1.882  1.00  0.00     0.010 A 
ENDBRANCH   9  21
BRANCH  10  28
HETATM   28  C   UNL     1      39.192 -11.231  -0.670  1.00  0.00     0.293 C 
HETATM   29  O   UNL     1      39.396 -10.669  -1.737  1.00  0.00    -0.259 OA
BRANCH  28  30
HETATM   30  O   UNL     1      38.094 -11.085   0.107  1.00  0.00    -0.323 OA
HETATM   31  C   UNL     1      38.190 -10.018   1.053  1.00  0.00     0.213 C 
ENDBRANCH  28  30
ENDBRANCH  10  28
TORSDOF 6
ENDMDL
MODEL 10
REMARK VINA RESULT:      -7.5      4.089      8.264
REMARK  6 active torsions:
REMARK  status: ('A' for Active; 'I' for Inactive)
REMARK    1  A    between atoms: C_7  and  S_8 
REMARK    2  A    between atoms: S_8  and  C_9 
REMARK    3  A    between atoms: C_9  and  C_10 
REMARK    4  A    between atoms: C_18  and  C_19 
REMARK    5  A    between atoms: C_26  and  C_27 
REMARK    6  A    between atoms: C_27  and  O_28 
ROOT
HETATM    1  C   UNL     1      40.428 -17.057   6.365  1.00  0.00     0.070 C 
HETATM    2  C   UNL     1      41.207 -17.200   5.082  1.00  0.00     0.037 C 
HETATM    3  N   UNL     1      40.540 -16.803   3.925  1.00  0.00    -0.192 N 
HETATM    4  C   UNL     1      41.169 -16.611   2.750  1.00  0.00     0.726 A 
HETATM    5  N   UNL     1      42.467 -17.016   2.608  1.00  0.00    -0.082 N 
HETATM    6  N   UNL     1      42.968 -16.651   1.409  1.00  0.00    -0.128 NA
HETATM    7  C   UNL     1      41.899 -16.050   0.865  1.00  0.00     0.226 A 
HETATM    8  N   UNL     1      40.775 -16.023   1.654  1.00  0.00    -0.035 NA
HETATM    9  C   UNL     1      43.238 -17.671   3.670  1.00  0.00     0.203 C 
HETATM   10  C   UNL     1      42.498 -17.615   5.004  1.00  0.00     0.070 C 
HETATM   11  H   UNL     1      39.611 -16.403   4.036  1.00  0.00     0.184 HD
ENDROOT
BRANCH   7  12
HETATM   12  S   UNL     1      41.919 -15.284  -0.697  1.00  0.00    -0.083 SA
BRANCH  12  13
HETATM   13  C   UNL     1      40.365 -14.351  -0.664  1.00  0.00     0.123 C 
BRANCH  13  14
HETATM   14  C   UNL     1      39.543 -14.631  -1.902  1.00  0.00    -0.027 A 
HETATM   15  C   UNL     1      38.303 -14.019  -2.151  1.00  0.00     0.041 A 
HETATM   16 CL   UNL     1      37.619 -12.854  -1.073  1.00  0.00    -0.084 Cl
HETATM   17  C   UNL     1      37.567 -14.343  -3.296  1.00  0.00     0.024 A 
HETATM   18  C   UNL     1      38.051 -15.287  -4.202  1.00  0.00     0.002 A 
HETATM   19  C   UNL     1      39.273 -15.908  -3.966  1.00  0.00     0.001 A 
HETATM   20  C   UNL     1      40.012 -15.584  -2.826  1.00  0.00     0.009 A 
ENDBRANCH  13  14
ENDBRANCH  12  13
ENDBRANCH   7  12
BRANCH   9  21
HETATM   21  C   UNL     1      43.579 -19.106   3.269  1.00  0.00    -0.026 A 
HETATM   22  C   UNL     1      44.319 -19.918   4.145  1.00  0.00     0.033 A 
HETATM   23  C   UNL     1      44.615 -21.239   3.804  1.00  0.00     0.034 A 
HETATM   24 CL   UNL     1      45.519 -22.221   4.890  1.00  0.00    -0.084 Cl
HETATM   25  C   UNL     1      44.177 -21.773   2.594  1.00  0.00     0.024 A 
HETATM   26  C   UNL     1      43.435 -20.982   1.718  1.00  0.00     0.002 A 
HETATM   27  C   UNL     1      43.135 -19.660   2.053  1.00  0.00     0.010 A 
ENDBRANCH   9  21
BRANCH  10  28
HETATM   28  C   UNL     1      43.344 -17.982   6.159  1.00  0.00     0.293 C 
HETATM   29  O   UNL     1      43.024 -18.850   6.959  1.00  0.00    -0.259 OA
BRANCH  28  30
HETATM   30  O   UNL     1      44.448 -17.202   6.233  1.00  0.00    -0.323 OA
HETATM   31  C   UNL     1      45.608 -17.881   6.718  1.00  0.00     0.213 C 
ENDBRANCH  28  30
ENDBRANCH  10  28
TORSDOF 6
ENDMDL
