MODEL 1
REMARK VINA RESULT:      -9.3      0.000      0.000
REMARK  9 active torsions:
REMARK  status: ('A' for Active; 'I' for Inactive)
REMARK    1  A    between atoms: C_2  and  O_3 
REMARK    2  A    between atoms: O_3  and  C_4 
REMARK    3  A    between atoms: C_6  and  C_7 
REMARK       I    between atoms: C_7  and  N_8 
REMARK    4  A    between atoms: N_8  and  C_9 
REMARK    5  A    between atoms: C_9  and  N_10 
REMARK    6  A    between atoms: N_10  and  C_11 
REMARK    7  A    between atoms: C_14  and  N_15 
REMARK    8  A    between atoms: N_18  and  C_20 
REMARK    9  A    between atoms: C_20  and  C_21 
ROOT
HETATM    1  C   UNL     1      40.577 -11.647   5.948  1.00  0.00     0.034 A 
HETATM    2  C   UNL     1      39.398 -12.375   5.788  1.00  0.00     0.032 A 
HETATM    3  C   UNL     1      39.430 -13.715   5.377  1.00  0.00     0.031 A 
HETATM    4  C   UNL     1      40.631 -14.395   5.130  1.00  0.00     0.030 A 
HETATM    5  C   UNL     1      41.805 -13.650   5.333  1.00  0.00     0.031 A 
HETATM    6  C   UNL     1      41.784 -12.299   5.731  1.00  0.00     0.032 A 
ENDROOT
BRANCH   1   7
HETATM    7  N   UNL     1      40.442 -10.261   6.199  1.00  0.00    -0.333 N 
HETATM    8  H   UNL     1      41.139  -9.702   5.718  1.00  0.00     0.168 HD
BRANCH   7   9
HETATM    9  C   UNL     1      39.982  -9.656   7.315  1.00  0.00     0.179 C 
HETATM   10  S   UNL     1      38.756  -8.523   7.166  1.00  0.00    -0.040 SA
BRANCH   9  11
HETATM   11  N   UNL     1      40.408  -9.963   8.568  1.00  0.00    -0.299 N 
HETATM   12  C   UNL     1      41.317  -9.215   9.310  1.00  0.00     0.257 C 
HETATM   13  O   UNL     1      41.258  -7.997   9.455  1.00  0.00    -0.267 OA
HETATM   14  H   UNL     1      40.514 -10.962   8.625  1.00  0.00     0.171 HD
BRANCH  12  15
HETATM   15  C   UNL     1      42.382  -9.979  10.054  1.00  0.00     0.035 A 
HETATM   16  C   UNL     1      43.046 -11.104   9.545  1.00  0.00     0.053 A 
HETATM   17  C   UNL     1      44.035 -11.756  10.292  1.00  0.00     0.070 A 
HETATM   18  C   UNL     1      44.406 -11.264  11.539  1.00  0.00     0.037 A 
HETATM   19  C   UNL     1      43.761 -10.141  12.057  1.00  0.00     0.004 A 
HETATM   20  C   UNL     1      42.753  -9.508  11.324  1.00  0.00     0.017 A 
BRANCH  17  21
HETATM   21  O   UNL     1      44.621 -12.824   9.670  1.00  0.00    -0.347 OA
BRANCH  21  22
HETATM   22  C   UNL     1      44.925 -12.676   8.276  1.00  0.00     0.120 C 
HETATM   23  C   UNL     1      44.680 -14.004   7.569  1.00  0.00     0.040 C 
HETATM   24  C   UNL     1      46.400 -12.292   8.184  1.00  0.00     0.040 C 
ENDBRANCH  21  22
ENDBRANCH  17  21
ENDBRANCH  12  15
ENDBRANCH   9  11
ENDBRANCH   7   9
ENDBRANCH   1   7
BRANCH   4  25
HETATM   25  N   UNL     1      40.630 -15.700   4.647  1.00  0.00    -0.378 N 
HETATM   26  C   UNL     1      41.157 -16.797   5.485  1.00  0.00     0.150 C 
HETATM   27  C   UNL     1      42.585 -17.175   5.040  1.00  0.00     0.255 C 
HETATM   28  N   UNL     1      42.612 -17.501   3.545  1.00  0.00    -0.064 N 
HETATM   29  H   UNL     1      41.974 -18.296   3.396  1.00  0.00     0.280 HD
HETATM   30  C   UNL     1      42.054 -16.338   2.723  1.00  0.00     0.255 C 
HETATM   31  C   UNL     1      40.631 -15.991   3.204  1.00  0.00     0.150 C 
BRANCH  28  32
HETATM   32  C   UNL     1      43.968 -17.949   3.064  1.00  0.00     0.276 C 
BRANCH  32  33
HETATM   33  C   UNL     1      44.123 -19.440   2.988  1.00  0.00     0.006 A 
HETATM   34  C   UNL     1      44.712 -20.137   4.048  1.00  0.00     0.124 A 
HETATM   35  F   UNL     1      45.187 -19.443   5.093  1.00  0.00    -0.206 F 
HETATM   36  C   UNL     1      44.851 -21.520   4.030  1.00  0.00     0.043 A 
HETATM   37  C   UNL     1      44.385 -22.236   2.931  1.00  0.00     0.003 A 
HETATM   38  C   UNL     1      43.786 -21.563   1.864  1.00  0.00     0.001 A 
HETATM   39  C   UNL     1      43.651 -20.172   1.890  1.00  0.00     0.012 A 
ENDBRANCH  32  33
ENDBRANCH  28  32
ENDBRANCH   4  25
TORSDOF 9
ENDMDL
MODEL 2
REMARK VINA RESULT:      -8.9      2.171      3.052
REMARK  9 active torsions:
REMARK  status: ('A' for Active; 'I' for Inactive)
REMARK    1  A    between atoms: C_2  and  O_3 
REMARK    2  A    between atoms: O_3  and  C_4 
REMARK    3  A    between atoms: C_6  and  C_7 
REMARK       I    between atoms: C_7  and  N_8 
REMARK    4  A    between atoms: N_8  and  C_9 
REMARK    5  A    between atoms: C_9  and  N_10 
REMARK    6  A    between atoms: N_10  and  C_11 
REMARK    7  A    between atoms: C_14  and  N_15 
REMARK    8  A    between atoms: N_18  and  C_20 
REMARK    9  A    between atoms: C_20  and  C_21 
ROOT
HETATM    1  C   UNL     1      39.633 -12.141   6.762  1.00  0.00     0.034 A 
HETATM    2  C   UNL     1      39.945 -13.433   6.340  1.00  0.00     0.032 A 
HETATM    3  C   UNL     1      40.158 -13.715   4.983  1.00  0.00     0.031 A 
HETATM    4  C   UNL     1      40.095 -12.724   3.993  1.00  0.00     0.030 A 
HETATM    5  C   UNL     1      39.814 -11.425   4.448  1.00  0.00     0.031 A 
HETATM    6  C   UNL     1      39.582 -11.134   5.807  1.00  0.00     0.032 A 
ENDROOT
BRANCH   1   7
HETATM    7  N   UNL     1      39.268 -11.984   8.120  1.00  0.00    -0.333 N 
HETATM    8  H   UNL     1      38.321 -12.295   8.314  1.00  0.00     0.168 HD
BRANCH   7   9
HETATM    9  C   UNL     1      39.686 -11.043   8.994  1.00  0.00     0.179 C 
HETATM   10  S   UNL     1      38.579  -9.913   9.546  1.00  0.00    -0.040 SA
BRANCH   9  11
HETATM   11  N   UNL     1      40.942 -11.000   9.510  1.00  0.00    -0.299 N 
HETATM   12  C   UNL     1      42.033 -10.377   8.911  1.00  0.00     0.257 C 
HETATM   13  O   UNL     1      42.012  -9.241   8.444  1.00  0.00    -0.267 OA
HETATM   14  H   UNL     1      41.131 -11.888   9.946  1.00  0.00     0.171 HD
BRANCH  12  15
HETATM   15  C   UNL     1      43.341 -11.125   8.929  1.00  0.00     0.035 A 
HETATM   16  C   UNL     1      43.667 -12.164   8.045  1.00  0.00     0.053 A 
HETATM   17  C   UNL     1      44.909 -12.806   8.116  1.00  0.00     0.070 A 
HETATM   18  C   UNL     1      45.859 -12.388   9.042  1.00  0.00     0.037 A 
HETATM   19  C   UNL     1      45.555 -11.351   9.924  1.00  0.00     0.004 A 
HETATM   20  C   UNL     1      44.303 -10.729   9.872  1.00  0.00     0.017 A 
BRANCH  17  21
HETATM   21  O   UNL     1      45.111 -13.784   7.182  1.00  0.00    -0.347 OA
BRANCH  21  22
HETATM   22  C   UNL     1      43.945 -14.463   6.692  1.00  0.00     0.120 C 
HETATM   23  C   UNL     1      44.079 -15.954   6.980  1.00  0.00     0.040 C 
HETATM   24  C   UNL     1      43.892 -14.218   5.186  1.00  0.00     0.040 C 
ENDBRANCH  21  22
ENDBRANCH  17  21
ENDBRANCH  12  15
ENDBRANCH   9  11
ENDBRANCH   7   9
ENDBRANCH   1   7
BRANCH   4  25
HETATM   25  N   UNL     1      40.233 -13.047   2.647  1.00  0.00    -0.378 N 
HETATM   26  C   UNL     1      39.150 -13.768   1.947  1.00  0.00     0.150 C 
HETATM   27  C   UNL     1      39.497 -15.266   1.817  1.00  0.00     0.255 C 
HETATM   28  N   UNL     1      40.862 -15.443   1.147  1.00  0.00    -0.064 N 
HETATM   29  H   UNL     1      40.799 -15.013   0.212  1.00  0.00     0.280 HD
HETATM   30  C   UNL     1      41.946 -14.677   1.905  1.00  0.00     0.255 C 
HETATM   31  C   UNL     1      41.556 -13.189   2.015  1.00  0.00     0.150 C 
BRANCH  28  32
HETATM   32  C   UNL     1      41.226 -16.889   0.925  1.00  0.00     0.276 C 
BRANCH  32  33
HETATM   33  C   UNL     1      42.029 -17.491   2.042  1.00  0.00     0.006 A 
HETATM   34  C   UNL     1      43.308 -17.997   1.789  1.00  0.00     0.124 A 
HETATM   35  F   UNL     1      43.769 -17.991   0.529  1.00  0.00    -0.206 F 
HETATM   36  C   UNL     1      44.096 -18.538   2.798  1.00  0.00     0.043 A 
HETATM   37  C   UNL     1      43.604 -18.572   4.100  1.00  0.00     0.003 A 
HETATM   38  C   UNL     1      42.334 -18.065   4.379  1.00  0.00     0.001 A 
HETATM   39  C   UNL     1      41.548 -17.523   3.357  1.00  0.00     0.012 A 
ENDBRANCH  32  33
ENDBRANCH  28  32
ENDBRANCH   4  25
TORSDOF 9
ENDMDL
MODEL 3
REMARK VINA RESULT:      -8.8      3.743      5.986
REMARK  9 active torsions:
REMARK  status: ('A' for Active; 'I' for Inactive)
REMARK    1  A    between atoms: C_2  and  O_3 
REMARK    2  A    between atoms: O_3  and  C_4 
REMARK    3  A    between atoms: C_6  and  C_7 
REMARK       I    between atoms: C_7  and  N_8 
REMARK    4  A    between atoms: N_8  and  C_9 
REMARK    5  A    between atoms: C_9  and  N_10 
REMARK    6  A    between atoms: N_10  and  C_11 
REMARK    7  A    between atoms: C_14  and  N_15 
REMARK    8  A    between atoms: N_18  and  C_20 
REMARK    9  A    between atoms: C_20  and  C_21 
ROOT
HETATM    1  C   UNL     1      41.289 -12.456   5.514  1.00  0.00     0.034 A 
HETATM    2  C   UNL     1      42.513 -13.123   5.503  1.00  0.00     0.032 A 
HETATM    3  C   UNL     1      42.576 -14.514   5.674  1.00  0.00     0.031 A 
HETATM    4  C   UNL     1      41.428 -15.302   5.839  1.00  0.00     0.030 A 
HETATM    5  C   UNL     1      40.206 -14.609   5.812  1.00  0.00     0.031 A 
HETATM    6  C   UNL     1      40.132 -13.211   5.656  1.00  0.00     0.032 A 
ENDROOT
BRANCH   1   7
HETATM    7  N   UNL     1      41.334 -11.042   5.506  1.00  0.00    -0.333 N 
HETATM    8  H   UNL     1      41.131 -10.634   6.414  1.00  0.00     0.168 HD
BRANCH   7   9
HETATM    9  C   UNL     1      41.036 -10.203   4.491  1.00  0.00     0.179 C 
HETATM   10  S   UNL     1      40.515  -8.653   4.857  1.00  0.00    -0.040 SA
BRANCH   9  11
HETATM   11  N   UNL     1      41.201 -10.519   3.180  1.00  0.00    -0.299 N 
HETATM   12  C   UNL     1      40.253 -11.156   2.384  1.00  0.00     0.257 C 
HETATM   13  O   UNL     1      39.070 -10.834   2.324  1.00  0.00    -0.267 OA
HETATM   14  H   UNL     1      42.154 -10.817   3.049  1.00  0.00     0.171 HD
BRANCH  12  15
HETATM   15  C   UNL     1      40.751 -12.251   1.475  1.00  0.00     0.035 A 
HETATM   16  C   UNL     1      41.340 -13.442   1.924  1.00  0.00     0.053 A 
HETATM   17  C   UNL     1      41.767 -14.419   1.018  1.00  0.00     0.070 A 
HETATM   18  C   UNL     1      41.571 -14.239  -0.347  1.00  0.00     0.037 A 
HETATM   19  C   UNL     1      40.981 -13.064  -0.811  1.00  0.00     0.004 A 
HETATM   20  C   UNL     1      40.579 -12.075   0.093  1.00  0.00     0.017 A 
BRANCH  17  21
HETATM   21  O   UNL     1      42.301 -15.543   1.586  1.00  0.00    -0.347 OA
BRANCH  21  22
HETATM   22  C   UNL     1      42.318 -16.731   0.782  1.00  0.00     0.120 C 
HETATM   23  C   UNL     1      41.162 -17.633   1.201  1.00  0.00     0.040 C 
HETATM   24  C   UNL     1      43.652 -17.425   1.046  1.00  0.00     0.040 C 
ENDBRANCH  21  22
ENDBRANCH  17  21
ENDBRANCH  12  15
ENDBRANCH   9  11
ENDBRANCH   7   9
ENDBRANCH   1   7
BRANCH   4  25
HETATM   25  N   UNL     1      41.525 -16.668   6.085  1.00  0.00    -0.378 N 
HETATM   26  C   UNL     1      42.281 -17.152   7.259  1.00  0.00     0.150 C 
HETATM   27  C   UNL     1      43.679 -17.647   6.830  1.00  0.00     0.255 C 
HETATM   28  N   UNL     1      43.560 -18.696   5.722  1.00  0.00    -0.064 N 
HETATM   29  H   UNL     1      43.010 -19.480   6.104  1.00  0.00     0.280 HD
HETATM   30  C   UNL     1      42.768 -18.148   4.535  1.00  0.00     0.255 C 
HETATM   31  C   UNL     1      41.383 -17.661   5.008  1.00  0.00     0.150 C 
BRANCH  28  32
HETATM   32  C   UNL     1      44.890 -19.272   5.311  1.00  0.00     0.276 C 
BRANCH  32  33
HETATM   33  C   UNL     1      44.785 -20.402   4.328  1.00  0.00     0.006 A 
HETATM   34  C   UNL     1      44.709 -21.722   4.786  1.00  0.00     0.124 A 
HETATM   35  F   UNL     1      44.795 -21.956   6.105  1.00  0.00    -0.206 F 
HETATM   36  C   UNL     1      44.583 -22.795   3.912  1.00  0.00     0.043 A 
HETATM   37  C   UNL     1      44.524 -22.554   2.542  1.00  0.00     0.003 A 
HETATM   38  C   UNL     1      44.590 -21.245   2.062  1.00  0.00     0.001 A 
HETATM   39  C   UNL     1      44.716 -20.171   2.948  1.00  0.00     0.012 A 
ENDBRANCH  32  33
ENDBRANCH  28  32
ENDBRANCH   4  25
TORSDOF 9
ENDMDL
MODEL 4
REMARK VINA RESULT:      -8.7      4.060      6.849
REMARK  9 active torsions:
REMARK  status: ('A' for Active; 'I' for Inactive)
REMARK    1  A    between atoms: C_2  and  O_3 
REMARK    2  A    between atoms: O_3  and  C_4 
REMARK    3  A    between atoms: C_6  and  C_7 
REMARK       I    between atoms: C_7  and  N_8 
REMARK    4  A    between atoms: N_8  and  C_9 
REMARK    5  A    between atoms: C_9  and  N_10 
REMARK    6  A    between atoms: N_10  and  C_11 
REMARK    7  A    between atoms: C_14  and  N_15 
REMARK    8  A    between atoms: N_18  and  C_20 
REMARK    9  A    between atoms: C_20  and  C_21 
ROOT
HETATM    1  C   UNL     1      41.445 -12.512   5.082  1.00  0.00     0.034 A 
HETATM    2  C   UNL     1      40.339 -13.203   5.576  1.00  0.00     0.032 A 
HETATM    3  C   UNL     1      40.440 -14.550   5.953  1.00  0.00     0.031 A 
HETATM    4  C   UNL     1      41.648 -15.260   5.878  1.00  0.00     0.030 A 
HETATM    5  C   UNL     1      42.754 -14.532   5.411  1.00  0.00     0.031 A 
HETATM    6  C   UNL     1      42.659 -13.183   5.015  1.00  0.00     0.032 A 
ENDROOT
BRANCH   1   7
HETATM    7  N   UNL     1      41.210 -11.215   4.570  1.00  0.00    -0.333 N 
HETATM    8  H   UNL     1      41.171 -10.504   5.294  1.00  0.00     0.168 HD
BRANCH   7   9
HETATM    9  C   UNL     1      40.504 -10.866   3.473  1.00  0.00     0.179 C 
HETATM   10  S   UNL     1      39.652  -9.424   3.492  1.00  0.00    -0.040 SA
BRANCH   9  11
HETATM   11  N   UNL     1      40.501 -11.585   2.320  1.00  0.00    -0.299 N 
HETATM   12  C   UNL     1      39.622 -12.623   2.027  1.00  0.00     0.257 C 
HETATM   13  O   UNL     1      38.405 -12.566   2.185  1.00  0.00    -0.267 OA
HETATM   14  H   UNL     1      41.457 -11.729   2.039  1.00  0.00     0.171 HD
BRANCH  12  15
HETATM   15  C   UNL     1      40.210 -13.855   1.388  1.00  0.00     0.035 A 
HETATM   16  C   UNL     1      40.462 -13.986   0.014  1.00  0.00     0.053 A 
HETATM   17  C   UNL     1      41.023 -15.160  -0.505  1.00  0.00     0.070 A 
HETATM   18  C   UNL     1      41.379 -16.200   0.347  1.00  0.00     0.037 A 
HETATM   19  C   UNL     1      41.142 -16.083   1.716  1.00  0.00     0.004 A 
HETATM   20  C   UNL     1      40.556 -14.923   2.231  1.00  0.00     0.017 A 
BRANCH  17  21
HETATM   21  O   UNL     1      41.241 -15.149  -1.855  1.00  0.00    -0.347 OA
BRANCH  21  22
HETATM   22  C   UNL     1      40.116 -14.847  -2.692  1.00  0.00     0.120 C 
HETATM   23  C   UNL     1      39.774 -16.074  -3.529  1.00  0.00     0.040 C 
HETATM   24  C   UNL     1      40.536 -13.690  -3.597  1.00  0.00     0.040 C 
ENDBRANCH  21  22
ENDBRANCH  17  21
ENDBRANCH  12  15
ENDBRANCH   9  11
ENDBRANCH   7   9
ENDBRANCH   1   7
BRANCH   4  25
HETATM   25  N   UNL     1      41.701 -16.616   6.184  1.00  0.00    -0.378 N 
HETATM   26  C   UNL     1      42.524 -17.085   7.318  1.00  0.00     0.150 C 
HETATM   27  C   UNL     1      43.859 -17.667   6.810  1.00  0.00     0.255 C 
HETATM   28  N   UNL     1      43.605 -18.758   5.767  1.00  0.00    -0.064 N 
HETATM   29  H   UNL     1      43.051 -19.495   6.227  1.00  0.00     0.280 HD
HETATM   30  C   UNL     1      42.748 -18.226   4.618  1.00  0.00     0.255 C 
HETATM   31  C   UNL     1      41.429 -17.649   5.171  1.00  0.00     0.150 C 
BRANCH  28  32
HETATM   32  C   UNL     1      44.871 -19.418   5.284  1.00  0.00     0.276 C 
BRANCH  32  33
HETATM   33  C   UNL     1      44.665 -20.356   4.130  1.00  0.00     0.006 A 
HETATM   34  C   UNL     1      44.792 -21.736   4.319  1.00  0.00     0.124 A 
HETATM   35  F   UNL     1      45.160 -22.192   5.527  1.00  0.00    -0.206 F 
HETATM   36  C   UNL     1      44.584 -22.640   3.285  1.00  0.00     0.043 A 
HETATM   37  C   UNL     1      44.232 -22.164   2.025  1.00  0.00     0.003 A 
HETATM   38  C   UNL     1      44.091 -20.792   1.814  1.00  0.00     0.001 A 
HETATM   39  C   UNL     1      44.303 -19.888   2.860  1.00  0.00     0.012 A 
ENDBRANCH  32  33
ENDBRANCH  28  32
ENDBRANCH   4  25
TORSDOF 9
ENDMDL
MODEL 5
REMARK VINA RESULT:      -8.7      3.654      9.984
REMARK  9 active torsions:
REMARK  status: ('A' for Active; 'I' for Inactive)
REMARK    1  A    between atoms: C_2  and  O_3 
REMARK    2  A    between atoms: O_3  and  C_4 
REMARK    3  A    between atoms: C_6  and  C_7 
REMARK       I    between atoms: C_7  and  N_8 
REMARK    4  A    between atoms: N_8  and  C_9 
REMARK    5  A    between atoms: C_9  and  N_10 
REMARK    6  A    between atoms: N_10  and  C_11 
REMARK    7  A    between atoms: C_14  and  N_15 
REMARK    8  A    between atoms: N_18  and  C_20 
REMARK    9  A    between atoms: C_20  and  C_21 
ROOT
HETATM    1  C   UNL     1      39.677 -13.933   4.147  1.00  0.00     0.034 A 
HETATM    2  C   UNL     1      39.923 -14.152   5.502  1.00  0.00     0.032 A 
HETATM    3  C   UNL     1      40.081 -13.076   6.387  1.00  0.00     0.031 A 
HETATM    4  C   UNL     1      39.980 -11.741   5.970  1.00  0.00     0.030 A 
HETATM    5  C   UNL     1      39.697 -11.549   4.608  1.00  0.00     0.031 A 
HETATM    6  C   UNL     1      39.551 -12.622   3.707  1.00  0.00     0.032 A 
ENDROOT
BRANCH   1   7
HETATM    7  N   UNL     1      39.700 -15.069   3.303  1.00  0.00    -0.333 N 
HETATM    8  H   UNL     1      39.000 -15.761   3.551  1.00  0.00     0.168 HD
BRANCH   7   9
HETATM    9  C   UNL     1      40.760 -15.618   2.672  1.00  0.00     0.179 C 
HETATM   10  S   UNL     1      41.528 -14.734   1.474  1.00  0.00    -0.040 SA
BRANCH   9  11
HETATM   11  N   UNL     1      41.288 -16.826   3.001  1.00  0.00    -0.299 N 
HETATM   12  C   UNL     1      41.432 -17.312   4.298  1.00  0.00     0.257 C 
HETATM   13  O   UNL     1      40.547 -17.286   5.149  1.00  0.00    -0.267 OA
HETATM   14  H   UNL     1      42.057 -17.011   2.377  1.00  0.00     0.171 HD
BRANCH  12  15
HETATM   15  C   UNL     1      42.734 -17.993   4.631  1.00  0.00     0.035 A 
HETATM   16  C   UNL     1      43.336 -18.976   3.832  1.00  0.00     0.053 A 
HETATM   17  C   UNL     1      44.556 -19.556   4.202  1.00  0.00     0.070 A 
HETATM   18  C   UNL     1      45.212 -19.129   5.352  1.00  0.00     0.037 A 
HETATM   19  C   UNL     1      44.631 -18.148   6.154  1.00  0.00     0.004 A 
HETATM   20  C   UNL     1      43.399 -17.588   5.800  1.00  0.00     0.017 A 
BRANCH  17  21
HETATM   21  O   UNL     1      45.047 -20.483   3.324  1.00  0.00    -0.347 OA
BRANCH  21  22
HETATM   22  C   UNL     1      44.200 -21.601   3.020  1.00  0.00     0.120 C 
HETATM   23  C   UNL     1      44.665 -22.811   3.822  1.00  0.00     0.040 C 
HETATM   24  C   UNL     1      44.345 -21.871   1.524  1.00  0.00     0.040 C 
ENDBRANCH  21  22
ENDBRANCH  17  21
ENDBRANCH  12  15
ENDBRANCH   9  11
ENDBRANCH   7   9
ENDBRANCH   1   7
BRANCH   4  25
HETATM   25  N   UNL     1      40.220 -10.694   6.854  1.00  0.00    -0.378 N 
HETATM   26  C   UNL     1      41.573 -10.107   6.950  1.00  0.00     0.150 C 
HETATM   27  C   UNL     1      42.308 -10.651   8.193  1.00  0.00     0.255 C 
HETATM   28  N   UNL     1      41.469 -10.425   9.453  1.00  0.00    -0.064 N 
HETATM   29  H   UNL     1      41.326  -9.408   9.545  1.00  0.00     0.280 HD
HETATM   30  C   UNL     1      40.081 -11.046   9.302  1.00  0.00     0.255 C 
HETATM   31  C   UNL     1      39.385 -10.480   8.048  1.00  0.00     0.150 C 
BRANCH  28  32
HETATM   32  C   UNL     1      42.166 -10.870  10.713  1.00  0.00     0.276 C 
BRANCH  32  33
HETATM   33  C   UNL     1      42.313  -9.786  11.741  1.00  0.00     0.006 A 
HETATM   34  C   UNL     1      42.821 -10.089  13.009  1.00  0.00     0.124 A 
HETATM   35  F   UNL     1      43.111 -11.366  13.301  1.00  0.00    -0.206 F 
HETATM   36  C   UNL     1      42.998  -9.112  13.981  1.00  0.00     0.043 A 
HETATM   37  C   UNL     1      42.668  -7.792  13.686  1.00  0.00     0.003 A 
HETATM   38  C   UNL     1      42.167  -7.464  12.426  1.00  0.00     0.001 A 
HETATM   39  C   UNL     1      41.992  -8.453  11.454  1.00  0.00     0.012 A 
ENDBRANCH  32  33
ENDBRANCH  28  32
ENDBRANCH   4  25
TORSDOF 9
ENDMDL
MODEL 6
REMARK VINA RESULT:      -8.7      1.859      2.794
REMARK  9 active torsions:
REMARK  status: ('A' for Active; 'I' for Inactive)
REMARK    1  A    between atoms: C_2  and  O_3 
REMARK    2  A    between atoms: O_3  and  C_4 
REMARK    3  A    between atoms: C_6  and  C_7 
REMARK       I    between atoms: C_7  and  N_8 
REMARK    4  A    between atoms: N_8  and  C_9 
REMARK    5  A    between atoms: C_9  and  N_10 
REMARK    6  A    between atoms: N_10  and  C_11 
REMARK    7  A    between atoms: C_14  and  N_15 
REMARK    8  A    between atoms: N_18  and  C_20 
REMARK    9  A    between atoms: C_20  and  C_21 
ROOT
HETATM    1  C   UNL     1      40.843 -12.167   4.906  1.00  0.00     0.034 A 
HETATM    2  C   UNL     1      39.752 -13.035   4.922  1.00  0.00     0.032 A 
HETATM    3  C   UNL     1      39.916 -14.391   5.241  1.00  0.00     0.031 A 
HETATM    4  C   UNL     1      41.163 -14.936   5.579  1.00  0.00     0.030 A 
HETATM    5  C   UNL     1      42.239 -14.033   5.588  1.00  0.00     0.031 A 
HETATM    6  C   UNL     1      42.088 -12.673   5.255  1.00  0.00     0.032 A 
ENDROOT
BRANCH   1   7
HETATM    7  N   UNL     1      40.612 -10.862   4.410  1.00  0.00    -0.333 N 
HETATM    8  H   UNL     1      41.455 -10.414   4.065  1.00  0.00     0.168 HD
BRANCH   7   9
HETATM    9  C   UNL     1      39.687  -9.966   4.816  1.00  0.00     0.179 C 
HETATM   10  S   UNL     1      38.456  -9.548   3.759  1.00  0.00    -0.040 SA
BRANCH   9  11
HETATM   11  N   UNL     1      39.654  -9.432   6.064  1.00  0.00    -0.299 N 
HETATM   12  C   UNL     1      40.758  -9.278   6.899  1.00  0.00     0.257 C 
HETATM   13  O   UNL     1      41.831  -8.797   6.546  1.00  0.00    -0.267 OA
HETATM   14  H   UNL     1      38.806  -9.738   6.513  1.00  0.00     0.171 HD
BRANCH  12  15
HETATM   15  C   UNL     1      40.573  -9.645   8.349  1.00  0.00     0.035 A 
HETATM   16  C   UNL     1      41.562 -10.245   9.142  1.00  0.00     0.053 A 
HETATM   17  C   UNL     1      41.320 -10.546  10.488  1.00  0.00     0.070 A 
HETATM   18  C   UNL     1      40.102 -10.211  11.070  1.00  0.00     0.037 A 
HETATM   19  C   UNL     1      39.111  -9.608  10.298  1.00  0.00     0.004 A 
HETATM   20  C   UNL     1      39.342  -9.333   8.947  1.00  0.00     0.017 A 
BRANCH  17  21
HETATM   21  O   UNL     1      42.375 -11.106  11.155  1.00  0.00    -0.347 OA
BRANCH  21  22
HETATM   22  C   UNL     1      43.519 -10.269  11.377  1.00  0.00     0.120 C 
HETATM   23  C   UNL     1      44.781 -11.044  11.017  1.00  0.00     0.040 C 
HETATM   24  C   UNL     1      43.523  -9.912  12.862  1.00  0.00     0.040 C 
ENDBRANCH  21  22
ENDBRANCH  17  21
ENDBRANCH  12  15
ENDBRANCH   9  11
ENDBRANCH   7   9
ENDBRANCH   1   7
BRANCH   4  25
HETATM   25  N   UNL     1      41.309 -16.300   5.812  1.00  0.00    -0.378 N 
HETATM   26  C   UNL     1      42.113 -16.768   6.960  1.00  0.00     0.150 C 
HETATM   27  C   UNL     1      43.513 -17.217   6.488  1.00  0.00     0.255 C 
HETATM   28  N   UNL     1      43.394 -18.262   5.377  1.00  0.00    -0.064 N 
HETATM   29  H   UNL     1      42.879 -19.065   5.768  1.00  0.00     0.280 HD
HETATM   30  C   UNL     1      42.552 -17.731   4.217  1.00  0.00     0.255 C 
HETATM   31  C   UNL     1      41.167 -17.290   4.733  1.00  0.00     0.150 C 
BRANCH  28  32
HETATM   32  C   UNL     1      44.729 -18.794   4.923  1.00  0.00     0.276 C 
BRANCH  32  33
HETATM   33  C   UNL     1      44.674 -20.195   4.386  1.00  0.00     0.006 A 
HETATM   34  C   UNL     1      44.564 -20.412   3.008  1.00  0.00     0.124 A 
HETATM   35  F   UNL     1      44.447 -19.351   2.194  1.00  0.00    -0.206 F 
HETATM   36  C   UNL     1      44.537 -21.691   2.467  1.00  0.00     0.043 A 
HETATM   37  C   UNL     1      44.628 -22.791   3.315  1.00  0.00     0.003 A 
HETATM   38  C   UNL     1      44.746 -22.600   4.693  1.00  0.00     0.001 A 
HETATM   39  C   UNL     1      44.772 -21.309   5.229  1.00  0.00     0.012 A 
ENDBRANCH  32  33
ENDBRANCH  28  32
ENDBRANCH   4  25
TORSDOF 9
ENDMDL
MODEL 7
REMARK VINA RESULT:      -8.7      3.848      6.641
REMARK  9 active torsions:
REMARK  status: ('A' for Active; 'I' for Inactive)
REMARK    1  A    between atoms: C_2  and  O_3 
REMARK    2  A    between atoms: O_3  and  C_4 
REMARK    3  A    between atoms: C_6  and  C_7 
REMARK       I    between atoms: C_7  and  N_8 
REMARK    4  A    between atoms: N_8  and  C_9 
REMARK    5  A    between atoms: C_9  and  N_10 
REMARK    6  A    between atoms: N_10  and  C_11 
REMARK    7  A    between atoms: C_14  and  N_15 
REMARK    8  A    between atoms: N_18  and  C_20 
REMARK    9  A    between atoms: C_20  and  C_21 
ROOT
HETATM    1  C   UNL     1      40.898 -12.079   5.418  1.00  0.00     0.034 A 
HETATM    2  C   UNL     1      39.759 -12.882   5.432  1.00  0.00     0.032 A 
HETATM    3  C   UNL     1      39.862 -14.276   5.546  1.00  0.00     0.031 A 
HETATM    4  C   UNL     1      41.098 -14.928   5.674  1.00  0.00     0.030 A 
HETATM    5  C   UNL     1      42.227 -14.093   5.692  1.00  0.00     0.031 A 
HETATM    6  C   UNL     1      42.135 -12.693   5.563  1.00  0.00     0.032 A 
ENDROOT
BRANCH   1   7
HETATM    7  N   UNL     1      40.708 -10.707   5.130  1.00  0.00    -0.333 N 
HETATM    8  H   UNL     1      39.937 -10.296   5.648  1.00  0.00     0.168 HD
BRANCH   7   9
HETATM    9  C   UNL     1      40.948 -10.056   3.971  1.00  0.00     0.179 C 
HETATM   10  S   UNL     1      41.013  -8.382   3.990  1.00  0.00    -0.040 SA
BRANCH   9  11
HETATM   11  N   UNL     1      41.212 -10.684   2.796  1.00  0.00    -0.299 N 
HETATM   12  C   UNL     1      40.253 -11.206   1.933  1.00  0.00     0.257 C 
HETATM   13  O   UNL     1      39.246 -10.604   1.571  1.00  0.00    -0.267 OA
HETATM   14  H   UNL     1      42.040 -11.244   2.921  1.00  0.00     0.171 HD
BRANCH  12  15
HETATM   15  C   UNL     1      40.533 -12.565   1.344  1.00  0.00     0.035 A 
HETATM   16  C   UNL     1      40.051 -12.999   0.101  1.00  0.00     0.053 A 
HETATM   17  C   UNL     1      40.363 -14.274  -0.387  1.00  0.00     0.070 A 
HETATM   18  C   UNL     1      41.199 -15.114   0.341  1.00  0.00     0.037 A 
HETATM   19  C   UNL     1      41.693 -14.695   1.576  1.00  0.00     0.004 A 
HETATM   20  C   UNL     1      41.358 -13.434   2.076  1.00  0.00     0.017 A 
BRANCH  17  21
HETATM   21  O   UNL     1      39.852 -14.563  -1.622  1.00  0.00    -0.347 OA
BRANCH  21  22
HETATM   22  C   UNL     1      40.750 -15.149  -2.575  1.00  0.00     0.120 C 
HETATM   23  C   UNL     1      41.399 -14.041  -3.395  1.00  0.00     0.040 C 
HETATM   24  C   UNL     1      39.910 -16.052  -3.477  1.00  0.00     0.040 C 
ENDBRANCH  21  22
ENDBRANCH  17  21
ENDBRANCH  12  15
ENDBRANCH   9  11
ENDBRANCH   7   9
ENDBRANCH   1   7
BRANCH   4  25
HETATM   25  N   UNL     1      41.175 -16.317   5.705  1.00  0.00    -0.378 N 
HETATM   26  C   UNL     1      41.802 -16.994   6.859  1.00  0.00     0.150 C 
HETATM   27  C   UNL     1      43.241 -17.430   6.510  1.00  0.00     0.255 C 
HETATM   28  N   UNL     1      43.248 -18.285   5.240  1.00  0.00    -0.064 N 
HETATM   29  H   UNL     1      42.664 -19.113   5.428  1.00  0.00     0.280 HD
HETATM   30  C   UNL     1      42.586 -17.542   4.079  1.00  0.00     0.255 C 
HETATM   31  C   UNL     1      41.156 -17.121   4.473  1.00  0.00     0.150 C 
BRANCH  28  32
HETATM   32  C   UNL     1      44.618 -18.803   4.887  1.00  0.00     0.276 C 
BRANCH  32  33
HETATM   33  C   UNL     1      44.616 -20.200   4.337  1.00  0.00     0.006 A 
HETATM   34  C   UNL     1      44.547 -20.408   2.955  1.00  0.00     0.124 A 
HETATM   35  F   UNL     1      44.420 -19.344   2.147  1.00  0.00    -0.206 F 
HETATM   36  C   UNL     1      44.569 -21.682   2.403  1.00  0.00     0.043 A 
HETATM   37  C   UNL     1      44.670 -22.787   3.245  1.00  0.00     0.003 A 
HETATM   38  C   UNL     1      44.748 -22.605   4.626  1.00  0.00     0.001 A 
HETATM   39  C   UNL     1      44.725 -21.319   5.174  1.00  0.00     0.012 A 
ENDBRANCH  32  33
ENDBRANCH  28  32
ENDBRANCH   4  25
TORSDOF 9
ENDMDL
MODEL 8
REMARK VINA RESULT:      -8.5      3.804      9.853
REMARK  9 active torsions:
REMARK  status: ('A' for Active; 'I' for Inactive)
REMARK    1  A    between atoms: C_2  and  O_3 
REMARK    2  A    between atoms: O_3  and  C_4 
REMARK    3  A    between atoms: C_6  and  C_7 
REMARK       I    between atoms: C_7  and  N_8 
REMARK    4  A    between atoms: N_8  and  C_9 
REMARK    5  A    between atoms: C_9  and  N_10 
REMARK    6  A    between atoms: N_10  and  C_11 
REMARK    7  A    between atoms: C_14  and  N_15 
REMARK    8  A    between atoms: N_18  and  C_20 
REMARK    9  A    between atoms: C_20  and  C_21 
ROOT
HETATM    1  C   UNL     1      39.840 -12.875   3.907  1.00  0.00     0.034 A 
HETATM    2  C   UNL     1      40.661 -13.241   4.974  1.00  0.00     0.032 A 
HETATM    3  C   UNL     1      40.776 -12.423   6.107  1.00  0.00     0.031 A 
HETATM    4  C   UNL     1      40.064 -11.222   6.240  1.00  0.00     0.030 A 
HETATM    5  C   UNL     1      39.218 -10.894   5.167  1.00  0.00     0.031 A 
HETATM    6  C   UNL     1      39.107 -11.701   4.018  1.00  0.00     0.032 A 
ENDROOT
BRANCH   1   7
HETATM    7  N   UNL     1      39.917 -13.672   2.741  1.00  0.00    -0.333 N 
HETATM    8  H   UNL     1      39.317 -14.490   2.779  1.00  0.00     0.168 HD
BRANCH   7   9
HETATM    9  C   UNL     1      40.975 -13.853   1.922  1.00  0.00     0.179 C 
HETATM   10  S   UNL     1      41.699 -12.507   1.236  1.00  0.00    -0.040 SA
BRANCH   9  11
HETATM   11  N   UNL     1      41.536 -15.066   1.675  1.00  0.00    -0.299 N 
HETATM   12  C   UNL     1      41.016 -16.289   2.089  1.00  0.00     0.257 C 
HETATM   13  O   UNL     1      39.842 -16.624   1.952  1.00  0.00    -0.267 OA
HETATM   14  H   UNL     1      42.536 -14.968   1.750  1.00  0.00     0.171 HD
BRANCH  12  15
HETATM   15  C   UNL     1      41.991 -17.289   2.654  1.00  0.00     0.035 A 
HETATM   16  C   UNL     1      42.040 -17.666   4.004  1.00  0.00     0.053 A 
HETATM   17  C   UNL     1      42.968 -18.613   4.453  1.00  0.00     0.070 A 
HETATM   18  C   UNL     1      43.830 -19.228   3.551  1.00  0.00     0.037 A 
HETATM   19  C   UNL     1      43.790 -18.871   2.204  1.00  0.00     0.004 A 
HETATM   20  C   UNL     1      42.882 -17.904   1.760  1.00  0.00     0.017 A 
BRANCH  17  21
HETATM   21  O   UNL     1      42.894 -18.910   5.786  1.00  0.00    -0.347 OA
BRANCH  21  22
HETATM   22  C   UNL     1      44.070 -19.466   6.393  1.00  0.00     0.120 C 
HETATM   23  C   UNL     1      43.751 -20.864   6.908  1.00  0.00     0.040 C 
HETATM   24  C   UNL     1      44.443 -18.547   7.555  1.00  0.00     0.040 C 
ENDBRANCH  21  22
ENDBRANCH  17  21
ENDBRANCH  12  15
ENDBRANCH   9  11
ENDBRANCH   7   9
ENDBRANCH   1   7
BRANCH   4  25
HETATM   25  N   UNL     1      40.258 -10.392   7.339  1.00  0.00    -0.378 N 
HETATM   26  C   UNL     1      41.595  -9.821   7.605  1.00  0.00     0.150 C 
HETATM   27  C   UNL     1      42.306 -10.615   8.721  1.00  0.00     0.255 C 
HETATM   28  N   UNL     1      41.428 -10.684   9.972  1.00  0.00    -0.064 N 
HETATM   29  H   UNL     1      41.261  -9.715  10.280  1.00  0.00     0.280 HD
HETATM   30  C   UNL     1      40.057 -11.276   9.645  1.00  0.00     0.255 C 
HETATM   31  C   UNL     1      39.386 -10.457   8.523  1.00  0.00     0.150 C 
BRANCH  28  32
HETATM   32  C   UNL     1      42.098 -11.386  11.125  1.00  0.00     0.276 C 
BRANCH  32  33
HETATM   33  C   UNL     1      42.164 -10.565  12.380  1.00  0.00     0.006 A 
HETATM   34  C   UNL     1      43.359  -9.934  12.743  1.00  0.00     0.124 A 
HETATM   35  F   UNL     1      44.448 -10.129  11.984  1.00  0.00    -0.206 F 
HETATM   36  C   UNL     1      43.455  -9.144  13.881  1.00  0.00     0.043 A 
HETATM   37  C   UNL     1      42.331  -8.967  14.684  1.00  0.00     0.003 A 
HETATM   38  C   UNL     1      41.126  -9.580  14.339  1.00  0.00     0.001 A 
HETATM   39  C   UNL     1      41.037 -10.373  13.191  1.00  0.00     0.012 A 
ENDBRANCH  32  33
ENDBRANCH  28  32
ENDBRANCH   4  25
TORSDOF 9
ENDMDL
MODEL 9
REMARK VINA RESULT:      -8.4      1.522      2.062
REMARK  9 active torsions:
REMARK  status: ('A' for Active; 'I' for Inactive)
REMARK    1  A    between atoms: C_2  and  O_3 
REMARK    2  A    between atoms: O_3  and  C_4 
REMARK    3  A    between atoms: C_6  and  C_7 
REMARK       I    between atoms: C_7  and  N_8 
REMARK    4  A    between atoms: N_8  and  C_9 
REMARK    5  A    between atoms: C_9  and  N_10 
REMARK    6  A    between atoms: N_10  and  C_11 
REMARK    7  A    between atoms: C_14  and  N_15 
REMARK    8  A    between atoms: N_18  and  C_20 
REMARK    9  A    between atoms: C_20  and  C_21 
ROOT
HETATM    1  C   UNL     1      40.759 -11.338   3.914  1.00  0.00     0.034 A 
HETATM    2  C   UNL     1      41.162 -12.022   5.061  1.00  0.00     0.032 A 
HETATM    3  C   UNL     1      41.256 -13.422   5.068  1.00  0.00     0.031 A 
HETATM    4  C   UNL     1      40.977 -14.197   3.934  1.00  0.00     0.030 A 
HETATM    5  C   UNL     1      40.607 -13.482   2.783  1.00  0.00     0.031 A 
HETATM    6  C   UNL     1      40.495 -12.077   2.769  1.00  0.00     0.032 A 
ENDROOT
BRANCH   1   7
HETATM    7  N   UNL     1      40.530  -9.948   4.049  1.00  0.00    -0.333 N 
HETATM    8  H   UNL     1      41.378  -9.397   3.957  1.00  0.00     0.168 HD
BRANCH   7   9
HETATM    9  C   UNL     1      39.593  -9.325   4.795  1.00  0.00     0.179 C 
HETATM   10  S   UNL     1      38.032  -9.217   4.197  1.00  0.00    -0.040 SA
BRANCH   9  11
HETATM   11  N   UNL     1      39.826  -8.837   6.041  1.00  0.00    -0.299 N 
HETATM   12  C   UNL     1      41.084  -8.577   6.578  1.00  0.00     0.257 C 
HETATM   13  O   UNL     1      41.972  -7.960   5.995  1.00  0.00    -0.267 OA
HETATM   14  H   UNL     1      39.161  -9.257   6.670  1.00  0.00     0.171 HD
BRANCH  12  15
HETATM   15  C   UNL     1      41.321  -9.009   8.003  1.00  0.00     0.035 A 
HETATM   16  C   UNL     1      42.137 -10.087   8.374  1.00  0.00     0.053 A 
HETATM   17  C   UNL     1      42.318 -10.421   9.722  1.00  0.00     0.070 A 
HETATM   18  C   UNL     1      41.722  -9.654  10.718  1.00  0.00     0.037 A 
HETATM   19  C   UNL     1      40.913  -8.574  10.366  1.00  0.00     0.004 A 
HETATM   20  C   UNL     1      40.709  -8.258   9.019  1.00  0.00     0.017 A 
BRANCH  17  21
HETATM   21  O   UNL     1      43.157 -11.477   9.950  1.00  0.00    -0.347 OA
BRANCH  21  22
HETATM   22  C   UNL     1      44.472 -11.394   9.381  1.00  0.00     0.120 C 
HETATM   23  C   UNL     1      44.774 -12.689   8.635  1.00  0.00     0.040 C 
HETATM   24  C   UNL     1      45.446 -11.213  10.543  1.00  0.00     0.040 C 
ENDBRANCH  21  22
ENDBRANCH  17  21
ENDBRANCH  12  15
ENDBRANCH   9  11
ENDBRANCH   7   9
ENDBRANCH   1   7
BRANCH   4  25
HETATM   25  N   UNL     1      41.001 -15.587   3.993  1.00  0.00    -0.378 N 
HETATM   26  C   UNL     1      41.788 -16.267   5.042  1.00  0.00     0.150 C 
HETATM   27  C   UNL     1      43.126 -16.776   4.465  1.00  0.00     0.255 C 
HETATM   28  N   UNL     1      42.879 -17.659   3.239  1.00  0.00    -0.064 N 
HETATM   29  H   UNL     1      42.302 -18.455   3.549  1.00  0.00     0.280 HD
HETATM   30  C   UNL     1      42.059 -16.913   2.187  1.00  0.00     0.255 C 
HETATM   31  C   UNL     1      40.736 -16.417   2.806  1.00  0.00     0.150 C 
BRANCH  28  32
HETATM   32  C   UNL     1      44.146 -18.247   2.673  1.00  0.00     0.276 C 
BRANCH  32  33
HETATM   33  C   UNL     1      44.272 -19.729   2.880  1.00  0.00     0.006 A 
HETATM   34  C   UNL     1      44.747 -20.227   4.098  1.00  0.00     0.124 A 
HETATM   35  F   UNL     1      45.141 -19.358   5.042  1.00  0.00    -0.206 F 
HETATM   36  C   UNL     1      44.854 -21.591   4.341  1.00  0.00     0.043 A 
HETATM   37  C   UNL     1      44.473 -22.490   3.349  1.00  0.00     0.003 A 
HETATM   38  C   UNL     1      43.989 -22.018   2.129  1.00  0.00     0.001 A 
HETATM   39  C   UNL     1      43.885 -20.644   1.892  1.00  0.00     0.012 A 
ENDBRANCH  32  33
ENDBRANCH  28  32
ENDBRANCH   4  25
TORSDOF 9
ENDMDL
MODEL 10
REMARK VINA RESULT:      -8.2      3.679      9.341
REMARK  9 active torsions:
REMARK  status: ('A' for Active; 'I' for Inactive)
REMARK    1  A    between atoms: C_2  and  O_3 
REMARK    2  A    between atoms: O_3  and  C_4 
REMARK    3  A    between atoms: C_6  and  C_7 
REMARK       I    between atoms: C_7  and  N_8 
REMARK    4  A    between atoms: N_8  and  C_9 
REMARK    5  A    between atoms: C_9  and  N_10 
REMARK    6  A    between atoms: N_10  and  C_11 
REMARK    7  A    between atoms: C_14  and  N_15 
REMARK    8  A    between atoms: N_18  and  C_20 
REMARK    9  A    between atoms: C_20  and  C_21 
ROOT
HETATM    1  C   UNL     1      41.685 -13.176   3.781  1.00  0.00     0.034 A 
HETATM    2  C   UNL     1      42.308 -12.936   5.005  1.00  0.00     0.032 A 
HETATM    3  C   UNL     1      41.681 -12.164   5.993  1.00  0.00     0.031 A 
HETATM    4  C   UNL     1      40.401 -11.617   5.817  1.00  0.00     0.030 A 
HETATM    5  C   UNL     1      39.782 -11.902   4.589  1.00  0.00     0.031 A 
HETATM    6  C   UNL     1      40.409 -12.664   3.584  1.00  0.00     0.032 A 
ENDROOT
BRANCH   1   7
HETATM    7  N   UNL     1      42.460 -13.818   2.786  1.00  0.00    -0.333 N 
HETATM    8  H   UNL     1      43.314 -13.317   2.564  1.00  0.00     0.168 HD
BRANCH   7   9
HETATM    9  C   UNL     1      42.031 -14.579   1.756  1.00  0.00     0.179 C 
HETATM   10  S   UNL     1      41.496 -13.816   0.364  1.00  0.00    -0.040 SA
BRANCH   9  11
HETATM   11  N   UNL     1      42.074 -15.936   1.754  1.00  0.00    -0.299 N 
HETATM   12  C   UNL     1      41.810 -16.748   2.854  1.00  0.00     0.257 C 
HETATM   13  O   UNL     1      40.838 -16.618   3.594  1.00  0.00    -0.267 OA
HETATM   14  H   UNL     1      42.844 -16.224   1.173  1.00  0.00     0.171 HD
BRANCH  12  15
HETATM   15  C   UNL     1      42.740 -17.912   3.081  1.00  0.00     0.035 A 
HETATM   16  C   UNL     1      43.339 -18.214   4.313  1.00  0.00     0.053 A 
HETATM   17  C   UNL     1      44.184 -19.322   4.450  1.00  0.00     0.070 A 
HETATM   18  C   UNL     1      44.406 -20.169   3.369  1.00  0.00     0.037 A 
HETATM   19  C   UNL     1      43.812 -19.888   2.139  1.00  0.00     0.004 A 
HETATM   20  C   UNL     1      42.991 -18.765   1.994  1.00  0.00     0.017 A 
BRANCH  17  21
HETATM   21  O   UNL     1      44.683 -19.519   5.708  1.00  0.00    -0.347 OA
BRANCH  21  22
HETATM   22  C   UNL     1      43.729 -19.627   6.774  1.00  0.00     0.120 C 
HETATM   23  C   UNL     1      44.194 -18.774   7.948  1.00  0.00     0.040 C 
HETATM   24  C   UNL     1      43.682 -21.100   7.176  1.00  0.00     0.040 C 
ENDBRANCH  21  22
ENDBRANCH  17  21
ENDBRANCH  12  15
ENDBRANCH   9  11
ENDBRANCH   7   9
ENDBRANCH   1   7
BRANCH   4  25
HETATM   25  N   UNL     1      39.837 -10.789   6.782  1.00  0.00    -0.378 N 
HETATM   26  C   UNL     1      40.126  -9.340   6.770  1.00  0.00     0.150 C 
HETATM   27  C   UNL     1      41.193  -8.996   7.831  1.00  0.00     0.255 C 
HETATM   28  N   UNL     1      40.764  -9.507   9.208  1.00  0.00    -0.064 N 
HETATM   29  H   UNL     1      39.873  -9.043   9.440  1.00  0.00     0.280 HD
HETATM   30  C   UNL     1      40.473 -11.008   9.167  1.00  0.00     0.255 C 
HETATM   31  C   UNL     1      39.408 -11.307   8.092  1.00  0.00     0.150 C 
BRANCH  28  32
HETATM   32  C   UNL     1      41.732  -9.137  10.301  1.00  0.00     0.276 C 
BRANCH  32  33
HETATM   33  C   UNL     1      42.671 -10.245  10.681  1.00  0.00     0.006 A 
HETATM   34  C   UNL     1      42.452 -10.978  11.853  1.00  0.00     0.124 A 
HETATM   35  F   UNL     1      41.431 -10.629  12.652  1.00  0.00    -0.206 F 
HETATM   36  C   UNL     1      43.280 -12.028  12.227  1.00  0.00     0.043 A 
HETATM   37  C   UNL     1      44.357 -12.369  11.413  1.00  0.00     0.003 A 
HETATM   38  C   UNL     1      44.591 -11.659  10.235  1.00  0.00     0.001 A 
HETATM   39  C   UNL     1      43.753 -10.603   9.865  1.00  0.00     0.012 A 
ENDBRANCH  32  33
ENDBRANCH  28  32
ENDBRANCH   4  25
TORSDOF 9
ENDMDL
