MODEL 1
REMARK VINA RESULT:      -7.5      0.000      0.000
REMARK  5 active torsions:
REMARK  status: ('A' for Active; 'I' for Inactive)
REMARK    1  A    between atoms: C_2  and  N_3 
REMARK    2  A    between atoms: N_3  and  C_6 
REMARK    3  A    between atoms: C_6  and  C_7 
REMARK    4  A    between atoms: C_8  and  N_9 
REMARK       I    between atoms: N_9  and  C_10 
REMARK    5  A    between atoms: C_10  and  C_11 
ROOT
HETATM    1  N   UNL     1      41.835 -16.933   3.630  1.00  0.00    -0.322 N 
HETATM    2  C   UNL     1      43.191 -17.087   3.449  1.00  0.00     0.259 C 
HETATM    3  O   UNL     1      43.916 -16.283   2.882  1.00  0.00    -0.267 OA
HETATM    4  H   UNL     1      41.437 -17.606   4.282  1.00  0.00     0.169 HD
ENDROOT
BRANCH   1   5
HETATM    5  C   UNL     1      40.985 -15.837   3.314  1.00  0.00     0.043 A 
HETATM    6  C   UNL     1      40.857 -14.597   3.982  1.00  0.00    -0.006 A 
HETATM    7  C   UNL     1      39.887 -13.678   3.509  1.00  0.00     0.011 A 
HETATM    8  C   UNL     1      39.098 -13.943   2.393  1.00  0.00     0.001 A 
HETATM    9  C   UNL     1      39.265 -15.134   1.711  1.00  0.00     0.002 A 
HETATM   10  C   UNL     1      40.199 -16.065   2.165  1.00  0.00     0.030 A 
BRANCH   6  11
HETATM   11  C   UNL     1      41.688 -14.099   5.142  1.00  0.00     0.273 C 
BRANCH  11  12
HETATM   12  N   UNL     1      43.073 -13.725   4.734  1.00  0.00    -0.072 N 
HETATM   13  H   UNL     1      43.085 -12.737   4.455  1.00  0.00     0.277 HD
HETATM   14  H   UNL     1      43.278 -14.275   3.894  1.00  0.00     0.277 HD
BRANCH  12  15
HETATM   15  C   UNL     1      44.128 -14.026   5.736  1.00  0.00     0.228 C 
HETATM   16  C   UNL     1      43.643 -15.163   6.615  1.00  0.00     0.034 C 
ENDBRANCH  12  15
ENDBRANCH  11  12
ENDBRANCH   6  11
ENDBRANCH   1   5
BRANCH   2  17
HETATM   17  C   UNL     1      43.720 -18.343   3.930  1.00  0.00     0.067 A 
HETATM   18  C   UNL     1      43.805 -19.616   3.282  1.00  0.00     0.015 A 
HETATM   19  C   UNL     1      44.489 -20.444   4.168  1.00  0.00     0.086 A 
HETATM   20  C   UNL     1      43.428 -20.149   2.033  1.00  0.00     0.015 A 
HETATM   21  C   UNL     1      44.818 -21.771   3.909  1.00  0.00     0.038 A 
HETATM   22  O   UNL     1      44.806 -19.765   5.302  1.00  0.00    -0.321 OA
HETATM   23  C   UNL     1      44.436 -22.277   2.664  1.00  0.00     0.003 A 
HETATM   24  C   UNL     1      43.753 -21.482   1.741  1.00  0.00     0.001 A 
HETATM   25  C   UNL     1      44.358 -18.496   5.145  1.00  0.00     0.160 A 
ENDBRANCH   2  17
TORSDOF 5
ENDMDL
MODEL 2
REMARK VINA RESULT:      -7.5      1.899      6.371
REMARK  5 active torsions:
REMARK  status: ('A' for Active; 'I' for Inactive)
REMARK    1  A    between atoms: C_2  and  N_3 
REMARK    2  A    between atoms: N_3  and  C_6 
REMARK    3  A    between atoms: C_6  and  C_7 
REMARK    4  A    between atoms: C_8  and  N_9 
REMARK       I    between atoms: N_9  and  C_10 
REMARK    5  A    between atoms: C_10  and  C_11 
ROOT
HETATM    1  N   UNL     1      42.714 -17.685   3.479  1.00  0.00    -0.322 N 
HETATM    2  C   UNL     1      41.718 -17.310   4.353  1.00  0.00     0.259 C 
HETATM    3  O   UNL     1      41.158 -18.062   5.137  1.00  0.00    -0.267 OA
HETATM    4  H   UNL     1      43.186 -16.894   3.044  1.00  0.00     0.169 HD
ENDROOT
BRANCH   1   5
HETATM    5  C   UNL     1      43.381 -18.932   3.327  1.00  0.00     0.043 A 
HETATM    6  C   UNL     1      44.313 -19.548   4.194  1.00  0.00    -0.006 A 
HETATM    7  C   UNL     1      44.893 -20.778   3.791  1.00  0.00     0.011 A 
HETATM    8  C   UNL     1      44.540 -21.407   2.600  1.00  0.00     0.001 A 
HETATM    9  C   UNL     1      43.589 -20.827   1.781  1.00  0.00     0.002 A 
HETATM   10  C   UNL     1      43.015 -19.609   2.144  1.00  0.00     0.030 A 
BRANCH   6  11
HETATM   11  C   UNL     1      44.740 -19.065   5.561  1.00  0.00     0.273 C 
BRANCH  11  12
HETATM   12  N   UNL     1      43.701 -19.308   6.603  1.00  0.00    -0.072 N 
HETATM   13  H   UNL     1      43.583 -20.320   6.729  1.00  0.00     0.277 HD
HETATM   14  H   UNL     1      42.823 -18.950   6.215  1.00  0.00     0.277 HD
BRANCH  12  15
HETATM   15  C   UNL     1      43.935 -18.616   7.898  1.00  0.00     0.228 C 
HETATM   16  C   UNL     1      43.219 -17.280   7.862  1.00  0.00     0.034 C 
ENDBRANCH  12  15
ENDBRANCH  11  12
ENDBRANCH   6  11
ENDBRANCH   1   5
BRANCH   2  17
HETATM   17  C   UNL     1      41.307 -15.930   4.235  1.00  0.00     0.067 A 
HETATM   18  C   UNL     1      40.467 -15.298   3.264  1.00  0.00     0.015 A 
HETATM   19  C   UNL     1      40.331 -13.979   3.686  1.00  0.00     0.086 A 
HETATM   20  C   UNL     1      39.768 -15.700   2.108  1.00  0.00     0.015 A 
HETATM   21  C   UNL     1      39.557 -13.021   3.037  1.00  0.00     0.038 A 
HETATM   22  O   UNL     1      41.037 -13.771   4.828  1.00  0.00    -0.321 OA
HETATM   23  C   UNL     1      38.872 -13.443   1.894  1.00  0.00     0.003 A 
HETATM   24  C   UNL     1      38.974 -14.758   1.436  1.00  0.00     0.001 A 
HETATM   25  C   UNL     1      41.607 -14.954   5.165  1.00  0.00     0.160 A 
ENDBRANCH   2  17
TORSDOF 5
ENDMDL
MODEL 3
REMARK VINA RESULT:      -7.5      1.350      2.872
REMARK  5 active torsions:
REMARK  status: ('A' for Active; 'I' for Inactive)
REMARK    1  A    between atoms: C_2  and  N_3 
REMARK    2  A    between atoms: N_3  and  C_6 
REMARK    3  A    between atoms: C_6  and  C_7 
REMARK    4  A    between atoms: C_8  and  N_9 
REMARK       I    between atoms: N_9  and  C_10 
REMARK    5  A    between atoms: C_10  and  C_11 
ROOT
HETATM    1  N   UNL     1      41.880 -16.381   4.584  1.00  0.00    -0.322 N 
HETATM    2  C   UNL     1      43.078 -16.649   3.959  1.00  0.00     0.259 C 
HETATM    3  O   UNL     1      43.615 -15.920   3.138  1.00  0.00    -0.267 OA
HETATM    4  H   UNL     1      41.686 -17.004   5.366  1.00  0.00     0.169 HD
ENDROOT
BRANCH   1   5
HETATM    5  C   UNL     1      41.050 -15.227   4.522  1.00  0.00     0.043 A 
HETATM    6  C   UNL     1      40.394 -14.669   3.401  1.00  0.00    -0.006 A 
HETATM    7  C   UNL     1      39.665 -13.466   3.580  1.00  0.00     0.011 A 
HETATM    8  C   UNL     1      39.544 -12.853   4.825  1.00  0.00     0.001 A 
HETATM    9  C   UNL     1      40.142 -13.432   5.929  1.00  0.00     0.002 A 
HETATM   10  C   UNL     1      40.881 -14.605   5.778  1.00  0.00     0.030 A 
BRANCH   6  11
HETATM   11  C   UNL     1      40.333 -15.243   2.004  1.00  0.00     0.273 C 
BRANCH  11  12
HETATM   12  N   UNL     1      39.850 -16.653   1.986  1.00  0.00    -0.072 N 
HETATM   13  H   UNL     1      38.866 -16.667   1.697  1.00  0.00     0.277 HD
HETATM   14  H   UNL     1      39.882 -16.975   2.959  1.00  0.00     0.277 HD
BRANCH  12  15
HETATM   15  C   UNL     1      40.673 -17.590   1.178  1.00  0.00     0.228 C 
HETATM   16  C   UNL     1      41.685 -16.781   0.390  1.00  0.00     0.034 C 
ENDBRANCH  12  15
ENDBRANCH  11  12
ENDBRANCH   6  11
ENDBRANCH   1   5
BRANCH   2  17
HETATM   17  C   UNL     1      43.653 -17.931   4.293  1.00  0.00     0.067 A 
HETATM   18  C   UNL     1      43.736 -19.133   3.522  1.00  0.00     0.015 A 
HETATM   19  C   UNL     1      44.476 -20.025   4.294  1.00  0.00     0.086 A 
HETATM   20  C   UNL     1      43.316 -19.554   2.244  1.00  0.00     0.015 A 
HETATM   21  C   UNL     1      44.821 -21.313   3.894  1.00  0.00     0.038 A 
HETATM   22  O   UNL     1      44.828 -19.451   5.474  1.00  0.00    -0.321 OA
HETATM   23  C   UNL     1      44.395 -21.707   2.623  1.00  0.00     0.003 A 
HETATM   24  C   UNL     1      43.656 -20.844   1.811  1.00  0.00     0.001 A 
HETATM   25  C   UNL     1      44.347 -18.184   5.460  1.00  0.00     0.160 A 
ENDBRANCH   2  17
TORSDOF 5
ENDMDL
MODEL 4
REMARK VINA RESULT:      -7.4      2.208      6.266
REMARK  5 active torsions:
REMARK  status: ('A' for Active; 'I' for Inactive)
REMARK    1  A    between atoms: C_2  and  N_3 
REMARK    2  A    between atoms: N_3  and  C_6 
REMARK    3  A    between atoms: C_6  and  C_7 
REMARK    4  A    between atoms: C_8  and  N_9 
REMARK       I    between atoms: N_9  and  C_10 
REMARK    5  A    between atoms: C_10  and  C_11 
ROOT
HETATM    1  N   UNL     1      43.621 -18.074   2.878  1.00  0.00    -0.322 N 
HETATM    2  C   UNL     1      42.651 -17.311   3.490  1.00  0.00     0.259 C 
HETATM    3  O   UNL     1      41.790 -17.747   4.240  1.00  0.00    -0.267 OA
HETATM    4  H   UNL     1      44.357 -17.518   2.446  1.00  0.00     0.169 HD
ENDROOT
BRANCH   1   5
HETATM    5  C   UNL     1      43.923 -19.457   3.015  1.00  0.00     0.043 A 
HETATM    6  C   UNL     1      44.486 -20.134   4.121  1.00  0.00    -0.006 A 
HETATM    7  C   UNL     1      44.753 -21.521   3.994  1.00  0.00     0.011 A 
HETATM    8  C   UNL     1      44.438 -22.233   2.840  1.00  0.00     0.001 A 
HETATM    9  C   UNL     1      43.837 -21.577   1.780  1.00  0.00     0.002 A 
HETATM   10  C   UNL     1      43.581 -20.209   1.871  1.00  0.00     0.030 A 
BRANCH   6  11
HETATM   11  C   UNL     1      44.802 -19.551   5.479  1.00  0.00     0.273 C 
BRANCH  11  12
HETATM   12  N   UNL     1      43.588 -19.394   6.330  1.00  0.00    -0.072 N 
HETATM   13  H   UNL     1      43.410 -20.275   6.826  1.00  0.00     0.277 HD
HETATM   14  H   UNL     1      42.806 -19.252   5.683  1.00  0.00     0.277 HD
BRANCH  12  15
HETATM   15  C   UNL     1      43.616 -18.235   7.260  1.00  0.00     0.228 C 
HETATM   16  C   UNL     1      44.525 -17.172   6.674  1.00  0.00     0.034 C 
ENDBRANCH  12  15
ENDBRANCH  11  12
ENDBRANCH   6  11
ENDBRANCH   1   5
BRANCH   2  17
HETATM   17  C   UNL     1      42.669 -15.914   3.123  1.00  0.00     0.067 A 
HETATM   18  C   UNL     1      42.263 -15.274   1.909  1.00  0.00     0.015 A 
HETATM   19  C   UNL     1      42.407 -13.908   2.137  1.00  0.00     0.086 A 
HETATM   20  C   UNL     1      41.744 -15.687   0.665  1.00  0.00     0.015 A 
HETATM   21  C   UNL     1      42.083 -12.919   1.214  1.00  0.00     0.038 A 
HETATM   22  O   UNL     1      42.882 -13.685   3.390  1.00  0.00    -0.321 OA
HETATM   23  C   UNL     1      41.569 -13.352  -0.011  1.00  0.00     0.003 A 
HETATM   24  C   UNL     1      41.402 -14.711  -0.283  1.00  0.00     0.001 A 
HETATM   25  C   UNL     1      43.020 -14.894   3.986  1.00  0.00     0.160 A 
ENDBRANCH   2  17
TORSDOF 5
ENDMDL
MODEL 5
REMARK VINA RESULT:      -7.3      2.199      6.559
REMARK  5 active torsions:
REMARK  status: ('A' for Active; 'I' for Inactive)
REMARK    1  A    between atoms: C_2  and  N_3 
REMARK    2  A    between atoms: N_3  and  C_6 
REMARK    3  A    between atoms: C_6  and  C_7 
REMARK    4  A    between atoms: C_8  and  N_9 
REMARK       I    between atoms: N_9  and  C_10 
REMARK    5  A    between atoms: C_10  and  C_11 
ROOT
HETATM    1  N   UNL     1      43.556 -17.945   3.165  1.00  0.00    -0.322 N 
HETATM    2  C   UNL     1      42.553 -17.268   3.823  1.00  0.00     0.259 C 
HETATM    3  O   UNL     1      41.659 -17.798   4.466  1.00  0.00    -0.267 OA
HETATM    4  H   UNL     1      44.310 -17.337   2.847  1.00  0.00     0.169 HD
ENDROOT
BRANCH   1   5
HETATM    5  C   UNL     1      43.859 -19.334   3.133  1.00  0.00     0.043 A 
HETATM    6  C   UNL     1      44.455 -20.132   4.137  1.00  0.00    -0.006 A 
HETATM    7  C   UNL     1      44.714 -21.495   3.844  1.00  0.00     0.011 A 
HETATM    8  C   UNL     1      44.361 -22.071   2.627  1.00  0.00     0.001 A 
HETATM    9  C   UNL     1      43.728 -21.300   1.669  1.00  0.00     0.002 A 
HETATM   10  C   UNL     1      43.478 -19.951   1.923  1.00  0.00     0.030 A 
BRANCH   6  11
HETATM   11  C   UNL     1      44.816 -19.707   5.541  1.00  0.00     0.273 C 
BRANCH  11  12
HETATM   12  N   UNL     1      43.615 -19.482   6.396  1.00  0.00    -0.072 N 
HETATM   13  H   UNL     1      43.366 -20.362   6.863  1.00  0.00     0.277 HD
HETATM   14  H   UNL     1      42.849 -19.256   5.754  1.00  0.00     0.277 HD
BRANCH  12  15
HETATM   15  C   UNL     1      43.733 -18.361   7.365  1.00  0.00     0.228 C 
HETATM   16  C   UNL     1      44.594 -17.279   6.743  1.00  0.00     0.034 C 
ENDBRANCH  12  15
ENDBRANCH  11  12
ENDBRANCH   6  11
ENDBRANCH   1   5
BRANCH   2  17
HETATM   17  C   UNL     1      42.582 -15.834   3.644  1.00  0.00     0.067 A 
HETATM   18  C   UNL     1      41.849 -14.807   4.318  1.00  0.00     0.015 A 
HETATM   19  C   UNL     1      42.339 -13.605   3.816  1.00  0.00     0.086 A 
HETATM   20  C   UNL     1      40.867 -14.752   5.328  1.00  0.00     0.015 A 
HETATM   21  C   UNL     1      41.916 -12.347   4.235  1.00  0.00     0.038 A 
HETATM   22  O   UNL     1      43.299 -13.837   2.882  1.00  0.00    -0.321 OA
HETATM   23  C   UNL     1      40.943 -12.318   5.237  1.00  0.00     0.003 A 
HETATM   24  C   UNL     1      40.426 -13.498   5.776  1.00  0.00     0.001 A 
HETATM   25  C   UNL     1      43.455 -15.180   2.797  1.00  0.00     0.160 A 
ENDBRANCH   2  17
TORSDOF 5
ENDMDL
MODEL 6
REMARK VINA RESULT:      -7.0      2.286      6.671
REMARK  5 active torsions:
REMARK  status: ('A' for Active; 'I' for Inactive)
REMARK    1  A    between atoms: C_2  and  N_3 
REMARK    2  A    between atoms: N_3  and  C_6 
REMARK    3  A    between atoms: C_6  and  C_7 
REMARK    4  A    between atoms: C_8  and  N_9 
REMARK       I    between atoms: N_9  and  C_10 
REMARK    5  A    between atoms: C_10  and  C_11 
ROOT
HETATM    1  N   UNL     1      42.594 -18.509   2.083  1.00  0.00    -0.322 N 
HETATM    2  C   UNL     1      43.011 -17.385   1.406  1.00  0.00     0.259 C 
HETATM    3  O   UNL     1      44.175 -17.116   1.149  1.00  0.00    -0.267 OA
HETATM    4  H   UNL     1      41.587 -18.656   2.037  1.00  0.00     0.169 HD
ENDROOT
BRANCH   1   5
HETATM    5  C   UNL     1      43.338 -19.627   2.551  1.00  0.00     0.043 A 
HETATM    6  C   UNL     1      44.117 -19.742   3.726  1.00  0.00    -0.006 A 
HETATM    7  C   UNL     1      44.823 -20.952   3.946  1.00  0.00     0.011 A 
HETATM    8  C   UNL     1      44.734 -22.031   3.071  1.00  0.00     0.001 A 
HETATM    9  C   UNL     1      43.928 -21.933   1.952  1.00  0.00     0.002 A 
HETATM   10  C   UNL     1      43.237 -20.748   1.700  1.00  0.00     0.030 A 
BRANCH   6  11
HETATM   11  C   UNL     1      44.254 -18.720   4.830  1.00  0.00     0.273 C 
BRANCH  11  12
HETATM   12  N   UNL     1      44.751 -19.316   6.102  1.00  0.00    -0.072 N 
HETATM   13  H   UNL     1      45.537 -18.755   6.451  1.00  0.00     0.277 HD
HETATM   14  H   UNL     1      45.126 -20.237   5.855  1.00  0.00     0.277 HD
BRANCH  12  15
HETATM   15  C   UNL     1      43.716 -19.520   7.150  1.00  0.00     0.228 C 
HETATM   16  C   UNL     1      43.570 -21.009   7.395  1.00  0.00     0.034 C 
ENDBRANCH  12  15
ENDBRANCH  11  12
ENDBRANCH   6  11
ENDBRANCH   1   5
BRANCH   2  17
HETATM   17  C   UNL     1      41.949 -16.466   1.061  1.00  0.00     0.067 A 
HETATM   18  C   UNL     1      41.143 -15.634   1.900  1.00  0.00     0.015 A 
HETATM   19  C   UNL     1      40.348 -14.886   1.034  1.00  0.00     0.086 A 
HETATM   20  C   UNL     1      41.028 -15.389   3.283  1.00  0.00     0.015 A 
HETATM   21  C   UNL     1      39.436 -13.918   1.444  1.00  0.00     0.038 A 
HETATM   22  O   UNL     1      40.610 -15.220  -0.256  1.00  0.00    -0.321 OA
HETATM   23  C   UNL     1      39.340 -13.693   2.819  1.00  0.00     0.003 A 
HETATM   24  C   UNL     1      40.121 -14.414   3.724  1.00  0.00     0.001 A 
HETATM   25  C   UNL     1      41.588 -16.157  -0.235  1.00  0.00     0.160 A 
ENDBRANCH   2  17
TORSDOF 5
ENDMDL
MODEL 7
REMARK VINA RESULT:      -7.0      1.463      2.164
REMARK  5 active torsions:
REMARK  status: ('A' for Active; 'I' for Inactive)
REMARK    1  A    between atoms: C_2  and  N_3 
REMARK    2  A    between atoms: N_3  and  C_6 
REMARK    3  A    between atoms: C_6  and  C_7 
REMARK    4  A    between atoms: C_8  and  N_9 
REMARK       I    between atoms: N_9  and  C_10 
REMARK    5  A    between atoms: C_10  and  C_11 
ROOT
HETATM    1  N   UNL     1      42.043 -17.634   3.094  1.00  0.00    -0.322 N 
HETATM    2  C   UNL     1      43.308 -17.828   2.585  1.00  0.00     0.259 C 
HETATM    3  O   UNL     1      43.972 -16.972   2.018  1.00  0.00    -0.267 OA
HETATM    4  H   UNL     1      41.729 -18.396   3.692  1.00  0.00     0.169 HD
ENDROOT
BRANCH   1   5
HETATM    5  C   UNL     1      41.259 -16.450   3.177  1.00  0.00     0.043 A 
HETATM    6  C   UNL     1      41.302 -15.428   4.153  1.00  0.00    -0.006 A 
HETATM    7  C   UNL     1      40.366 -14.367   4.054  1.00  0.00     0.011 A 
HETATM    8  C   UNL     1      39.449 -14.284   3.010  1.00  0.00     0.001 A 
HETATM    9  C   UNL     1      39.447 -15.257   2.028  1.00  0.00     0.002 A 
HETATM   10  C   UNL     1      40.343 -16.323   2.110  1.00  0.00     0.030 A 
BRANCH   6  11
HETATM   11  C   UNL     1      42.284 -15.301   5.294  1.00  0.00     0.273 C 
BRANCH  11  12
HETATM   12  N   UNL     1      41.817 -15.992   6.530  1.00  0.00    -0.072 N 
HETATM   13  H   UNL     1      41.033 -16.611   6.292  1.00  0.00     0.277 HD
HETATM   14  H   UNL     1      41.445 -15.258   7.140  1.00  0.00     0.277 HD
BRANCH  12  15
HETATM   15  C   UNL     1      42.874 -16.712   7.287  1.00  0.00     0.228 C 
HETATM   16  C   UNL     1      44.223 -16.324   6.712  1.00  0.00     0.034 C 
ENDBRANCH  12  15
ENDBRANCH  11  12
ENDBRANCH   6  11
ENDBRANCH   1   5
BRANCH   2  17
HETATM   17  C   UNL     1      43.801 -19.181   2.705  1.00  0.00     0.067 A 
HETATM   18  C   UNL     1      44.086 -19.957   3.872  1.00  0.00     0.015 A 
HETATM   19  C   UNL     1      44.439 -21.221   3.406  1.00  0.00     0.086 A 
HETATM   20  C   UNL     1      44.039 -19.755   5.266  1.00  0.00     0.015 A 
HETATM   21  C   UNL     1      44.761 -22.299   4.225  1.00  0.00     0.038 A 
HETATM   22  O   UNL     1      44.400 -21.253   2.048  1.00  0.00    -0.321 OA
HETATM   23  C   UNL     1      44.706 -22.075   5.603  1.00  0.00     0.003 A 
HETATM   24  C   UNL     1      44.352 -20.826   6.117  1.00  0.00     0.001 A 
HETATM   25  C   UNL     1      43.996 -20.028   1.632  1.00  0.00     0.160 A 
ENDBRANCH   2  17
TORSDOF 5
ENDMDL
MODEL 8
REMARK VINA RESULT:      -6.8      2.042      6.229
REMARK  5 active torsions:
REMARK  status: ('A' for Active; 'I' for Inactive)
REMARK    1  A    between atoms: C_2  and  N_3 
REMARK    2  A    between atoms: N_3  and  C_6 
REMARK    3  A    between atoms: C_6  and  C_7 
REMARK    4  A    between atoms: C_8  and  N_9 
REMARK       I    between atoms: N_9  and  C_10 
REMARK    5  A    between atoms: C_10  and  C_11 
ROOT
HETATM    1  N   UNL     1      42.049 -17.667   2.765  1.00  0.00    -0.322 N 
HETATM    2  C   UNL     1      42.302 -16.326   2.580  1.00  0.00     0.259 C 
HETATM    3  O   UNL     1      43.376 -15.783   2.789  1.00  0.00    -0.267 OA
HETATM    4  H   UNL     1      41.164 -17.969   2.363  1.00  0.00     0.169 HD
ENDROOT
BRANCH   1   5
HETATM    5  C   UNL     1      42.927 -18.725   3.132  1.00  0.00     0.043 A 
HETATM    6  C   UNL     1      43.512 -18.992   4.391  1.00  0.00    -0.006 A 
HETATM    7  C   UNL     1      44.413 -20.082   4.495  1.00  0.00     0.011 A 
HETATM    8  C   UNL     1      44.699 -20.912   3.413  1.00  0.00     0.001 A 
HETATM    9  C   UNL     1      44.082 -20.678   2.197  1.00  0.00     0.002 A 
HETATM   10  C   UNL     1      43.206 -19.602   2.062  1.00  0.00     0.030 A 
BRANCH   6  11
HETATM   11  C   UNL     1      43.247 -18.266   5.689  1.00  0.00     0.273 C 
BRANCH  11  12
HETATM   12  N   UNL     1      43.831 -16.893   5.705  1.00  0.00    -0.072 N 
HETATM   13  H   UNL     1      43.949 -16.568   4.739  1.00  0.00     0.277 HD
HETATM   14  H   UNL     1      44.769 -16.990   6.105  1.00  0.00     0.277 HD
BRANCH  12  15
HETATM   15  C   UNL     1      43.090 -15.904   6.530  1.00  0.00     0.228 C 
HETATM   16  C   UNL     1      41.605 -16.090   6.284  1.00  0.00     0.034 C 
ENDBRANCH  12  15
ENDBRANCH  11  12
ENDBRANCH   6  11
ENDBRANCH   1   5
BRANCH   2  17
HETATM   17  C   UNL     1      41.152 -15.552   2.172  1.00  0.00     0.067 A 
HETATM   18  C   UNL     1      40.754 -15.109   0.871  1.00  0.00     0.015 A 
HETATM   19  C   UNL     1      39.520 -14.488   1.047  1.00  0.00     0.086 A 
HETATM   20  C   UNL     1      41.268 -15.204  -0.438  1.00  0.00     0.015 A 
HETATM   21  C   UNL     1      38.761 -13.942   0.015  1.00  0.00     0.038 A 
HETATM   22  O   UNL     1      39.159 -14.514   2.356  1.00  0.00    -0.321 OA
HETATM   23  C   UNL     1      39.290 -14.050  -1.273  1.00  0.00     0.003 A 
HETATM   24  C   UNL     1      40.521 -14.670  -1.499  1.00  0.00     0.001 A 
HETATM   25  C   UNL     1      40.135 -15.173   3.026  1.00  0.00     0.160 A 
ENDBRANCH   2  17
TORSDOF 5
ENDMDL
MODEL 9
REMARK VINA RESULT:      -6.7      1.528      1.763
REMARK  5 active torsions:
REMARK  status: ('A' for Active; 'I' for Inactive)
REMARK    1  A    between atoms: C_2  and  N_3 
REMARK    2  A    between atoms: N_3  and  C_6 
REMARK    3  A    between atoms: C_6  and  C_7 
REMARK    4  A    between atoms: C_8  and  N_9 
REMARK       I    between atoms: N_9  and  C_10 
REMARK    5  A    between atoms: C_10  and  C_11 
ROOT
HETATM    1  N   UNL     1      41.797 -16.159   3.175  1.00  0.00    -0.322 N 
HETATM    2  C   UNL     1      41.847 -16.721   4.432  1.00  0.00     0.259 C 
HETATM    3  O   UNL     1      41.149 -16.382   5.376  1.00  0.00    -0.267 OA
HETATM    4  H   UNL     1      42.311 -16.692   2.475  1.00  0.00     0.169 HD
ENDROOT
BRANCH   1   5
HETATM    5  C   UNL     1      40.922 -15.171   2.646  1.00  0.00     0.043 A 
HETATM    6  C   UNL     1      41.110 -13.771   2.571  1.00  0.00    -0.006 A 
HETATM    7  C   UNL     1      40.055 -12.979   2.051  1.00  0.00     0.011 A 
HETATM    8  C   UNL     1      38.873 -13.541   1.576  1.00  0.00     0.001 A 
HETATM    9  C   UNL     1      38.715 -14.914   1.601  1.00  0.00     0.002 A 
HETATM   10  C   UNL     1      39.729 -15.717   2.125  1.00  0.00     0.030 A 
BRANCH   6  11
HETATM   11  C   UNL     1      42.355 -13.000   2.945  1.00  0.00     0.273 C 
BRANCH  11  12
HETATM   12  N   UNL     1      42.161 -12.157   4.159  1.00  0.00    -0.072 N 
HETATM   13  H   UNL     1      41.351 -11.543   4.016  1.00  0.00     0.277 HD
HETATM   14  H   UNL     1      42.987 -11.554   4.219  1.00  0.00     0.277 HD
BRANCH  12  15
HETATM   15  C   UNL     1      42.061 -12.907   5.438  1.00  0.00     0.228 C 
HETATM   16  C   UNL     1      40.623 -12.850   5.916  1.00  0.00     0.034 C 
ENDBRANCH  12  15
ENDBRANCH  11  12
ENDBRANCH   6  11
ENDBRANCH   1   5
BRANCH   2  17
HETATM   17  C   UNL     1      42.865 -17.733   4.594  1.00  0.00     0.067 A 
HETATM   18  C   UNL     1      43.258 -18.795   3.719  1.00  0.00     0.015 A 
HETATM   19  C   UNL     1      44.350 -19.403   4.332  1.00  0.00     0.086 A 
HETATM   20  C   UNL     1      42.849 -19.279   2.460  1.00  0.00     0.015 A 
HETATM   21  C   UNL     1      45.063 -20.468   3.790  1.00  0.00     0.038 A 
HETATM   22  O   UNL     1      44.630 -18.793   5.513  1.00  0.00    -0.321 OA
HETATM   23  C   UNL     1      44.641 -20.931   2.541  1.00  0.00     0.003 A 
HETATM   24  C   UNL     1      43.554 -20.348   1.885  1.00  0.00     0.001 A 
HETATM   25  C   UNL     1      43.746 -17.777   5.657  1.00  0.00     0.160 A 
ENDBRANCH   2  17
TORSDOF 5
ENDMDL
MODEL 10
REMARK VINA RESULT:      -6.6      4.298      6.235
REMARK  5 active torsions:
REMARK  status: ('A' for Active; 'I' for Inactive)
REMARK    1  A    between atoms: C_2  and  N_3 
REMARK    2  A    between atoms: N_3  and  C_6 
REMARK    3  A    between atoms: C_6  and  C_7 
REMARK    4  A    between atoms: C_8  and  N_9 
REMARK       I    between atoms: N_9  and  C_10 
REMARK    5  A    between atoms: C_10  and  C_11 
ROOT
HETATM    1  N   UNL     1      41.210 -14.122  -0.194  1.00  0.00    -0.322 N 
HETATM    2  C   UNL     1      41.223 -15.497  -0.266  1.00  0.00     0.259 C 
HETATM    3  O   UNL     1      41.134 -16.143  -1.299  1.00  0.00    -0.267 OA
HETATM    4  H   UNL     1      41.482 -13.764   0.720  1.00  0.00     0.169 HD
ENDROOT
BRANCH   1   5
HETATM    5  C   UNL     1      41.186 -13.148  -1.230  1.00  0.00     0.043 A 
HETATM    6  C   UNL     1      40.103 -12.755  -2.050  1.00  0.00    -0.006 A 
HETATM    7  C   UNL     1      40.344 -11.797  -3.067  1.00  0.00     0.011 A 
HETATM    8  C   UNL     1      41.594 -11.209  -3.249  1.00  0.00     0.001 A 
HETATM    9  C   UNL     1      42.636 -11.557  -2.410  1.00  0.00     0.002 A 
HETATM   10  C   UNL     1      42.432 -12.511  -1.412  1.00  0.00     0.030 A 
BRANCH   6  11
HETATM   11  C   UNL     1      38.666 -13.209  -1.937  1.00  0.00     0.273 C 
BRANCH  11  12
HETATM   12  N   UNL     1      38.492 -14.648  -2.290  1.00  0.00    -0.072 N 
HETATM   13  H   UNL     1      37.774 -15.057  -1.682  1.00  0.00     0.277 HD
HETATM   14  H   UNL     1      39.379 -15.105  -2.056  1.00  0.00     0.277 HD
BRANCH  12  15
HETATM   15  C   UNL     1      38.215 -14.915  -3.725  1.00  0.00     0.228 C 
HETATM   16  C   UNL     1      38.962 -16.171  -4.131  1.00  0.00     0.034 C 
ENDBRANCH  12  15
ENDBRANCH  11  12
ENDBRANCH   6  11
ENDBRANCH   1   5
BRANCH   2  17
HETATM   17  C   UNL     1      41.281 -16.163   1.016  1.00  0.00     0.067 A 
HETATM   18  C   UNL     1      42.247 -17.083   1.533  1.00  0.00     0.015 A 
HETATM   19  C   UNL     1      41.863 -17.330   2.848  1.00  0.00     0.086 A 
HETATM   20  C   UNL     1      43.425 -17.695   1.060  1.00  0.00     0.015 A 
HETATM   21  C   UNL     1      42.560 -18.152   3.729  1.00  0.00     0.038 A 
HETATM   22  O   UNL     1      40.734 -16.638   3.150  1.00  0.00    -0.321 OA
HETATM   23  C   UNL     1      43.725 -18.747   3.238  1.00  0.00     0.003 A 
HETATM   24  C   UNL     1      44.152 -18.524   1.927  1.00  0.00     0.001 A 
HETATM   25  C   UNL     1      40.399 -15.922   2.050  1.00  0.00     0.160 A 
ENDBRANCH   2  17
TORSDOF 5
ENDMDL
