MODEL 1
REMARK VINA RESULT:      -9.3      0.000      0.000
REMARK  6 active torsions:
REMARK  status: ('A' for Active; 'I' for Inactive)
REMARK    1  A    between atoms: C_2  and  C_3 
REMARK    2  A    between atoms: C_3  and  N_4 
REMARK    3  A    between atoms: N_8  and  C_10 
REMARK    4  A    between atoms: C_10  and  C_11 
REMARK    5  A    between atoms: C_11  and  C_12 
REMARK    6  A    between atoms: C_20  and  N_21 
ROOT
HETATM    1  N   UNL     1      41.688 -16.541   0.776  1.00  0.00    -0.064 N 
HETATM    2  H   UNL     1      41.427 -17.170  -0.001  1.00  0.00     0.280 HD
HETATM    3  C   UNL     1      40.610 -16.680   1.840  1.00  0.00     0.263 C 
HETATM    4  C   UNL     1      40.993 -15.954   3.158  1.00  0.00     0.262 C 
HETATM    5  N   UNL     1      42.392 -16.331   3.660  1.00  0.00    -0.068 N 
HETATM    6  H   UNL     1      42.352 -17.295   4.034  1.00  0.00     0.280 HD
HETATM    7  C   UNL     1      43.472 -16.308   2.563  1.00  0.00     0.262 C 
HETATM    8  C   UNL     1      43.025 -17.058   1.291  1.00  0.00     0.263 C 
ENDROOT
BRANCH   5   9
HETATM    9  C   UNL     1      42.864 -15.457   4.834  1.00  0.00     0.238 C 
BRANCH   9  10
HETATM   10  C   UNL     1      42.679 -16.161   6.171  1.00  0.00     0.070 C 
BRANCH  10  11
HETATM   11  C   UNL     1      43.963 -16.909   6.578  1.00  0.00     0.222 C 
HETATM   12  O   UNL     1      44.387 -17.656   5.450  1.00  0.00    -0.334 OA
HETATM   13  C   UNL     1      44.306 -19.014   5.572  1.00  0.00     0.099 A 
HETATM   14  C   UNL     1      44.005 -19.678   6.764  1.00  0.00     0.068 A 
HETATM   15  C   UNL     1      44.552 -19.740   4.409  1.00  0.00     0.075 A 
HETATM   16  N   UNL     1      43.743 -18.950   7.924  1.00  0.00    -0.323 N 
HETATM   17  C   UNL     1      43.952 -21.072   6.801  1.00  0.00     0.035 A 
HETATM   18  C   UNL     1      43.706 -17.589   7.930  1.00  0.00     0.251 C 
HETATM   19  H   UNL     1      43.558 -19.423   8.804  1.00  0.00     0.169 HD
HETATM   20  O   UNL     1      43.409 -16.939   8.929  1.00  0.00    -0.270 OA
HETATM   21  C   UNL     1      44.181 -21.810   5.634  1.00  0.00     0.038 A 
HETATM   22  C   UNL     1      44.476 -21.139   4.440  1.00  0.00     0.105 A 
BRANCH  22  23
HETATM   23  N   UNL     1      44.675 -21.895   3.200  1.00  0.00    -0.116 N 
HETATM   24  O   UNL     1      44.756 -23.129   3.298  1.00  0.00    -0.532 OA
HETATM   25  O   UNL     1      44.775 -21.258   2.146  1.00  0.00    -0.532 OA
ENDBRANCH  22  23
ENDBRANCH  10  11
ENDBRANCH   9  10
ENDBRANCH   5   9
BRANCH   1  26
HETATM   26  C   UNL     1      41.703 -15.156   0.131  1.00  0.00     0.273 C 
BRANCH  26  27
HETATM   27  C   UNL     1      40.758 -15.004  -1.025  1.00  0.00    -0.030 A 
HETATM   28  C   UNL     1      40.951 -15.763  -2.205  1.00  0.00     0.012 A 
HETATM   29  C   UNL     1      40.068 -15.652  -3.286  1.00  0.00     0.040 A 
HETATM   30  C   UNL     1      39.014 -14.776  -3.166  1.00  0.00     0.105 A 
HETATM   31  C   UNL     1      38.824 -14.028  -2.031  1.00  0.00     0.105 A 
HETATM   32  O   UNL     1      38.068 -14.537  -4.108  1.00  0.00    -0.323 OA
HETATM   33  C   UNL     1      39.673 -14.114  -0.947  1.00  0.00     0.048 A 
HETATM   34  O   UNL     1      37.734 -13.224  -2.117  1.00  0.00    -0.323 OA
HETATM   35  C   UNL     1      37.287 -13.507  -3.464  1.00  0.00     0.352 A 
ENDBRANCH  26  27
ENDBRANCH   1  26
TORSDOF 6
ENDMDL
MODEL 2
REMARK VINA RESULT:      -9.2      2.331      9.297
REMARK  6 active torsions:
REMARK  status: ('A' for Active; 'I' for Inactive)
REMARK    1  A    between atoms: C_2  and  C_3 
REMARK    2  A    between atoms: C_3  and  N_4 
REMARK    3  A    between atoms: N_8  and  C_10 
REMARK    4  A    between atoms: C_10  and  C_11 
REMARK    5  A    between atoms: C_11  and  C_12 
REMARK    6  A    between atoms: C_20  and  N_21 
ROOT
HETATM    1  N   UNL     1      42.816 -17.041   5.339  1.00  0.00    -0.064 N 
HETATM    2  H   UNL     1      43.260 -17.548   6.122  1.00  0.00     0.280 HD
HETATM    3  C   UNL     1      41.474 -17.711   5.083  1.00  0.00     0.263 C 
HETATM    4  C   UNL     1      40.604 -16.910   4.076  1.00  0.00     0.262 C 
HETATM    5  N   UNL     1      40.481 -15.427   4.445  1.00  0.00    -0.068 N 
HETATM    6  H   UNL     1      39.857 -15.349   5.267  1.00  0.00     0.280 HD
HETATM    7  C   UNL     1      41.820 -14.767   4.821  1.00  0.00     0.262 C 
HETATM    8  C   UNL     1      42.621 -15.613   5.833  1.00  0.00     0.263 C 
ENDROOT
BRANCH   5   9
HETATM    9  C   UNL     1      39.812 -14.588   3.343  1.00  0.00     0.238 C 
BRANCH   9  10
HETATM   10  C   UNL     1      39.826 -15.308   2.002  1.00  0.00     0.070 C 
BRANCH  10  11
HETATM   11  C   UNL     1      40.561 -14.470   0.938  1.00  0.00     0.222 C 
HETATM   12  O   UNL     1      39.570 -13.907   0.093  1.00  0.00    -0.334 OA
HETATM   13  C   UNL     1      39.550 -14.372  -1.191  1.00  0.00     0.099 A 
HETATM   14  C   UNL     1      40.527 -15.210  -1.737  1.00  0.00     0.068 A 
HETATM   15  C   UNL     1      38.471 -13.955  -1.968  1.00  0.00     0.075 A 
HETATM   16  N   UNL     1      41.597 -15.641  -0.955  1.00  0.00    -0.323 N 
HETATM   17  C   UNL     1      40.432 -15.632  -3.064  1.00  0.00     0.035 A 
HETATM   18  C   UNL     1      41.700 -15.324   0.366  1.00  0.00     0.251 C 
HETATM   19  H   UNL     1      42.330 -16.221  -1.351  1.00  0.00     0.169 HD
HETATM   20  O   UNL     1      42.601 -15.754   1.081  1.00  0.00    -0.270 OA
HETATM   21  C   UNL     1      39.344 -15.231  -3.847  1.00  0.00     0.038 A 
HETATM   22  C   UNL     1      38.365 -14.397  -3.293  1.00  0.00     0.105 A 
BRANCH  22  23
HETATM   23  N   UNL     1      37.196 -14.005  -4.087  1.00  0.00    -0.116 N 
HETATM   24  O   UNL     1      36.968 -12.790  -4.194  1.00  0.00    -0.532 OA
HETATM   25  O   UNL     1      36.502 -14.904  -4.573  1.00  0.00    -0.532 OA
ENDBRANCH  22  23
ENDBRANCH  10  11
ENDBRANCH   9  10
ENDBRANCH   5   9
BRANCH   1  26
HETATM   26  C   UNL     1      43.796 -17.227   4.183  1.00  0.00     0.273 C 
BRANCH  26  27
HETATM   27  C   UNL     1      43.965 -18.653   3.741  1.00  0.00    -0.030 A 
HETATM   28  C   UNL     1      43.633 -19.031   2.417  1.00  0.00     0.012 A 
HETATM   29  C   UNL     1      43.803 -20.349   1.980  1.00  0.00     0.040 A 
HETATM   30  C   UNL     1      44.296 -21.266   2.881  1.00  0.00     0.105 A 
HETATM   31  C   UNL     1      44.611 -20.911   4.169  1.00  0.00     0.105 A 
HETATM   32  O   UNL     1      44.520 -22.580   2.635  1.00  0.00    -0.323 OA
HETATM   33  C   UNL     1      44.458 -19.621   4.632  1.00  0.00     0.048 A 
HETATM   34  O   UNL     1      45.074 -21.961   4.895  1.00  0.00    -0.323 OA
HETATM   35  C   UNL     1      44.960 -23.036   3.933  1.00  0.00     0.352 A 
ENDBRANCH  26  27
ENDBRANCH   1  26
TORSDOF 6
ENDMDL
MODEL 3
REMARK VINA RESULT:      -9.2      4.978      8.909
REMARK  6 active torsions:
REMARK  status: ('A' for Active; 'I' for Inactive)
REMARK    1  A    between atoms: C_2  and  C_3 
REMARK    2  A    between atoms: C_3  and  N_4 
REMARK    3  A    between atoms: N_8  and  C_10 
REMARK    4  A    between atoms: C_10  and  C_11 
REMARK    5  A    between atoms: C_11  and  C_12 
REMARK    6  A    between atoms: C_20  and  N_21 
ROOT
HETATM    1  N   UNL     1      42.991 -15.935   5.643  1.00  0.00    -0.064 N 
HETATM    2  H   UNL     1      43.589 -16.700   5.997  1.00  0.00     0.280 HD
HETATM    3  C   UNL     1      41.595 -16.172   6.199  1.00  0.00     0.263 C 
HETATM    4  C   UNL     1      40.646 -14.973   5.924  1.00  0.00     0.262 C 
HETATM    5  N   UNL     1      41.249 -13.628   6.349  1.00  0.00    -0.068 N 
HETATM    6  H   UNL     1      41.241 -13.583   7.382  1.00  0.00     0.280 HD
HETATM    7  C   UNL     1      42.704 -13.428   5.890  1.00  0.00     0.262 C 
HETATM    8  C   UNL     1      43.587 -14.653   6.208  1.00  0.00     0.263 C 
ENDROOT
BRANCH   5   9
HETATM    9  C   UNL     1      40.416 -12.424   5.880  1.00  0.00     0.238 C 
BRANCH   9  10
HETATM   10  C   UNL     1      39.460 -11.944   6.964  1.00  0.00     0.070 C 
BRANCH  10  11
HETATM   11  C   UNL     1      39.979 -10.648   7.617  1.00  0.00     0.222 C 
HETATM   12  O   UNL     1      41.396 -10.700   7.580  1.00  0.00    -0.334 OA
HETATM   13  C   UNL     1      42.019 -10.818   8.789  1.00  0.00     0.099 A 
HETATM   14  C   UNL     1      41.366 -10.718  10.021  1.00  0.00     0.068 A 
HETATM   15  C   UNL     1      43.392 -11.048   8.741  1.00  0.00     0.075 A 
HETATM   16  N   UNL     1      39.989 -10.505  10.068  1.00  0.00    -0.323 N 
HETATM   17  C   UNL     1      42.083 -10.843  11.211  1.00  0.00     0.035 A 
HETATM   18  C   UNL     1      39.227 -10.452   8.941  1.00  0.00     0.251 C 
HETATM   19  H   UNL     1      39.510 -10.396  10.957  1.00  0.00     0.169 HD
HETATM   20  O   UNL     1      38.005 -10.334   8.973  1.00  0.00    -0.270 OA
HETATM   21  C   UNL     1      43.460 -11.089  11.173  1.00  0.00     0.038 A 
HETATM   22  C   UNL     1      44.108 -11.196   9.936  1.00  0.00     0.105 A 
BRANCH  22  23
HETATM   23  N   UNL     1      45.542 -11.498   9.879  1.00  0.00    -0.116 N 
HETATM   24  O   UNL     1      46.267 -10.687   9.282  1.00  0.00    -0.532 OA
HETATM   25  O   UNL     1      45.930 -12.547  10.404  1.00  0.00    -0.532 OA
ENDBRANCH  22  23
ENDBRANCH  10  11
ENDBRANCH   9  10
ENDBRANCH   5   9
BRANCH   1  26
HETATM   26  C   UNL     1      43.055 -16.099   4.125  1.00  0.00     0.273 C 
BRANCH  26  27
HETATM   27  C   UNL     1      43.397 -17.487   3.668  1.00  0.00    -0.030 A 
HETATM   28  C   UNL     1      43.212 -17.856   2.313  1.00  0.00     0.012 A 
HETATM   29  C   UNL     1      43.546 -19.138   1.863  1.00  0.00     0.040 A 
HETATM   30  C   UNL     1      44.052 -20.029   2.781  1.00  0.00     0.105 A 
HETATM   31  C   UNL     1      44.226 -19.685   4.099  1.00  0.00     0.105 A 
HETATM   32  O   UNL     1      44.423 -21.308   2.526  1.00  0.00    -0.323 OA
HETATM   33  C   UNL     1      43.909 -18.430   4.576  1.00  0.00     0.048 A 
HETATM   34  O   UNL     1      44.729 -20.706   4.838  1.00  0.00    -0.323 OA
HETATM   35  C   UNL     1      44.799 -21.759   3.847  1.00  0.00     0.352 A 
ENDBRANCH  26  27
ENDBRANCH   1  26
TORSDOF 6
ENDMDL
MODEL 4
REMARK VINA RESULT:      -9.0      2.487      9.294
REMARK  6 active torsions:
REMARK  status: ('A' for Active; 'I' for Inactive)
REMARK    1  A    between atoms: C_2  and  C_3 
REMARK    2  A    between atoms: C_3  and  N_4 
REMARK    3  A    between atoms: N_8  and  C_10 
REMARK    4  A    between atoms: C_10  and  C_11 
REMARK    5  A    between atoms: C_11  and  C_12 
REMARK    6  A    between atoms: C_20  and  N_21 
ROOT
HETATM    1  N   UNL     1      42.567 -16.760   4.141  1.00  0.00    -0.064 N 
HETATM    2  H   UNL     1      42.903 -17.170   5.028  1.00  0.00     0.280 HD
HETATM    3  C   UNL     1      41.192 -17.352   3.872  1.00  0.00     0.263 C 
HETATM    4  C   UNL     1      40.478 -16.654   2.682  1.00  0.00     0.262 C 
HETATM    5  N   UNL     1      40.467 -15.126   2.809  1.00  0.00    -0.068 N 
HETATM    6  H   UNL     1      39.793 -14.869   3.551  1.00  0.00     0.280 HD
HETATM    7  C   UNL     1      41.830 -14.525   3.197  1.00  0.00     0.262 C 
HETATM    8  C   UNL     1      42.470 -15.261   4.392  1.00  0.00     0.263 C 
ENDROOT
BRANCH   5   9
HETATM    9  C   UNL     1      39.964 -14.422   1.538  1.00  0.00     0.238 C 
BRANCH   9  10
HETATM   10  C   UNL     1      39.896 -12.912   1.719  1.00  0.00     0.070 C 
BRANCH  10  11
HETATM   11  C   UNL     1      40.187 -12.187   0.390  1.00  0.00     0.222 C 
HETATM   12  O   UNL     1      39.235 -12.650  -0.554  1.00  0.00    -0.334 OA
HETATM   13  C   UNL     1      39.733 -13.402  -1.579  1.00  0.00     0.099 A 
HETATM   14  C   UNL     1      41.096 -13.585  -1.829  1.00  0.00     0.068 A 
HETATM   15  C   UNL     1      38.783 -14.003  -2.403  1.00  0.00     0.075 A 
HETATM   16  N   UNL     1      42.045 -12.997  -0.994  1.00  0.00    -0.323 N 
HETATM   17  C   UNL     1      41.517 -14.365  -2.907  1.00  0.00     0.035 A 
HETATM   18  C   UNL     1      41.693 -12.290   0.115  1.00  0.00     0.251 C 
HETATM   19  H   UNL     1      43.038 -13.095  -1.187  1.00  0.00     0.169 HD
HETATM   20  O   UNL     1      42.521 -11.827   0.895  1.00  0.00    -0.270 OA
HETATM   21  C   UNL     1      40.571 -14.985  -3.730  1.00  0.00     0.038 A 
HETATM   22  C   UNL     1      39.206 -14.805  -3.471  1.00  0.00     0.105 A 
BRANCH  22  23
HETATM   23  N   UNL     1      38.204 -15.484  -4.299  1.00  0.00    -0.116 N 
HETATM   24  O   UNL     1      37.045 -15.043  -4.257  1.00  0.00    -0.532 OA
HETATM   25  O   UNL     1      38.569 -16.461  -4.960  1.00  0.00    -0.532 OA
ENDBRANCH  22  23
ENDBRANCH  10  11
ENDBRANCH   9  10
ENDBRANCH   5   9
BRANCH   1  26
HETATM   26  C   UNL     1      43.610 -17.207   3.117  1.00  0.00     0.273 C 
BRANCH  26  27
HETATM   27  C   UNL     1      43.843 -18.690   3.081  1.00  0.00    -0.030 A 
HETATM   28  C   UNL     1      43.581 -19.422   1.897  1.00  0.00     0.012 A 
HETATM   29  C   UNL     1      43.812 -20.801   1.837  1.00  0.00     0.040 A 
HETATM   30  C   UNL     1      44.293 -21.421   2.966  1.00  0.00     0.105 A 
HETATM   31  C   UNL     1      44.540 -20.723   4.122  1.00  0.00     0.105 A 
HETATM   32  O   UNL     1      44.569 -22.743   3.091  1.00  0.00    -0.323 OA
HETATM   33  C   UNL     1      44.327 -19.363   4.216  1.00  0.00     0.048 A 
HETATM   34  O   UNL     1      45.004 -21.519   5.119  1.00  0.00    -0.323 OA
HETATM   35  C   UNL     1      44.966 -22.817   4.478  1.00  0.00     0.352 A 
ENDBRANCH  26  27
ENDBRANCH   1  26
TORSDOF 6
ENDMDL
MODEL 5
REMARK VINA RESULT:      -8.9      1.700      1.951
REMARK  6 active torsions:
REMARK  status: ('A' for Active; 'I' for Inactive)
REMARK    1  A    between atoms: C_2  and  C_3 
REMARK    2  A    between atoms: C_3  and  N_4 
REMARK    3  A    between atoms: N_8  and  C_10 
REMARK    4  A    between atoms: C_10  and  C_11 
REMARK    5  A    between atoms: C_11  and  C_12 
REMARK    6  A    between atoms: C_20  and  N_21 
ROOT
HETATM    1  N   UNL     1      41.513 -16.625   0.956  1.00  0.00    -0.064 N 
HETATM    2  H   UNL     1      41.492 -17.213   0.106  1.00  0.00     0.280 HD
HETATM    3  C   UNL     1      40.970 -17.475   2.095  1.00  0.00     0.263 C 
HETATM    4  C   UNL     1      41.153 -16.786   3.475  1.00  0.00     0.262 C 
HETATM    5  N   UNL     1      42.588 -16.300   3.711  1.00  0.00    -0.068 N 
HETATM    6  H   UNL     1      43.185 -17.126   3.884  1.00  0.00     0.280 HD
HETATM    7  C   UNL     1      43.190 -15.539   2.516  1.00  0.00     0.262 C 
HETATM    8  C   UNL     1      42.981 -16.289   1.185  1.00  0.00     0.263 C 
ENDROOT
BRANCH   5   9
HETATM    9  C   UNL     1      42.725 -15.426   4.970  1.00  0.00     0.238 C 
BRANCH   9  10
HETATM   10  C   UNL     1      42.575 -16.247   6.243  1.00  0.00     0.070 C 
BRANCH  10  11
HETATM   11  C   UNL     1      43.894 -16.965   6.591  1.00  0.00     0.222 C 
HETATM   12  O   UNL     1      44.290 -17.691   5.440  1.00  0.00    -0.334 OA
HETATM   13  C   UNL     1      44.249 -19.051   5.552  1.00  0.00     0.099 A 
HETATM   14  C   UNL     1      44.015 -19.733   6.749  1.00  0.00     0.068 A 
HETATM   15  C   UNL     1      44.465 -19.761   4.373  1.00  0.00     0.075 A 
HETATM   16  N   UNL     1      43.782 -19.022   7.926  1.00  0.00    -0.323 N 
HETATM   17  C   UNL     1      43.998 -21.128   6.775  1.00  0.00     0.035 A 
HETATM   18  C   UNL     1      43.710 -17.662   7.946  1.00  0.00     0.251 C 
HETATM   19  H   UNL     1      43.645 -19.507   8.807  1.00  0.00     0.169 HD
HETATM   20  O   UNL     1      43.438 -17.029   8.962  1.00  0.00    -0.270 OA
HETATM   21  C   UNL     1      44.198 -21.850   5.592  1.00  0.00     0.038 A 
HETATM   22  C   UNL     1      44.426 -21.161   4.394  1.00  0.00     0.105 A 
BRANCH  22  23
HETATM   23  N   UNL     1      44.594 -21.902   3.140  1.00  0.00    -0.116 N 
HETATM   24  O   UNL     1      44.466 -21.262   2.085  1.00  0.00    -0.532 OA
HETATM   25  O   UNL     1      44.823 -23.114   3.213  1.00  0.00    -0.532 OA
ENDBRANCH  22  23
ENDBRANCH  10  11
ENDBRANCH   9  10
ENDBRANCH   5   9
BRANCH   1  26
HETATM   26  C   UNL     1      40.598 -15.452   0.608  1.00  0.00     0.273 C 
BRANCH  26  27
HETATM   27  C   UNL     1      41.020 -14.680  -0.608  1.00  0.00    -0.030 A 
HETATM   28  C   UNL     1      40.932 -15.271  -1.892  1.00  0.00     0.012 A 
HETATM   29  C   UNL     1      41.300 -14.560  -3.039  1.00  0.00     0.040 A 
HETATM   30  C   UNL     1      41.757 -13.272  -2.878  1.00  0.00     0.105 A 
HETATM   31  C   UNL     1      41.856 -12.694  -1.637  1.00  0.00     0.105 A 
HETATM   32  O   UNL     1      42.160 -12.441  -3.871  1.00  0.00    -0.323 OA
HETATM   33  C   UNL     1      41.500 -13.364  -0.485  1.00  0.00     0.048 A 
HETATM   34  O   UNL     1      42.334 -11.424  -1.694  1.00  0.00    -0.323 OA
HETATM   35  C   UNL     1      42.582 -11.285  -3.114  1.00  0.00     0.352 A 
ENDBRANCH  26  27
ENDBRANCH   1  26
TORSDOF 6
ENDMDL
MODEL 6
REMARK VINA RESULT:      -8.7      3.639     10.074
REMARK  6 active torsions:
REMARK  status: ('A' for Active; 'I' for Inactive)
REMARK    1  A    between atoms: C_2  and  C_3 
REMARK    2  A    between atoms: C_3  and  N_4 
REMARK    3  A    between atoms: N_8  and  C_10 
REMARK    4  A    between atoms: C_10  and  C_11 
REMARK    5  A    between atoms: C_11  and  C_12 
REMARK    6  A    between atoms: C_20  and  N_21 
ROOT
HETATM    1  N   UNL     1      42.386 -16.611   3.546  1.00  0.00    -0.064 N 
HETATM    2  H   UNL     1      42.562 -17.103   4.437  1.00  0.00     0.280 HD
HETATM    3  C   UNL     1      40.971 -16.969   3.115  1.00  0.00     0.263 C 
HETATM    4  C   UNL     1      40.499 -16.122   1.902  1.00  0.00     0.262 C 
HETATM    5  N   UNL     1      40.707 -14.617   2.111  1.00  0.00    -0.068 N 
HETATM    6  H   UNL     1      40.007 -14.287   2.798  1.00  0.00     0.280 HD
HETATM    7  C   UNL     1      42.098 -14.253   2.660  1.00  0.00     0.262 C 
HETATM    8  C   UNL     1      42.493 -15.127   3.869  1.00  0.00     0.263 C 
ENDROOT
BRANCH   5   9
HETATM    9  C   UNL     1      40.450 -13.794   0.838  1.00  0.00     0.238 C 
BRANCH   9  10
HETATM   10  C   UNL     1      40.364 -14.680  -0.397  1.00  0.00     0.070 C 
BRANCH  10  11
HETATM   11  C   UNL     1      41.665 -14.601  -1.219  1.00  0.00     0.222 C 
HETATM   12  O   UNL     1      42.345 -13.425  -0.812  1.00  0.00    -0.334 OA
HETATM   13  C   UNL     1      42.432 -12.435  -1.748  1.00  0.00     0.099 A 
HETATM   14  C   UNL     1      42.055 -12.584  -3.086  1.00  0.00     0.068 A 
HETATM   15  C   UNL     1      42.940 -11.219  -1.295  1.00  0.00     0.075 A 
HETATM   16  N   UNL     1      41.531 -13.796  -3.535  1.00  0.00    -0.323 N 
HETATM   17  C   UNL     1      42.186 -11.520  -3.979  1.00  0.00     0.035 A 
HETATM   18  C   UNL     1      41.309 -14.843  -2.692  1.00  0.00     0.251 C 
HETATM   19  H   UNL     1      41.286 -13.926  -4.511  1.00  0.00     0.169 HD
HETATM   20  O   UNL     1      40.785 -15.891  -3.063  1.00  0.00    -0.270 OA
HETATM   21  C   UNL     1      42.679 -10.290  -3.529  1.00  0.00     0.038 A 
HETATM   22  C   UNL     1      43.050 -10.144  -2.186  1.00  0.00     0.105 A 
BRANCH  22  23
HETATM   23  N   UNL     1      43.527  -8.849  -1.691  1.00  0.00    -0.116 N 
HETATM   24  O   UNL     1      44.722  -8.774  -1.366  1.00  0.00    -0.532 OA
HETATM   25  O   UNL     1      42.708  -7.928  -1.604  1.00  0.00    -0.532 OA
ENDBRANCH  22  23
ENDBRANCH  10  11
ENDBRANCH   9  10
ENDBRANCH   5   9
BRANCH   1  26
HETATM   26  C   UNL     1      43.449 -17.175   2.604  1.00  0.00     0.273 C 
BRANCH  26  27
HETATM   27  C   UNL     1      43.731 -18.637   2.799  1.00  0.00    -0.030 A 
HETATM   28  C   UNL     1      43.524 -19.549   1.735  1.00  0.00     0.012 A 
HETATM   29  C   UNL     1      43.802 -20.912   1.889  1.00  0.00     0.040 A 
HETATM   30  C   UNL     1      44.275 -21.336   3.109  1.00  0.00     0.105 A 
HETATM   31  C   UNL     1      44.470 -20.462   4.150  1.00  0.00     0.105 A 
HETATM   32  O   UNL     1      44.592 -22.613   3.439  1.00  0.00    -0.323 OA
HETATM   33  C   UNL     1      44.208 -19.113   4.032  1.00  0.00     0.048 A 
HETATM   34  O   UNL     1      44.934 -21.081   5.266  1.00  0.00    -0.323 OA
HETATM   35  C   UNL     1      44.955 -22.461   4.829  1.00  0.00     0.352 A 
ENDBRANCH  26  27
ENDBRANCH   1  26
TORSDOF 6
ENDMDL
MODEL 7
REMARK VINA RESULT:      -8.6      3.152      3.916
REMARK  6 active torsions:
REMARK  status: ('A' for Active; 'I' for Inactive)
REMARK    1  A    between atoms: C_2  and  C_3 
REMARK    2  A    between atoms: C_3  and  N_4 
REMARK    3  A    between atoms: N_8  and  C_10 
REMARK    4  A    between atoms: C_10  and  C_11 
REMARK    5  A    between atoms: C_11  and  C_12 
REMARK    6  A    between atoms: C_20  and  N_21 
ROOT
HETATM    1  N   UNL     1      40.722 -14.039  -1.136  1.00  0.00    -0.064 N 
HETATM    2  H   UNL     1      40.376 -13.577  -1.992  1.00  0.00     0.280 HD
HETATM    3  C   UNL     1      39.606 -13.955  -0.105  1.00  0.00     0.263 C 
HETATM    4  C   UNL     1      39.911 -14.807   1.157  1.00  0.00     0.262 C 
HETATM    5  N   UNL     1      40.317 -16.247   0.819  1.00  0.00    -0.068 N 
HETATM    6  H   UNL     1      39.473 -16.755   0.505  1.00  0.00     0.280 HD
HETATM    7  C   UNL     1      41.362 -16.348  -0.307  1.00  0.00     0.262 C 
HETATM    8  C   UNL     1      40.985 -15.487  -1.529  1.00  0.00     0.263 C 
ENDROOT
BRANCH   5   9
HETATM    9  C   UNL     1      40.833 -17.026   2.040  1.00  0.00     0.238 C 
BRANCH   9  10
HETATM   10  C   UNL     1      41.434 -16.098   3.088  1.00  0.00     0.070 C 
BRANCH  10  11
HETATM   11  C   UNL     1      42.965 -16.262   3.151  1.00  0.00     0.222 C 
HETATM   12  O   UNL     1      43.287 -17.449   2.445  1.00  0.00    -0.334 OA
HETATM   13  C   UNL     1      43.773 -18.477   3.201  1.00  0.00     0.099 A 
HETATM   14  C   UNL     1      44.119 -18.363   4.550  1.00  0.00     0.068 A 
HETATM   15  C   UNL     1      43.921 -19.695   2.540  1.00  0.00     0.075 A 
HETATM   16  N   UNL     1      43.956 -17.149   5.215  1.00  0.00    -0.323 N 
HETATM   17  C   UNL     1      44.618 -19.465   5.246  1.00  0.00     0.035 A 
HETATM   18  C   UNL     1      43.402 -16.062   4.608  1.00  0.00     0.251 C 
HETATM   19  H   UNL     1      44.236 -17.046   6.185  1.00  0.00     0.169 HD
HETATM   20  O   UNL     1      43.190 -15.009   5.203  1.00  0.00    -0.270 OA
HETATM   21  C   UNL     1      44.754 -20.697   4.595  1.00  0.00     0.038 A 
HETATM   22  C   UNL     1      44.400 -20.807   3.245  1.00  0.00     0.105 A 
BRANCH  22  23
HETATM   23  N   UNL     1      44.496 -22.101   2.562  1.00  0.00    -0.116 N 
HETATM   24  O   UNL     1      44.259 -22.116   1.344  1.00  0.00    -0.532 OA
HETATM   25  O   UNL     1      44.778 -23.093   3.243  1.00  0.00    -0.532 OA
ENDBRANCH  22  23
ENDBRANCH  10  11
ENDBRANCH   9  10
ENDBRANCH   5   9
BRANCH   1  26
HETATM   26  C   UNL     1      41.946 -13.212  -0.746  1.00  0.00     0.273 C 
BRANCH  26  27
HETATM   27  C   UNL     1      42.196 -12.026  -1.631  1.00  0.00    -0.030 A 
HETATM   28  C   UNL     1      42.846 -10.878  -1.116  1.00  0.00     0.012 A 
HETATM   29  C   UNL     1      43.108  -9.771  -1.931  1.00  0.00     0.040 A 
HETATM   30  C   UNL     1      42.705  -9.832  -3.245  1.00  0.00     0.105 A 
HETATM   31  C   UNL     1      42.065 -10.935  -3.752  1.00  0.00     0.105 A 
HETATM   32  O   UNL     1      42.870  -8.856  -4.173  1.00  0.00    -0.323 OA
HETATM   33  C   UNL     1      41.793 -12.044  -2.978  1.00  0.00     0.048 A 
HETATM   34  O   UNL     1      41.747 -10.792  -5.064  1.00  0.00    -0.323 OA
HETATM   35  C   UNL     1      42.208  -9.443  -5.315  1.00  0.00     0.352 A 
ENDBRANCH  26  27
ENDBRANCH   1  26
TORSDOF 6
ENDMDL
MODEL 8
REMARK VINA RESULT:      -8.5      1.915      2.493
REMARK  6 active torsions:
REMARK  status: ('A' for Active; 'I' for Inactive)
REMARK    1  A    between atoms: C_2  and  C_3 
REMARK    2  A    between atoms: C_3  and  N_4 
REMARK    3  A    between atoms: N_8  and  C_10 
REMARK    4  A    between atoms: C_10  and  C_11 
REMARK    5  A    between atoms: C_11  and  C_12 
REMARK    6  A    between atoms: C_20  and  N_21 
ROOT
HETATM    1  N   UNL     1      38.714 -13.217   1.343  1.00  0.00    -0.064 N 
HETATM    2  H   UNL     1      37.808 -13.054   0.874  1.00  0.00     0.280 HD
HETATM    3  C   UNL     1      38.739 -12.326   2.577  1.00  0.00     0.263 C 
HETATM    4  C   UNL     1      39.954 -12.635   3.495  1.00  0.00     0.262 C 
HETATM    5  N   UNL     1      40.088 -14.127   3.821  1.00  0.00    -0.068 N 
HETATM    6  H   UNL     1      39.338 -14.381   4.486  1.00  0.00     0.280 HD
HETATM    7  C   UNL     1      39.945 -15.046   2.595  1.00  0.00     0.262 C 
HETATM    8  C   UNL     1      38.712 -14.687   1.739  1.00  0.00     0.263 C 
ENDROOT
BRANCH   5   9
HETATM    9  C   UNL     1      41.404 -14.467   4.540  1.00  0.00     0.238 C 
BRANCH   9  10
HETATM   10  C   UNL     1      41.702 -15.960   4.492  1.00  0.00     0.070 C 
BRANCH  10  11
HETATM   11  C   UNL     1      43.221 -16.213   4.430  1.00  0.00     0.222 C 
HETATM   12  O   UNL     1      43.437 -17.222   3.458  1.00  0.00    -0.334 OA
HETATM   13  C   UNL     1      43.889 -18.419   3.934  1.00  0.00     0.099 A 
HETATM   14  C   UNL     1      44.299 -18.635   5.253  1.00  0.00     0.068 A 
HETATM   15  C   UNL     1      43.931 -19.461   3.009  1.00  0.00     0.075 A 
HETATM   16  N   UNL     1      44.242 -17.597   6.182  1.00  0.00    -0.323 N 
HETATM   17  C   UNL     1      44.757 -19.891   5.653  1.00  0.00     0.035 A 
HETATM   18  C   UNL     1      43.733 -16.374   5.868  1.00  0.00     0.251 C 
HETATM   19  H   UNL     1      44.570 -17.733   7.134  1.00  0.00     0.169 HD
HETATM   20  O   UNL     1      43.614 -15.474   6.696  1.00  0.00    -0.270 OA
HETATM   21  C   UNL     1      44.787 -20.947   4.735  1.00  0.00     0.038 A 
HETATM   22  C   UNL     1      44.369 -20.727   3.417  1.00  0.00     0.105 A 
BRANCH  22  23
HETATM   23  N   UNL     1      44.353 -21.835   2.455  1.00  0.00    -0.116 N 
HETATM   24  O   UNL     1      44.789 -22.928   2.846  1.00  0.00    -0.532 OA
HETATM   25  O   UNL     1      43.934 -21.602   1.316  1.00  0.00    -0.532 OA
ENDBRANCH  22  23
ENDBRANCH  10  11
ENDBRANCH   9  10
ENDBRANCH   5   9
BRANCH   1  26
HETATM   26  C   UNL     1      39.745 -12.800   0.296  1.00  0.00     0.273 C 
BRANCH  26  27
HETATM   27  C   UNL     1      39.806 -13.704  -0.902  1.00  0.00    -0.030 A 
HETATM   28  C   UNL     1      41.010 -14.377  -1.224  1.00  0.00     0.012 A 
HETATM   29  C   UNL     1      41.081 -15.240  -2.323  1.00  0.00     0.040 A 
HETATM   30  C   UNL     1      39.946 -15.406  -3.084  1.00  0.00     0.105 A 
HETATM   31  C   UNL     1      38.778 -14.750  -2.786  1.00  0.00     0.105 A 
HETATM   32  O   UNL     1      39.834 -16.195  -4.181  1.00  0.00    -0.323 OA
HETATM   33  C   UNL     1      38.672 -13.895  -1.710  1.00  0.00     0.048 A 
HETATM   34  O   UNL     1      37.782 -15.045  -3.661  1.00  0.00    -0.323 OA
HETATM   35  C   UNL     1      38.473 -15.921  -4.583  1.00  0.00     0.352 A 
ENDBRANCH  26  27
ENDBRANCH   1  26
TORSDOF 6
ENDMDL
MODEL 9
REMARK VINA RESULT:      -8.3      2.754      9.431
REMARK  6 active torsions:
REMARK  status: ('A' for Active; 'I' for Inactive)
REMARK    1  A    between atoms: C_2  and  C_3 
REMARK    2  A    between atoms: C_3  and  N_4 
REMARK    3  A    between atoms: N_8  and  C_10 
REMARK    4  A    between atoms: C_10  and  C_11 
REMARK    5  A    between atoms: C_11  and  C_12 
REMARK    6  A    between atoms: C_20  and  N_21 
ROOT
HETATM    1  N   UNL     1      41.853 -17.366   1.030  1.00  0.00    -0.064 N 
HETATM    2  H   UNL     1      41.745 -18.338   0.697  1.00  0.00     0.280 HD
HETATM    3  C   UNL     1      41.561 -16.457  -0.155  1.00  0.00     0.263 C 
HETATM    4  C   UNL     1      41.472 -14.963   0.264  1.00  0.00     0.262 C 
HETATM    5  N   UNL     1      40.528 -14.734   1.451  1.00  0.00    -0.068 N 
HETATM    6  H   UNL     1      39.556 -14.848   1.117  1.00  0.00     0.280 HD
HETATM    7  C   UNL     1      40.736 -15.726   2.609  1.00  0.00     0.262 C 
HETATM    8  C   UNL     1      40.803 -17.187   2.119  1.00  0.00     0.263 C 
ENDROOT
BRANCH   5   9
HETATM    9  C   UNL     1      40.605 -13.303   2.009  1.00  0.00     0.238 C 
BRANCH   9  10
HETATM   10  C   UNL     1      39.219 -12.712   2.233  1.00  0.00     0.070 C 
BRANCH  10  11
HETATM   11  C   UNL     1      38.784 -11.862   1.023  1.00  0.00     0.222 C 
HETATM   12  O   UNL     1      38.185 -12.744   0.088  1.00  0.00    -0.334 OA
HETATM   13  C   UNL     1      38.868 -12.926  -1.080  1.00  0.00     0.099 A 
HETATM   14  C   UNL     1      39.991 -12.184  -1.455  1.00  0.00     0.068 A 
HETATM   15  C   UNL     1      38.374 -13.922  -1.919  1.00  0.00     0.075 A 
HETATM   16  N   UNL     1      40.495 -11.199  -0.608  1.00  0.00    -0.323 N 
HETATM   17  C   UNL     1      40.625 -12.431  -2.674  1.00  0.00     0.035 A 
HETATM   18  C   UNL     1      39.965 -10.967   0.625  1.00  0.00     0.251 C 
HETATM   19  H   UNL     1      41.290 -10.630  -0.886  1.00  0.00     0.169 HD
HETATM   20  O   UNL     1      40.443 -10.149   1.408  1.00  0.00    -0.270 OA
HETATM   21  C   UNL     1      40.146 -13.441  -3.517  1.00  0.00     0.038 A 
HETATM   22  C   UNL     1      39.024 -14.186  -3.132  1.00  0.00     0.105 A 
BRANCH  22  23
HETATM   23  N   UNL     1      38.537 -15.276  -3.984  1.00  0.00    -0.116 N 
HETATM   24  O   UNL     1      39.389 -16.029  -4.480  1.00  0.00    -0.532 OA
HETATM   25  O   UNL     1      37.318 -15.358  -4.174  1.00  0.00    -0.532 OA
ENDBRANCH  22  23
ENDBRANCH  10  11
ENDBRANCH   9  10
ENDBRANCH   5   9
BRANCH   1  26
HETATM   26  C   UNL     1      43.311 -17.296   1.480  1.00  0.00     0.273 C 
BRANCH  26  27
HETATM   27  C   UNL     1      43.724 -18.403   2.407  1.00  0.00    -0.030 A 
HETATM   28  C   UNL     1      44.043 -18.118   3.757  1.00  0.00     0.012 A 
HETATM   29  C   UNL     1      44.409 -19.138   4.642  1.00  0.00     0.040 A 
HETATM   30  C   UNL     1      44.455 -20.424   4.155  1.00  0.00     0.105 A 
HETATM   31  C   UNL     1      44.157 -20.710   2.846  1.00  0.00     0.105 A 
HETATM   32  O   UNL     1      44.791 -21.531   4.864  1.00  0.00    -0.323 OA
HETATM   33  C   UNL     1      43.791 -19.729   1.948  1.00  0.00     0.048 A 
HETATM   34  O   UNL     1      44.268 -22.034   2.567  1.00  0.00    -0.323 OA
HETATM   35  C   UNL     1      44.729 -22.548   3.839  1.00  0.00     0.352 A 
ENDBRANCH  26  27
ENDBRANCH   1  26
TORSDOF 6
ENDMDL
MODEL 10
REMARK VINA RESULT:      -8.2      3.044      7.995
REMARK  6 active torsions:
REMARK  status: ('A' for Active; 'I' for Inactive)
REMARK    1  A    between atoms: C_2  and  C_3 
REMARK    2  A    between atoms: C_3  and  N_4 
REMARK    3  A    between atoms: N_8  and  C_10 
REMARK    4  A    between atoms: C_10  and  C_11 
REMARK    5  A    between atoms: C_11  and  C_12 
REMARK    6  A    between atoms: C_20  and  N_21 
ROOT
HETATM    1  N   UNL     1      41.501 -17.263   0.940  1.00  0.00    -0.064 N 
HETATM    2  H   UNL     1      41.527 -18.282   0.773  1.00  0.00     0.280 HD
HETATM    3  C   UNL     1      41.338 -16.596  -0.419  1.00  0.00     0.263 C 
HETATM    4  C   UNL     1      41.064 -15.073  -0.292  1.00  0.00     0.262 C 
HETATM    5  N   UNL     1      39.924 -14.753   0.681  1.00  0.00    -0.068 N 
HETATM    6  H   UNL     1      39.031 -15.022   0.233  1.00  0.00     0.280 HD
HETATM    7  C   UNL     1      40.015 -15.513   2.016  1.00  0.00     0.262 C 
HETATM    8  C   UNL     1      40.276 -17.020   1.811  1.00  0.00     0.263 C 
ENDROOT
BRANCH   5   9
HETATM    9  C   UNL     1      39.795 -13.249   0.979  1.00  0.00     0.238 C 
BRANCH   9  10
HETATM   10  C   UNL     1      40.777 -12.426   0.157  1.00  0.00     0.070 C 
BRANCH  10  11
HETATM   11  C   UNL     1      41.804 -11.728   1.069  1.00  0.00     0.222 C 
HETATM   12  O   UNL     1      42.454 -12.741   1.819  1.00  0.00    -0.334 OA
HETATM   13  C   UNL     1      42.200 -12.744   3.160  1.00  0.00     0.099 A 
HETATM   14  C   UNL     1      41.501 -11.734   3.828  1.00  0.00     0.068 A 
HETATM   15  C   UNL     1      42.692 -13.840   3.866  1.00  0.00     0.075 A 
HETATM   16  N   UNL     1      40.994 -10.646   3.118  1.00  0.00    -0.323 N 
HETATM   17  C   UNL     1      41.293 -11.812   5.206  1.00  0.00     0.035 A 
HETATM   18  C   UNL     1      41.099 -10.555   1.764  1.00  0.00     0.251 C 
HETATM   19  H   UNL     1      40.515  -9.890   3.599  1.00  0.00     0.169 HD
HETATM   20  O   UNL     1      40.598  -9.636   1.121  1.00  0.00    -0.270 OA
HETATM   21  C   UNL     1      41.770 -12.917   5.921  1.00  0.00     0.038 A 
HETATM   22  C   UNL     1      42.463 -13.929   5.245  1.00  0.00     0.105 A 
BRANCH  22  23
HETATM   23  N   UNL     1      42.930 -15.114   5.973  1.00  0.00    -0.116 N 
HETATM   24  O   UNL     1      44.145 -15.186   6.214  1.00  0.00    -0.532 OA
HETATM   25  O   UNL     1      42.093 -15.972   6.274  1.00  0.00    -0.532 OA
ENDBRANCH  22  23
ENDBRANCH  10  11
ENDBRANCH   9  10
ENDBRANCH   5   9
BRANCH   1  26
HETATM   26  C   UNL     1      42.856 -16.966   1.582  1.00  0.00     0.273 C 
BRANCH  26  27
HETATM   27  C   UNL     1      43.401 -18.089   2.416  1.00  0.00    -0.030 A 
HETATM   28  C   UNL     1      43.829 -17.845   3.744  1.00  0.00     0.012 A 
HETATM   29  C   UNL     1      44.320 -18.882   4.545  1.00  0.00     0.040 A 
HETATM   30  C   UNL     1      44.381 -20.143   3.997  1.00  0.00     0.105 A 
HETATM   31  C   UNL     1      43.979 -20.388   2.707  1.00  0.00     0.105 A 
HETATM   32  O   UNL     1      44.831 -21.260   4.620  1.00  0.00    -0.323 OA
HETATM   33  C   UNL     1      43.488 -19.390   1.891  1.00  0.00     0.048 A 
HETATM   34  O   UNL     1      44.126 -21.692   2.358  1.00  0.00    -0.323 OA
HETATM   35  C   UNL     1      44.724 -22.235   3.559  1.00  0.00     0.352 A 
ENDBRANCH  26  27
ENDBRANCH   1  26
TORSDOF 6
ENDMDL
