MODEL 1
REMARK VINA RESULT:      -9.1      0.000      0.000
REMARK  7 active torsions:
REMARK  status: ('A' for Active; 'I' for Inactive)
REMARK    1  A    between atoms: C_8  and  C_9 
REMARK    2  A    between atoms: C_9  and  C_10 
REMARK       I    between atoms: C_10  and  N_11 
REMARK    3  A    between atoms: N_11  and  C_12 
REMARK    4  A    between atoms: N_11  and  C_27 
REMARK    5  A    between atoms: C_12  and  C_13 
REMARK    6  A    between atoms: C_12  and  C_22 
REMARK       I    between atoms: C_13  and  N_14 
REMARK    7  A    between atoms: N_14  and  C_15 
ROOT
HETATM    1  C   UNL     1      43.863 -14.127   6.072  1.00  0.00     0.229 C 
HETATM    2  N   UNL     1      43.153 -14.176   4.867  1.00  0.00    -0.299 N 
HETATM    3  O   UNL     1      43.657 -13.212   6.877  1.00  0.00    -0.273 OA
ENDROOT
BRANCH   2   4
HETATM    4  C   UNL     1      42.383 -12.997   4.369  1.00  0.00     0.225 C 
BRANCH   4   5
HETATM    5  C   UNL     1      42.020 -12.884   2.857  1.00  0.00     0.246 C 
HETATM    6  N   UNL     1      40.691 -13.023   2.511  1.00  0.00    -0.354 N 
HETATM    7  H   UNL     1      40.032 -12.655   3.196  1.00  0.00     0.162 HD
HETATM    8  O   UNL     1      42.892 -12.717   1.999  1.00  0.00    -0.271 OA
BRANCH   6   9
HETATM    9  C   UNL     1      40.262 -13.065   1.118  1.00  0.00     0.084 C 
HETATM   10  C   UNL     1      39.731 -14.459   0.761  1.00  0.00     0.025 C 
HETATM   11  C   UNL     1      38.332 -14.728   1.311  1.00  0.00     0.002 C 
HETATM   12  C   UNL     1      37.352 -13.633   0.902  1.00  0.00     0.000 C 
HETATM   13  C   UNL     1      37.849 -12.257   1.332  1.00  0.00     0.002 C 
HETATM   14  C   UNL     1      39.244 -11.965   0.784  1.00  0.00     0.025 C 
ENDBRANCH   6   9
ENDBRANCH   4   5
BRANCH   4  15
HETATM   15  C   UNL     1      41.198 -12.665   5.253  1.00  0.00     0.015 A 
HETATM   16  S   UNL     1      41.008 -11.042   5.810  1.00  0.00    -0.104 SA
HETATM   17  C   UNL     1      39.581 -11.418   6.662  1.00  0.00     0.050 A 
HETATM   18  C   UNL     1      39.243 -12.746   6.538  1.00  0.00     0.008 A 
HETATM   19  C   UNL     1      40.167 -13.460   5.719  1.00  0.00     0.017 A 
ENDBRANCH   4  15
ENDBRANCH   2   4
BRANCH   2  20
HETATM   20  C   UNL     1      42.937 -15.391   4.150  1.00  0.00     0.041 A 
HETATM   21  C   UNL     1      43.821 -15.769   3.129  1.00  0.00     0.069 A 
HETATM   22  C   UNL     1      43.565 -16.942   2.451  1.00  0.00     0.107 A 
HETATM   23  C   UNL     1      42.473 -17.726   2.742  1.00  0.00     0.105 A 
HETATM   24  O   UNL     1      44.323 -17.460   1.448  1.00  0.00    -0.323 OA
HETATM   25  O   UNL     1      42.408 -18.834   1.958  1.00  0.00    -0.323 OA
HETATM   26  C   UNL     1      41.575 -17.380   3.727  1.00  0.00     0.042 A 
HETATM   27  C   UNL     1      43.580 -18.656   1.135  1.00  0.00     0.352 A 
HETATM   28  C   UNL     1      41.808 -16.196   4.434  1.00  0.00     0.032 A 
ENDBRANCH   2  20
BRANCH   1  29
HETATM   29  C   UNL     1      44.799 -15.286   6.415  1.00  0.00     0.144 C 
BRANCH  29  30
HETATM   30  C   UNL     1      44.240 -16.601   6.897  1.00  0.00    -0.021 A 
HETATM   31  C   UNL     1      44.336 -17.955   6.412  1.00  0.00    -0.001 A 
HETATM   32  C   UNL     1      44.938 -18.598   5.310  1.00  0.00     0.014 A 
HETATM   33  C   UNL     1      43.650 -18.772   7.320  1.00  0.00     0.042 A 
HETATM   34  C   UNL     1      44.829 -19.987   5.148  1.00  0.00     0.001 A 
HETATM   35  C   UNL     1      44.137 -20.758   6.074  1.00  0.00     0.002 A 
HETATM   36  C   UNL     1      43.537 -20.163   7.181  1.00  0.00     0.030 A 
HETATM   37  N   UNL     1      43.158 -17.965   8.313  1.00  0.00    -0.365 N 
HETATM   38  H   UNL     1      42.630 -18.293   9.110  1.00  0.00     0.165 HD
HETATM   39  C   UNL     1      43.505 -16.670   8.074  1.00  0.00     0.097 A 
ENDBRANCH  29  30
ENDBRANCH   1  29
TORSDOF 7
ENDMDL
MODEL 2
REMARK VINA RESULT:      -8.3      2.731      7.972
REMARK  7 active torsions:
REMARK  status: ('A' for Active; 'I' for Inactive)
REMARK    1  A    between atoms: C_8  and  C_9 
REMARK    2  A    between atoms: C_9  and  C_10 
REMARK       I    between atoms: C_10  and  N_11 
REMARK    3  A    between atoms: N_11  and  C_12 
REMARK    4  A    between atoms: N_11  and  C_27 
REMARK    5  A    between atoms: C_12  and  C_13 
REMARK    6  A    between atoms: C_12  and  C_22 
REMARK       I    between atoms: C_13  and  N_14 
REMARK    7  A    between atoms: N_14  and  C_15 
ROOT
HETATM    1  C   UNL     1      40.445 -16.203   1.748  1.00  0.00     0.229 C 
HETATM    2  N   UNL     1      41.235 -16.056   2.894  1.00  0.00    -0.299 N 
HETATM    3  O   UNL     1      40.060 -17.324   1.399  1.00  0.00    -0.273 OA
ENDROOT
BRANCH   2   4
HETATM    4  C   UNL     1      41.897 -17.230   3.538  1.00  0.00     0.225 C 
BRANCH   4   5
HETATM    5  C   UNL     1      43.162 -17.868   2.887  1.00  0.00     0.246 C 
HETATM    6  N   UNL     1      43.434 -19.187   3.189  1.00  0.00    -0.354 N 
HETATM    7  H   UNL     1      42.611 -19.772   3.321  1.00  0.00     0.162 HD
HETATM    8  O   UNL     1      43.912 -17.207   2.163  1.00  0.00    -0.271 OA
BRANCH   6   9
HETATM    9  C   UNL     1      44.659 -19.838   2.739  1.00  0.00     0.084 C 
HETATM   10  C   UNL     1      45.443 -20.395   3.936  1.00  0.00     0.025 C 
HETATM   11  C   UNL     1      44.841 -21.679   4.502  1.00  0.00     0.002 C 
HETATM   12  C   UNL     1      44.652 -22.733   3.416  1.00  0.00     0.000 C 
HETATM   13  C   UNL     1      43.805 -22.198   2.266  1.00  0.00     0.002 C 
HETATM   14  C   UNL     1      44.396 -20.918   1.680  1.00  0.00     0.025 C 
ENDBRANCH   6   9
ENDBRANCH   4   5
BRANCH   4  15
HETATM   15  C   UNL     1      42.071 -17.047   5.033  1.00  0.00     0.015 A 
HETATM   16  S   UNL     1      43.612 -16.549   5.633  1.00  0.00    -0.104 SA
HETATM   17  C   UNL     1      43.071 -16.555   7.249  1.00  0.00     0.050 A 
HETATM   18  C   UNL     1      41.751 -16.928   7.348  1.00  0.00     0.008 A 
HETATM   19  C   UNL     1      41.173 -17.199   6.073  1.00  0.00     0.017 A 
ENDBRANCH   4  15
ENDBRANCH   2   4
BRANCH   2  20
HETATM   20  C   UNL     1      41.289 -14.842   3.643  1.00  0.00     0.041 A 
HETATM   21  C   UNL     1      40.203 -14.464   4.446  1.00  0.00     0.069 A 
HETATM   22  C   UNL     1      40.291 -13.276   5.139  1.00  0.00     0.107 A 
HETATM   23  C   UNL     1      41.396 -12.463   5.050  1.00  0.00     0.105 A 
HETATM   24  O   UNL     1      39.340 -12.770   5.969  1.00  0.00    -0.323 OA
HETATM   25  O   UNL     1      41.279 -11.344   5.811  1.00  0.00    -0.323 OA
HETATM   26  C   UNL     1      42.476 -12.793   4.260  1.00  0.00     0.042 A 
HETATM   27  C   UNL     1      39.970 -11.540   6.385  1.00  0.00     0.352 A 
HETATM   28  C   UNL     1      42.417 -13.993   3.545  1.00  0.00     0.032 A 
ENDBRANCH   2  20
BRANCH   1  29
HETATM   29  C   UNL     1      39.976 -14.943   1.020  1.00  0.00     0.144 C 
BRANCH  29  30
HETATM   30  C   UNL     1      40.778 -14.383  -0.127  1.00  0.00    -0.021 A 
HETATM   31  C   UNL     1      41.493 -13.147  -0.326  1.00  0.00    -0.001 A 
HETATM   32  C   UNL     1      41.713 -11.970   0.420  1.00  0.00     0.014 A 
HETATM   33  C   UNL     1      42.102 -13.216  -1.586  1.00  0.00     0.042 A 
HETATM   34  C   UNL     1      42.496 -10.930  -0.102  1.00  0.00     0.001 A 
HETATM   35  C   UNL     1      43.081 -11.043  -1.357  1.00  0.00     0.002 A 
HETATM   36  C   UNL     1      42.896 -12.192  -2.122  1.00  0.00     0.030 A 
HETATM   37  N   UNL     1      41.781 -14.431  -2.135  1.00  0.00    -0.365 N 
HETATM   38  H   UNL     1      42.099 -14.754  -3.038  1.00  0.00     0.165 HD
HETATM   39  C   UNL     1      40.995 -15.136  -1.275  1.00  0.00     0.097 A 
ENDBRANCH  29  30
ENDBRANCH   1  29
TORSDOF 7
ENDMDL
MODEL 3
REMARK VINA RESULT:      -8.2      2.618      5.558
REMARK  7 active torsions:
REMARK  status: ('A' for Active; 'I' for Inactive)
REMARK    1  A    between atoms: C_8  and  C_9 
REMARK    2  A    between atoms: C_9  and  C_10 
REMARK       I    between atoms: C_10  and  N_11 
REMARK    3  A    between atoms: N_11  and  C_12 
REMARK    4  A    between atoms: N_11  and  C_27 
REMARK    5  A    between atoms: C_12  and  C_13 
REMARK    6  A    between atoms: C_12  and  C_22 
REMARK       I    between atoms: C_13  and  N_14 
REMARK    7  A    between atoms: N_14  and  C_15 
ROOT
HETATM    1  C   UNL     1      42.317 -12.961   2.935  1.00  0.00     0.229 C 
HETATM    2  N   UNL     1      41.181 -12.235   3.312  1.00  0.00    -0.299 N 
HETATM    3  O   UNL     1      42.746 -12.885   1.779  1.00  0.00    -0.273 OA
ENDROOT
BRANCH   2   4
HETATM    4  C   UNL     1      40.278 -11.618   2.294  1.00  0.00     0.225 C 
BRANCH   4   5
HETATM    5  C   UNL     1      40.873 -10.738   1.154  1.00  0.00     0.246 C 
HETATM    6  N   UNL     1      41.136 -11.354  -0.053  1.00  0.00    -0.354 N 
HETATM    7  H   UNL     1      40.482 -12.095  -0.304  1.00  0.00     0.162 HD
HETATM    8  O   UNL     1      41.136  -9.545   1.336  1.00  0.00    -0.271 OA
BRANCH   6   9
HETATM    9  C   UNL     1      41.813 -10.655  -1.139  1.00  0.00     0.084 C 
HETATM   10  C   UNL     1      43.082 -11.410  -1.556  1.00  0.00     0.025 C 
HETATM   11  C   UNL     1      42.793 -12.653  -2.394  1.00  0.00     0.002 C 
HETATM   12  C   UNL     1      41.916 -12.324  -3.597  1.00  0.00     0.000 C 
HETATM   13  C   UNL     1      40.619 -11.646  -3.167  1.00  0.00     0.002 C 
HETATM   14  C   UNL     1      40.887 -10.394  -2.336  1.00  0.00     0.025 C 
ENDBRANCH   6   9
ENDBRANCH   4   5
BRANCH   4  15
HETATM   15  C   UNL     1      39.251 -12.598   1.764  1.00  0.00     0.015 A 
HETATM   16  S   UNL     1      37.790 -11.979   1.081  1.00  0.00    -0.104 SA
HETATM   17  C   UNL     1      37.200 -13.539   0.734  1.00  0.00     0.050 A 
HETATM   18  C   UNL     1      38.080 -14.521   1.124  1.00  0.00     0.008 A 
HETATM   19  C   UNL     1      39.264 -13.979   1.706  1.00  0.00     0.017 A 
ENDBRANCH   4  15
ENDBRANCH   2   4
BRANCH   2  20
HETATM   20  C   UNL     1      40.923 -11.854   4.664  1.00  0.00     0.041 A 
HETATM   21  C   UNL     1      41.633 -10.790   5.238  1.00  0.00     0.069 A 
HETATM   22  C   UNL     1      41.365 -10.465   6.551  1.00  0.00     0.107 A 
HETATM   23  C   UNL     1      40.442 -11.159   7.297  1.00  0.00     0.105 A 
HETATM   24  O   UNL     1      41.949  -9.458   7.254  1.00  0.00    -0.323 OA
HETATM   25  O   UNL     1      40.330 -10.678   8.562  1.00  0.00    -0.323 OA
HETATM   26  C   UNL     1      39.736 -12.220   6.772  1.00  0.00     0.042 A 
HETATM   27  C   UNL     1      41.294  -9.604   8.532  1.00  0.00     0.352 A 
HETATM   28  C   UNL     1      39.986 -12.572   5.442  1.00  0.00     0.032 A 
ENDBRANCH   2  20
BRANCH   1  29
HETATM   29  C   UNL     1      43.072 -13.742   4.010  1.00  0.00     0.144 C 
BRANCH  29  30
HETATM   30  C   UNL     1      42.904 -15.236   4.127  1.00  0.00    -0.021 A 
HETATM   31  C   UNL     1      43.245 -16.342   3.267  1.00  0.00    -0.001 A 
HETATM   32  C   UNL     1      43.826 -16.493   1.990  1.00  0.00     0.014 A 
HETATM   33  C   UNL     1      42.896 -17.519   3.943  1.00  0.00     0.042 A 
HETATM   34  C   UNL     1      44.021 -17.770   1.442  1.00  0.00     0.001 A 
HETATM   35  C   UNL     1      43.658 -18.909   2.150  1.00  0.00     0.002 A 
HETATM   36  C   UNL     1      43.092 -18.804   3.417  1.00  0.00     0.030 A 
HETATM   37  N   UNL     1      42.369 -17.157   5.157  1.00  0.00    -0.365 N 
HETATM   38  H   UNL     1      42.044 -17.809   5.858  1.00  0.00     0.165 HD
HETATM   39  C   UNL     1      42.371 -15.801   5.279  1.00  0.00     0.097 A 
ENDBRANCH  29  30
ENDBRANCH   1  29
TORSDOF 7
ENDMDL
MODEL 4
REMARK VINA RESULT:      -8.2      2.628      4.554
REMARK  7 active torsions:
REMARK  status: ('A' for Active; 'I' for Inactive)
REMARK    1  A    between atoms: C_8  and  C_9 
REMARK    2  A    between atoms: C_9  and  C_10 
REMARK       I    between atoms: C_10  and  N_11 
REMARK    3  A    between atoms: N_11  and  C_12 
REMARK    4  A    between atoms: N_11  and  C_27 
REMARK    5  A    between atoms: C_12  and  C_13 
REMARK    6  A    between atoms: C_12  and  C_22 
REMARK       I    between atoms: C_13  and  N_14 
REMARK    7  A    between atoms: N_14  and  C_15 
ROOT
HETATM    1  C   UNL     1      41.157 -15.692   1.264  1.00  0.00     0.229 C 
HETATM    2  N   UNL     1      41.374 -14.467   1.905  1.00  0.00    -0.299 N 
HETATM    3  O   UNL     1      41.163 -15.756   0.030  1.00  0.00    -0.273 OA
ENDROOT
BRANCH   2   4
HETATM    4  C   UNL     1      41.299 -13.174   1.159  1.00  0.00     0.225 C 
BRANCH   4   5
HETATM    5  C   UNL     1      41.667 -13.123  -0.354  1.00  0.00     0.246 C 
HETATM    6  N   UNL     1      40.647 -13.329  -1.262  1.00  0.00    -0.354 N 
HETATM    7  H   UNL     1      39.740 -12.968  -0.972  1.00  0.00     0.162 HD
HETATM    8  O   UNL     1      42.830 -12.945  -0.726  1.00  0.00    -0.271 OA
BRANCH   6   9
HETATM    9  C   UNL     1      40.906 -13.432  -2.694  1.00  0.00     0.084 C 
HETATM   10  C   UNL     1      41.418 -14.834  -3.049  1.00  0.00     0.025 C 
HETATM   11  C   UNL     1      40.314 -15.890  -3.064  1.00  0.00     0.002 C 
HETATM   12  C   UNL     1      39.155 -15.472  -3.962  1.00  0.00     0.000 C 
HETATM   13  C   UNL     1      38.599 -14.112  -3.553  1.00  0.00     0.002 C 
HETATM   14  C   UNL     1      39.687 -13.040  -3.541  1.00  0.00     0.025 C 
ENDBRANCH   6   9
ENDBRANCH   4   5
BRANCH   4  15
HETATM   15  C   UNL     1      40.020 -12.414   1.449  1.00  0.00     0.015 A 
HETATM   16  S   UNL     1      40.043 -10.690   1.362  1.00  0.00    -0.104 SA
HETATM   17  C   UNL     1      38.393 -10.569   1.769  1.00  0.00     0.050 A 
HETATM   18  C   UNL     1      37.822 -11.804   1.972  1.00  0.00     0.008 A 
HETATM   19  C   UNL     1      38.755 -12.865   1.777  1.00  0.00     0.017 A 
ENDBRANCH   4  15
ENDBRANCH   2   4
BRANCH   2  20
HETATM   20  C   UNL     1      41.885 -14.372   3.235  1.00  0.00     0.041 A 
HETATM   21  C   UNL     1      43.245 -14.107   3.445  1.00  0.00     0.069 A 
HETATM   22  C   UNL     1      43.700 -14.040   4.745  1.00  0.00     0.107 A 
HETATM   23  C   UNL     1      42.863 -14.238   5.818  1.00  0.00     0.105 A 
HETATM   24  O   UNL     1      44.979 -13.780   5.126  1.00  0.00    -0.323 OA
HETATM   25  O   UNL     1      43.510 -14.128   7.007  1.00  0.00    -0.323 OA
HETATM   26  C   UNL     1      41.524 -14.516   5.650  1.00  0.00     0.042 A 
HETATM   27  C   UNL     1      44.853 -13.845   6.562  1.00  0.00     0.352 A 
HETATM   28  C   UNL     1      41.033 -14.589   4.343  1.00  0.00     0.032 A 
ENDBRANCH   2  20
BRANCH   1  29
HETATM   29  C   UNL     1      41.036 -16.951   2.121  1.00  0.00     0.144 C 
BRANCH  29  30
HETATM   30  C   UNL     1      42.268 -17.727   2.515  1.00  0.00    -0.021 A 
HETATM   31  C   UNL     1      42.796 -18.171   3.780  1.00  0.00    -0.001 A 
HETATM   32  C   UNL     1      42.423 -18.048   5.136  1.00  0.00     0.014 A 
HETATM   33  C   UNL     1      43.956 -18.911   3.512  1.00  0.00     0.042 A 
HETATM   34  C   UNL     1      43.199 -18.636   6.146  1.00  0.00     0.001 A 
HETATM   35  C   UNL     1      44.343 -19.360   5.832  1.00  0.00     0.002 A 
HETATM   36  C   UNL     1      44.740 -19.514   4.506  1.00  0.00     0.030 A 
HETATM   37  N   UNL     1      44.132 -18.923   2.152  1.00  0.00    -0.365 N 
HETATM   38  H   UNL     1      44.888 -19.398   1.676  1.00  0.00     0.165 HD
HETATM   39  C   UNL     1      43.132 -18.224   1.547  1.00  0.00     0.097 A 
ENDBRANCH  29  30
ENDBRANCH   1  29
TORSDOF 7
ENDMDL
MODEL 5
REMARK VINA RESULT:      -8.1      2.613      6.660
REMARK  7 active torsions:
REMARK  status: ('A' for Active; 'I' for Inactive)
REMARK    1  A    between atoms: C_8  and  C_9 
REMARK    2  A    between atoms: C_9  and  C_10 
REMARK       I    between atoms: C_10  and  N_11 
REMARK    3  A    between atoms: N_11  and  C_12 
REMARK    4  A    between atoms: N_11  and  C_27 
REMARK    5  A    between atoms: C_12  and  C_13 
REMARK    6  A    between atoms: C_12  and  C_22 
REMARK       I    between atoms: C_13  and  N_14 
REMARK    7  A    between atoms: N_14  and  C_15 
ROOT
HETATM    1  C   UNL     1      39.833 -12.432   5.086  1.00  0.00     0.229 C 
HETATM    2  N   UNL     1      40.753 -13.379   4.623  1.00  0.00    -0.299 N 
HETATM    3  O   UNL     1      39.178 -11.759   4.283  1.00  0.00    -0.273 OA
ENDROOT
BRANCH   2   4
HETATM    4  C   UNL     1      41.210 -13.390   3.200  1.00  0.00     0.225 C 
BRANCH   4   5
HETATM    5  C   UNL     1      42.508 -14.155   2.802  1.00  0.00     0.246 C 
HETATM    6  N   UNL     1      42.381 -15.488   2.466  1.00  0.00    -0.354 N 
HETATM    7  H   UNL     1      41.513 -15.725   1.987  1.00  0.00     0.162 HD
HETATM    8  O   UNL     1      43.611 -13.602   2.826  1.00  0.00    -0.271 OA
BRANCH   6   9
HETATM    9  C   UNL     1      43.545 -16.327   2.206  1.00  0.00     0.084 C 
HETATM   10  C   UNL     1      43.945 -17.098   3.471  1.00  0.00     0.025 C 
HETATM   11  C   UNL     1      43.026 -18.281   3.768  1.00  0.00     0.002 C 
HETATM   12  C   UNL     1      42.901 -19.207   2.563  1.00  0.00     0.000 C 
HETATM   13  C   UNL     1      42.426 -18.448   1.328  1.00  0.00     0.002 C 
HETATM   14  C   UNL     1      43.338 -17.265   1.009  1.00  0.00     0.025 C 
ENDBRANCH   6   9
ENDBRANCH   4   5
BRANCH   4  15
HETATM   15  C   UNL     1      40.078 -13.671   2.233  1.00  0.00     0.015 A 
HETATM   16  S   UNL     1      39.943 -12.701   0.810  1.00  0.00    -0.104 SA
HETATM   17  C   UNL     1      38.564 -13.545   0.271  1.00  0.00     0.050 A 
HETATM   18  C   UNL     1      38.199 -14.544   1.143  1.00  0.00     0.008 A 
HETATM   19  C   UNL     1      39.076 -14.624   2.265  1.00  0.00     0.017 A 
ENDBRANCH   4  15
ENDBRANCH   2   4
BRANCH   2  20
HETATM   20  C   UNL     1      41.151 -14.511   5.397  1.00  0.00     0.041 A 
HETATM   21  C   UNL     1      42.417 -14.538   5.998  1.00  0.00     0.069 A 
HETATM   22  C   UNL     1      42.767 -15.657   6.723  1.00  0.00     0.107 A 
HETATM   23  C   UNL     1      41.919 -16.731   6.856  1.00  0.00     0.105 A 
HETATM   24  O   UNL     1      43.944 -15.842   7.378  1.00  0.00    -0.323 OA
HETATM   25  O   UNL     1      42.456 -17.726   7.608  1.00  0.00    -0.323 OA
HETATM   26  C   UNL     1      40.673 -16.747   6.267  1.00  0.00     0.042 A 
HETATM   27  C   UNL     1      43.744 -17.160   7.931  1.00  0.00     0.352 A 
HETATM   28  C   UNL     1      40.289 -15.625   5.526  1.00  0.00     0.032 A 
ENDBRANCH   2  20
BRANCH   1  29
HETATM   29  C   UNL     1      39.574 -12.342   6.590  1.00  0.00     0.144 C 
BRANCH  29  30
HETATM   30  C   UNL     1      40.277 -11.301   7.424  1.00  0.00    -0.021 A 
HETATM   31  C   UNL     1      39.866 -10.474   8.530  1.00  0.00    -0.001 A 
HETATM   32  C   UNL     1      38.672 -10.267   9.254  1.00  0.00     0.014 A 
HETATM   33  C   UNL     1      40.985  -9.735   8.937  1.00  0.00     0.042 A 
HETATM   34  C   UNL     1      38.632  -9.353  10.316  1.00  0.00     0.001 A 
HETATM   35  C   UNL     1      39.767  -8.641  10.685  1.00  0.00     0.002 A 
HETATM   36  C   UNL     1      40.967  -8.823  10.002  1.00  0.00     0.030 A 
HETATM   37  N   UNL     1      42.032 -10.089   8.125  1.00  0.00    -0.365 N 
HETATM   38  H   UNL     1      42.969  -9.719   8.204  1.00  0.00     0.165 HD
HETATM   39  C   UNL     1      41.624 -11.023   7.222  1.00  0.00     0.097 A 
ENDBRANCH  29  30
ENDBRANCH   1  29
TORSDOF 7
ENDMDL
MODEL 6
REMARK VINA RESULT:      -8.1      1.918      4.113
REMARK  7 active torsions:
REMARK  status: ('A' for Active; 'I' for Inactive)
REMARK    1  A    between atoms: C_8  and  C_9 
REMARK    2  A    between atoms: C_9  and  C_10 
REMARK       I    between atoms: C_10  and  N_11 
REMARK    3  A    between atoms: N_11  and  C_12 
REMARK    4  A    between atoms: N_11  and  C_27 
REMARK    5  A    between atoms: C_12  and  C_13 
REMARK    6  A    between atoms: C_12  and  C_22 
REMARK       I    between atoms: C_13  and  N_14 
REMARK    7  A    between atoms: N_14  and  C_15 
ROOT
HETATM    1  C   UNL     1      41.056 -14.833   4.892  1.00  0.00     0.229 C 
HETATM    2  N   UNL     1      41.805 -13.656   5.007  1.00  0.00    -0.299 N 
HETATM    3  O   UNL     1      40.523 -15.128   3.817  1.00  0.00    -0.273 OA
ENDROOT
BRANCH   2   4
HETATM    4  C   UNL     1      41.727 -12.581   3.973  1.00  0.00     0.225 C 
BRANCH   4   5
HETATM    5  C   UNL     1      41.880 -12.936   2.463  1.00  0.00     0.246 C 
HETATM    6  N   UNL     1      40.754 -12.836   1.671  1.00  0.00    -0.354 N 
HETATM    7  H   UNL     1      40.117 -12.083   1.929  1.00  0.00     0.162 HD
HETATM    8  O   UNL     1      42.955 -13.331   2.002  1.00  0.00    -0.271 OA
BRANCH   6   9
HETATM    9  C   UNL     1      40.756 -13.269   0.278  1.00  0.00     0.084 C 
HETATM   10  C   UNL     1      39.730 -14.390   0.062  1.00  0.00     0.025 C 
HETATM   11  C   UNL     1      38.290 -13.883   0.014  1.00  0.00     0.002 C 
HETATM   12  C   UNL     1      38.125 -12.767  -1.011  1.00  0.00     0.000 C 
HETATM   13  C   UNL     1      39.094 -11.620  -0.742  1.00  0.00     0.002 C 
HETATM   14  C   UNL     1      40.542 -12.106  -0.700  1.00  0.00     0.025 C 
ENDBRANCH   6   9
ENDBRANCH   4   5
BRANCH   4  15
HETATM   15  C   UNL     1      40.567 -11.635   4.209  1.00  0.00     0.015 A 
HETATM   16  S   UNL     1      40.902  -9.963   4.482  1.00  0.00    -0.104 SA
HETATM   17  C   UNL     1      39.250  -9.578   4.643  1.00  0.00     0.050 A 
HETATM   18  C   UNL     1      38.447 -10.685   4.497  1.00  0.00     0.008 A 
HETATM   19  C   UNL     1      39.204 -11.866   4.236  1.00  0.00     0.017 A 
ENDBRANCH   4  15
ENDBRANCH   2   4
BRANCH   2  20
HETATM   20  C   UNL     1      42.837 -13.491   5.980  1.00  0.00     0.041 A 
HETATM   21  C   UNL     1      42.693 -12.540   6.999  1.00  0.00     0.069 A 
HETATM   22  C   UNL     1      43.720 -12.401   7.907  1.00  0.00     0.107 A 
HETATM   23  C   UNL     1      44.867 -13.155   7.827  1.00  0.00     0.105 A 
HETATM   24  O   UNL     1      43.738 -11.541   8.960  1.00  0.00    -0.323 OA
HETATM   25  O   UNL     1      45.750 -12.863   8.817  1.00  0.00    -0.323 OA
HETATM   26  C   UNL     1      45.052 -14.089   6.831  1.00  0.00     0.042 A 
HETATM   27  C   UNL     1      45.031 -11.833   9.528  1.00  0.00     0.352 A 
HETATM   28  C   UNL     1      44.026 -14.253   5.894  1.00  0.00     0.032 A 
ENDBRANCH   2  20
BRANCH   1  29
HETATM   29  C   UNL     1      41.017 -15.791   6.083  1.00  0.00     0.144 C 
BRANCH  29  30
HETATM   30  C   UNL     1      41.983 -16.945   6.166  1.00  0.00    -0.021 A 
HETATM   31  C   UNL     1      42.615 -17.781   5.177  1.00  0.00    -0.001 A 
HETATM   32  C   UNL     1      42.578 -17.895   3.770  1.00  0.00     0.014 A 
HETATM   33  C   UNL     1      43.471 -18.658   5.856  1.00  0.00     0.042 A 
HETATM   34  C   UNL     1      43.360 -18.855   3.112  1.00  0.00     0.001 A 
HETATM   35  C   UNL     1      44.194 -19.705   3.828  1.00  0.00     0.002 A 
HETATM   36  C   UNL     1      44.267 -19.618   5.216  1.00  0.00     0.030 A 
HETATM   37  N   UNL     1      43.373 -18.376   7.195  1.00  0.00    -0.365 N 
HETATM   38  H   UNL     1      43.893 -18.851   7.920  1.00  0.00     0.165 HD
HETATM   39  C   UNL     1      42.492 -17.357   7.392  1.00  0.00     0.097 A 
ENDBRANCH  29  30
ENDBRANCH   1  29
TORSDOF 7
ENDMDL
MODEL 7
REMARK VINA RESULT:      -8.1      3.432      5.902
REMARK  7 active torsions:
REMARK  status: ('A' for Active; 'I' for Inactive)
REMARK    1  A    between atoms: C_8  and  C_9 
REMARK    2  A    between atoms: C_9  and  C_10 
REMARK       I    between atoms: C_10  and  N_11 
REMARK    3  A    between atoms: N_11  and  C_12 
REMARK    4  A    between atoms: N_11  and  C_27 
REMARK    5  A    between atoms: C_12  and  C_13 
REMARK    6  A    between atoms: C_12  and  C_22 
REMARK       I    between atoms: C_13  and  N_14 
REMARK    7  A    between atoms: N_14  and  C_15 
ROOT
HETATM    1  C   UNL     1      41.065 -15.786  -0.116  1.00  0.00     0.229 C 
HETATM    2  N   UNL     1      40.934 -14.528   0.483  1.00  0.00    -0.299 N 
HETATM    3  O   UNL     1      41.320 -15.876  -1.321  1.00  0.00    -0.273 OA
ENDROOT
BRANCH   2   4
HETATM    4  C   UNL     1      40.778 -13.288  -0.337  1.00  0.00     0.225 C 
BRANCH   4   5
HETATM    5  C   UNL     1      42.025 -12.625  -0.996  1.00  0.00     0.246 C 
HETATM    6  N   UNL     1      42.214 -11.275  -0.780  1.00  0.00    -0.354 N 
HETATM    7  H   UNL     1      41.919 -10.945   0.138  1.00  0.00     0.162 HD
HETATM    8  O   UNL     1      42.790 -13.273  -1.716  1.00  0.00    -0.271 OA
BRANCH   6   9
HETATM    9  C   UNL     1      43.272 -10.532  -1.455  1.00  0.00     0.084 C 
HETATM   10  C   UNL     1      42.835 -10.145  -2.874  1.00  0.00     0.025 C 
HETATM   11  C   UNL     1      41.851  -8.978  -2.902  1.00  0.00     0.002 C 
HETATM   12  C   UNL     1      42.389  -7.776  -2.134  1.00  0.00     0.000 C 
HETATM   13  C   UNL     1      42.745  -8.150  -0.699  1.00  0.00     0.002 C 
HETATM   14  C   UNL     1      43.737  -9.310  -0.650  1.00  0.00     0.025 C 
ENDBRANCH   6   9
ENDBRANCH   4   5
BRANCH   4  15
HETATM   15  C   UNL     1      39.617 -13.380  -1.306  1.00  0.00     0.015 A 
HETATM   16  S   UNL     1      39.879 -12.948  -2.957  1.00  0.00    -0.104 SA
HETATM   17  C   UNL     1      38.265 -13.285  -3.384  1.00  0.00     0.050 A 
HETATM   18  C   UNL     1      37.527 -13.716  -2.306  1.00  0.00     0.008 A 
HETATM   19  C   UNL     1      38.308 -13.782  -1.114  1.00  0.00     0.017 A 
ENDBRANCH   4  15
ENDBRANCH   2   4
BRANCH   2  20
HETATM   20  C   UNL     1      41.154 -14.310   1.877  1.00  0.00     0.041 A 
HETATM   21  C   UNL     1      42.447 -14.040   2.349  1.00  0.00     0.069 A 
HETATM   22  C   UNL     1      42.617 -13.853   3.704  1.00  0.00     0.107 A 
HETATM   23  C   UNL     1      41.566 -13.937   4.586  1.00  0.00     0.105 A 
HETATM   24  O   UNL     1      43.793 -13.571   4.324  1.00  0.00    -0.323 OA
HETATM   25  O   UNL     1      41.949 -13.720   5.871  1.00  0.00    -0.323 OA
HETATM   26  C   UNL     1      40.285 -14.216   4.162  1.00  0.00     0.042 A 
HETATM   27  C   UNL     1      43.364 -13.495   5.699  1.00  0.00     0.352 A 
HETATM   28  C   UNL     1      40.080 -14.410   2.792  1.00  0.00     0.032 A 
ENDBRANCH   2  20
BRANCH   1  29
HETATM   29  C   UNL     1      41.005 -17.026   0.776  1.00  0.00     0.144 C 
BRANCH  29  30
HETATM   30  C   UNL     1      42.200 -17.432   1.600  1.00  0.00    -0.021 A 
HETATM   31  C   UNL     1      42.392 -17.700   3.003  1.00  0.00    -0.001 A 
HETATM   32  C   UNL     1      41.587 -17.666   4.162  1.00  0.00     0.014 A 
HETATM   33  C   UNL     1      43.724 -18.099   3.174  1.00  0.00     0.042 A 
HETATM   34  C   UNL     1      42.123 -18.008   5.412  1.00  0.00     0.001 A 
HETATM   35  C   UNL     1      43.451 -18.397   5.534  1.00  0.00     0.002 A 
HETATM   36  C   UNL     1      44.276 -18.453   4.413  1.00  0.00     0.030 A 
HETATM   37  N   UNL     1      44.323 -18.080   1.940  1.00  0.00    -0.365 N 
HETATM   38  H   UNL     1      45.284 -18.336   1.765  1.00  0.00     0.165 HD
HETATM   39  C   UNL     1      43.425 -17.687   0.994  1.00  0.00     0.097 A 
ENDBRANCH  29  30
ENDBRANCH   1  29
TORSDOF 7
ENDMDL
MODEL 8
REMARK VINA RESULT:      -8.1      2.873      4.795
REMARK  7 active torsions:
REMARK  status: ('A' for Active; 'I' for Inactive)
REMARK    1  A    between atoms: C_8  and  C_9 
REMARK    2  A    between atoms: C_9  and  C_10 
REMARK       I    between atoms: C_10  and  N_11 
REMARK    3  A    between atoms: N_11  and  C_12 
REMARK    4  A    between atoms: N_11  and  C_27 
REMARK    5  A    between atoms: C_12  and  C_13 
REMARK    6  A    between atoms: C_12  and  C_22 
REMARK       I    between atoms: C_13  and  N_14 
REMARK    7  A    between atoms: N_14  and  C_15 
ROOT
HETATM    1  C   UNL     1      39.637 -13.248   3.470  1.00  0.00     0.229 C 
HETATM    2  N   UNL     1      40.343 -13.612   2.318  1.00  0.00    -0.299 N 
HETATM    3  O   UNL     1      38.830 -12.313   3.435  1.00  0.00    -0.273 OA
ENDROOT
BRANCH   2   4
HETATM    4  C   UNL     1      40.397 -12.716   1.123  1.00  0.00     0.225 C 
BRANCH   4   5
HETATM    5  C   UNL     1      41.664 -11.849   0.854  1.00  0.00     0.246 C 
HETATM    6  N   UNL     1      41.529 -10.776  -0.004  1.00  0.00    -0.354 N 
HETATM    7  H   UNL     1      40.624 -10.310   0.037  1.00  0.00     0.162 HD
HETATM    8  O   UNL     1      42.755 -12.135   1.356  1.00  0.00    -0.271 OA
BRANCH   6   9
HETATM    9  C   UNL     1      42.677  -9.983  -0.425  1.00  0.00     0.084 C 
HETATM   10  C   UNL     1      43.380 -10.645  -1.618  1.00  0.00     0.025 C 
HETATM   11  C   UNL     1      42.632 -10.456  -2.936  1.00  0.00     0.002 C 
HETATM   12  C   UNL     1      42.338  -8.985  -3.205  1.00  0.00     0.000 C 
HETATM   13  C   UNL     1      41.568  -8.353  -2.049  1.00  0.00     0.002 C 
HETATM   14  C   UNL     1      42.306  -8.523  -0.723  1.00  0.00     0.025 C 
ENDBRANCH   6   9
ENDBRANCH   4   5
BRANCH   4  15
HETATM   15  C   UNL     1      39.913 -13.404  -0.137  1.00  0.00     0.015 A 
HETATM   16  S   UNL     1      38.214 -13.497  -0.432  1.00  0.00    -0.104 SA
HETATM   17  C   UNL     1      38.435 -14.326  -1.903  1.00  0.00     0.050 A 
HETATM   18  C   UNL     1      39.766 -14.538  -2.180  1.00  0.00     0.008 A 
HETATM   19  C   UNL     1      40.616 -13.997  -1.170  1.00  0.00     0.017 A 
ENDBRANCH   4  15
ENDBRANCH   2   4
BRANCH   2  20
HETATM   20  C   UNL     1      40.868 -14.924   2.117  1.00  0.00     0.041 A 
HETATM   21  C   UNL     1      42.255 -15.124   2.072  1.00  0.00     0.069 A 
HETATM   22  C   UNL     1      42.720 -16.404   1.860  1.00  0.00     0.107 A 
HETATM   23  C   UNL     1      41.865 -17.467   1.683  1.00  0.00     0.105 A 
HETATM   24  O   UNL     1      44.027 -16.774   1.802  1.00  0.00    -0.323 OA
HETATM   25  O   UNL     1      42.527 -18.637   1.490  1.00  0.00    -0.323 OA
HETATM   26  C   UNL     1      40.497 -17.307   1.705  1.00  0.00     0.042 A 
HETATM   27  C   UNL     1      43.898 -18.191   1.559  1.00  0.00     0.352 A 
HETATM   28  C   UNL     1      39.995 -16.019   1.919  1.00  0.00     0.032 A 
ENDBRANCH   2  20
BRANCH   1  29
HETATM   29  C   UNL     1      39.799 -14.106   4.725  1.00  0.00     0.144 C 
BRANCH  29  30
HETATM   30  C   UNL     1      41.135 -14.198   5.419  1.00  0.00    -0.021 A 
HETATM   31  C   UNL     1      42.027 -15.292   5.709  1.00  0.00    -0.001 A 
HETATM   32  C   UNL     1      42.019 -16.689   5.507  1.00  0.00     0.014 A 
HETATM   33  C   UNL     1      43.162 -14.753   6.329  1.00  0.00     0.042 A 
HETATM   34  C   UNL     1      43.101 -17.477   5.929  1.00  0.00     0.001 A 
HETATM   35  C   UNL     1      44.205 -16.897   6.541  1.00  0.00     0.002 A 
HETATM   36  C   UNL     1      44.257 -15.521   6.749  1.00  0.00     0.030 A 
HETATM   37  N   UNL     1      42.979 -13.396   6.416  1.00  0.00    -0.365 N 
HETATM   38  H   UNL     1      43.650 -12.751   6.810  1.00  0.00     0.165 HD
HETATM   39  C   UNL     1      41.778 -13.053   5.875  1.00  0.00     0.097 A 
ENDBRANCH  29  30
ENDBRANCH   1  29
TORSDOF 7
ENDMDL
MODEL 9
REMARK VINA RESULT:      -8.0      2.919      5.238
REMARK  7 active torsions:
REMARK  status: ('A' for Active; 'I' for Inactive)
REMARK    1  A    between atoms: C_8  and  C_9 
REMARK    2  A    between atoms: C_9  and  C_10 
REMARK       I    between atoms: C_10  and  N_11 
REMARK    3  A    between atoms: N_11  and  C_12 
REMARK    4  A    between atoms: N_11  and  C_27 
REMARK    5  A    between atoms: C_12  and  C_13 
REMARK    6  A    between atoms: C_12  and  C_22 
REMARK       I    between atoms: C_13  and  N_14 
REMARK    7  A    between atoms: N_14  and  C_15 
ROOT
HETATM    1  C   UNL     1      43.257 -14.634   6.041  1.00  0.00     0.229 C 
HETATM    2  N   UNL     1      42.621 -15.755   5.494  1.00  0.00    -0.299 N 
HETATM    3  O   UNL     1      42.630 -13.582   6.202  1.00  0.00    -0.273 OA
ENDROOT
BRANCH   2   4
HETATM    4  C   UNL     1      41.302 -15.640   4.802  1.00  0.00     0.225 C 
BRANCH   4   5
HETATM    5  C   UNL     1      40.299 -14.519   5.212  1.00  0.00     0.246 C 
HETATM    6  N   UNL     1      40.185 -13.430   4.372  1.00  0.00    -0.354 N 
HETATM    7  H   UNL     1      40.293 -13.644   3.381  1.00  0.00     0.162 HD
HETATM    8  O   UNL     1      39.662 -14.584   6.268  1.00  0.00    -0.271 OA
BRANCH   6   9
HETATM    9  C   UNL     1      39.377 -12.269   4.726  1.00  0.00     0.084 C 
HETATM   10  C   UNL     1      40.217 -11.247   5.503  1.00  0.00     0.025 C 
HETATM   11  C   UNL     1      41.165 -10.448   4.612  1.00  0.00     0.002 C 
HETATM   12  C   UNL     1      40.422  -9.797   3.450  1.00  0.00     0.000 C 
HETATM   13  C   UNL     1      39.654 -10.831   2.634  1.00  0.00     0.002 C 
HETATM   14  C   UNL     1      38.693 -11.635   3.507  1.00  0.00     0.025 C 
ENDBRANCH   6   9
ENDBRANCH   4   5
BRANCH   4  15
HETATM   15  C   UNL     1      41.428 -15.751   3.296  1.00  0.00     0.015 A 
HETATM   16  S   UNL     1      42.678 -14.865   2.501  1.00  0.00    -0.104 SA
HETATM   17  C   UNL     1      42.226 -15.451   0.966  1.00  0.00     0.050 A 
HETATM   18  C   UNL     1      41.147 -16.301   1.038  1.00  0.00     0.008 A 
HETATM   19  C   UNL     1      40.696 -16.483   2.379  1.00  0.00     0.017 A 
ENDBRANCH   4  15
ENDBRANCH   2   4
BRANCH   2  20
HETATM   20  C   UNL     1      43.065 -17.089   5.738  1.00  0.00     0.041 A 
HETATM   21  C   UNL     1      43.647 -17.834   4.703  1.00  0.00     0.069 A 
HETATM   22  C   UNL     1      44.047 -19.125   4.978  1.00  0.00     0.107 A 
HETATM   23  C   UNL     1      43.877 -19.689   6.221  1.00  0.00     0.105 A 
HETATM   24  O   UNL     1      44.638 -19.976   4.098  1.00  0.00    -0.323 OA
HETATM   25  O   UNL     1      44.338 -20.965   6.278  1.00  0.00    -0.323 OA
HETATM   26  C   UNL     1      43.294 -18.993   7.258  1.00  0.00     0.042 A 
HETATM   27  C   UNL     1      44.813 -21.145   4.927  1.00  0.00     0.352 A 
HETATM   28  C   UNL     1      42.880 -17.681   7.010  1.00  0.00     0.032 A 
ENDBRANCH   2  20
BRANCH   1  29
HETATM   29  C   UNL     1      44.694 -14.784   6.541  1.00  0.00     0.144 C 
BRANCH  29  30
HETATM   30  C   UNL     1      45.394 -13.627   7.208  1.00  0.00    -0.021 A 
HETATM   31  C   UNL     1      45.107 -12.839   8.380  1.00  0.00    -0.001 A 
HETATM   32  C   UNL     1      44.077 -12.790   9.344  1.00  0.00     0.014 A 
HETATM   33  C   UNL     1      46.163 -11.932   8.542  1.00  0.00     0.042 A 
HETATM   34  C   UNL     1      44.126 -11.860  10.393  1.00  0.00     0.001 A 
HETATM   35  C   UNL     1      45.194 -10.979  10.513  1.00  0.00     0.002 A 
HETATM   36  C   UNL     1      46.235 -11.002   9.589  1.00  0.00     0.030 A 
HETATM   37  N   UNL     1      47.055 -12.151   7.523  1.00  0.00    -0.365 N 
HETATM   38  H   UNL     1      47.921 -11.644   7.400  1.00  0.00     0.165 HD
HETATM   39  C   UNL     1      46.610 -13.160   6.724  1.00  0.00     0.097 A 
ENDBRANCH  29  30
ENDBRANCH   1  29
TORSDOF 7
ENDMDL
MODEL 10
REMARK VINA RESULT:      -8.0      2.876      7.396
REMARK  7 active torsions:
REMARK  status: ('A' for Active; 'I' for Inactive)
REMARK    1  A    between atoms: C_8  and  C_9 
REMARK    2  A    between atoms: C_9  and  C_10 
REMARK       I    between atoms: C_10  and  N_11 
REMARK    3  A    between atoms: N_11  and  C_12 
REMARK    4  A    between atoms: N_11  and  C_27 
REMARK    5  A    between atoms: C_12  and  C_13 
REMARK    6  A    between atoms: C_12  and  C_22 
REMARK       I    between atoms: C_13  and  N_14 
REMARK    7  A    between atoms: N_14  and  C_15 
ROOT
HETATM    1  C   UNL     1      41.739 -12.576   2.177  1.00  0.00     0.229 C 
HETATM    2  N   UNL     1      40.503 -12.786   2.798  1.00  0.00    -0.299 N 
HETATM    3  O   UNL     1      42.733 -13.213   2.540  1.00  0.00    -0.273 OA
ENDROOT
BRANCH   2   4
HETATM    4  C   UNL     1      40.399 -13.520   4.095  1.00  0.00     0.225 C 
BRANCH   4   5
HETATM    5  C   UNL     1      40.651 -15.057   4.145  1.00  0.00     0.246 C 
HETATM    6  N   UNL     1      41.203 -15.647   3.025  1.00  0.00    -0.354 N 
HETATM    7  H   UNL     1      41.870 -15.063   2.522  1.00  0.00     0.162 HD
HETATM    8  O   UNL     1      40.332 -15.728   5.131  1.00  0.00    -0.271 OA
BRANCH   6   9
HETATM    9  C   UNL     1      41.358 -17.093   2.919  1.00  0.00     0.084 C 
HETATM   10  C   UNL     1      41.387 -17.523   1.446  1.00  0.00     0.025 C 
HETATM   11  C   UNL     1      42.718 -17.223   0.759  1.00  0.00     0.002 C 
HETATM   12  C   UNL     1      43.891 -17.807   1.537  1.00  0.00     0.000 C 
HETATM   13  C   UNL     1      43.902 -17.311   2.979  1.00  0.00     0.002 C 
HETATM   14  C   UNL     1      42.582 -17.611   3.687  1.00  0.00     0.025 C 
ENDBRANCH   6   9
ENDBRANCH   4   5
BRANCH   4  15
HETATM   15  C   UNL     1      41.109 -12.801   5.224  1.00  0.00     0.015 A 
HETATM   16  S   UNL     1      40.390 -11.375   5.881  1.00  0.00    -0.104 SA
HETATM   17  C   UNL     1      41.652 -11.164   7.006  1.00  0.00     0.050 A 
HETATM   18  C   UNL     1      42.608 -12.146   6.898  1.00  0.00     0.008 A 
HETATM   19  C   UNL     1      42.290 -13.094   5.881  1.00  0.00     0.017 A 
ENDBRANCH   4  15
ENDBRANCH   2   4
BRANCH   2  20
HETATM   20  C   UNL     1      39.259 -12.516   2.151  1.00  0.00     0.041 A 
HETATM   21  C   UNL     1      38.613 -11.289   2.360  1.00  0.00     0.069 A 
HETATM   22  C   UNL     1      37.406 -11.076   1.729  1.00  0.00     0.107 A 
HETATM   23  C   UNL     1      36.829 -12.029   0.924  1.00  0.00     0.105 A 
HETATM   24  O   UNL     1      36.658  -9.944   1.811  1.00  0.00    -0.323 OA
HETATM   25  O   UNL     1      35.645 -11.618   0.401  1.00  0.00    -0.323 OA
HETATM   26  C   UNL     1      37.426 -13.252   0.708  1.00  0.00     0.042 A 
HETATM   27  C   UNL     1      35.538 -10.297   0.973  1.00  0.00     0.352 A 
HETATM   28  C   UNL     1      38.652 -13.498   1.333  1.00  0.00     0.032 A 
ENDBRANCH   2  20
BRANCH   1  29
HETATM   29  C   UNL     1      41.799 -11.638   0.971  1.00  0.00     0.144 C 
BRANCH  29  30
HETATM   30  C   UNL     1      42.038 -12.187  -0.412  1.00  0.00    -0.021 A 
HETATM   31  C   UNL     1      41.609 -13.384  -1.091  1.00  0.00    -0.001 A 
HETATM   32  C   UNL     1      40.842 -14.521  -0.757  1.00  0.00     0.014 A 
HETATM   33  C   UNL     1      42.102 -13.321  -2.401  1.00  0.00     0.042 A 
HETATM   34  C   UNL     1      40.611 -15.529  -1.705  1.00  0.00     0.001 A 
HETATM   35  C   UNL     1      41.121 -15.423  -2.993  1.00  0.00     0.002 A 
HETATM   36  C   UNL     1      41.874 -14.313  -3.365  1.00  0.00     0.030 A 
HETATM   37  N   UNL     1      42.798 -12.145  -2.524  1.00  0.00    -0.365 N 
HETATM   38  H   UNL     1      43.252 -11.834  -3.372  1.00  0.00     0.165 HD
HETATM   39  C   UNL     1      42.766 -11.460  -1.348  1.00  0.00     0.097 A 
ENDBRANCH  29  30
ENDBRANCH   1  29
TORSDOF 7
ENDMDL
